@<TRIPOS>MOLECULE
36029_out_ligand_01.pdbqt
 36 39 0 0 0
SMALL
GASTEIGER

@<TRIPOS>ATOM
      1  C         21.5640  -22.0110  -11.3460 C.2     1  UNL1        0.0800
      2  C         20.7610  -21.1640  -12.1080 C.2     1  UNL1        0.0270
      3  C         19.3820  -21.1390  -11.8820 C.2     1  UNL1        0.0310
      4  C         18.7870  -21.9360  -10.8880 C.2     1  UNL1        0.0310
      5  C         19.6190  -22.7700  -10.1280 C.2     1  UNL1        0.0310
      6  C         21.0010  -22.8050  -10.3440 C.2     1  UNL1        0.0270
      7  N         17.3890  -21.8880  -10.7430 N.pl3   1  UNL1       -0.3660
      8  H         16.9140  -21.2430  -11.3690 H       1  UNL1        0.1650
      9  C         16.5910  -22.5300   -9.8280 C.2     1  UNL1        0.0920
     10  C         17.0230  -23.2680   -8.7960 C.2     1  UNL1        0.0720
     11  C         16.1490  -23.9450   -7.8040 C.2     1  UNL1        0.1840
     12  O         15.4920  -24.9290   -8.1240 O.2     1  UNL1       -0.2880
     13  C         16.0990  -23.4360   -6.4200 C.2     1  UNL1        0.0250
     14  C         14.9870  -23.7980   -5.6450 C.2     1  UNL1        0.0160
     15  C         14.8950  -23.3610   -4.3290 C.2     1  UNL1        0.0020
     16  C         15.9050  -22.5620   -3.7910 C.2     1  UNL1        0.0120
     17  C         17.0210  -22.1830   -4.5590 C.2     1  UNL1       -0.0250
     18  C         18.0270  -21.3740   -4.0030 C.2     1  UNL1        0.0120
     19  C         17.1320  -22.6160   -5.9030 C.2     1  UNL1       -0.0120
     20  C         19.1370  -20.9900   -4.7560 C.2     1  UNL1        0.0010
     21  C         19.2560  -21.4060   -6.0780 C.2     1  UNL1        0.0010
     22  C         18.2650  -22.2080   -6.6470 C.2     1  UNL1        0.0130
     23  S         23.3190  -22.0580  -11.6190 S.O2    1  UNL1        0.2630
     24  O         23.9590  -21.2630  -10.5920 O.2     1  UNL1       -0.2000
     25  O         23.6890  -23.4400  -11.8420 O.2     1  UNL1       -0.2000
     26  N         23.4900  -21.2770  -13.1100 N.pl3   1  UNL1       -0.2810
     27  H         23.1790  -20.3070  -13.0650 H       1  UNL1        0.1790
     28  C         24.6100  -21.5860  -13.9320 C.2     1  UNL1        0.0430
     29  C         25.8930  -21.4560  -13.4000 C.2     1  UNL1        0.0300
     30  C         27.0030  -21.7970  -14.1710 C.2     1  UNL1        0.0030
     31  C         26.8260  -22.2630  -15.4760 C.2     1  UNL1        0.0150
     32  C         25.5400  -22.3870  -16.0180 C.2     1  UNL1        0.0110
     33  C         24.4300  -22.0430  -15.2400 C.2     1  UNL1        0.0450
     34  C         25.4050  -22.8900  -17.4180 C.2     1  UNL1        0.1550
     35  C         24.0590  -23.3590  -17.9020 C.3     1  UNL1        0.0960
     36  O         26.3910  -22.9220  -18.1520 O.2     1  UNL1       -0.2930
@<TRIPOS>BOND
     1    36    34    2
     2    35    34    1
     3    34    32    1
     4    32    31    2
     5    32    33    1
     6    31    30    1
     7    33    28    2
     8    30    29    2
     9    28    29    1
    10    28    26    1
    11    26    27    1
    12    26    23    1
    13     2     3    1
    14     2     1    2
    15     3     4    2
    16    25    23    2
    17    23     1    1
    18    23    24    2
    19     8     7    1
    20     1     6    1
    21     4     7    1
    22     4     5    1
    23     7     9    1
    24     6     5    2
    25     9    10    2
    26    10    11    1
    27    12    11    2
    28    11    13    1
    29    22    21    2
    30    22    19    1
    31    13    19    2
    32    13    14    1
    33    21    20    1
    34    19    17    1
    35    14    15    2
    36    20    18    2
    37    17    18    1
    38    17    16    2
    39    15    16    1
