@<TRIPOS>MOLECULE
36024_out_ligand_01.pdbqt
 32 35 0 0 0
SMALL
GASTEIGER

@<TRIPOS>ATOM
      1  C         24.8550  -21.1150  -16.1880 C.3     1  UNL1        0.0490
      2  C         24.8740  -21.1130  -14.6460 C.3     1  UNL1        0.1550
      3  C         25.3000  -19.7070  -14.1850 C.3     1  UNL1        0.0490
      4  C         23.4420  -21.4490  -14.1400 C.3     1  UNL1        0.0820
      5  C         23.4490  -21.8390  -12.6940 C.ar    1  UNL1       -0.0160
      6  C         24.6020  -22.3290  -12.1060 C.ar    1  UNL1        0.0300
      7  S         24.3520  -22.6900  -10.4560 S.2     1  UNL1       -0.0720
      8  C         22.7160  -22.2330  -10.5100 C.ar    1  UNL1        0.0980
      9  C         22.3570  -21.7910  -11.7690 C.ar    1  UNL1        0.0860
     10  C         21.0380  -21.3310  -12.0940 C.1     1  UNL1        0.1030
     11  N         19.9710  -20.9420  -12.3320 N.1     1  UNL1       -0.1910
     12  C         25.9350  -22.5200  -12.8110 C.3     1  UNL1        0.1850
     13  C         27.0640  -21.7280  -12.1250 C.3     1  UNL1        0.0540
     14  C         26.3200  -24.0140  -12.8210 C.3     1  UNL1        0.0540
     15  N         25.8530  -22.1440  -14.2450 N.3     1  UNL1        0.1060
     16  H         26.7810  -21.9170  -14.6000 H       1  UNL1        0.3180
     17  N         21.9030  -22.3220   -9.3920 N.am    1  UNL1       -0.3180
     18  C         21.3750  -23.4700   -8.8180 C.2     1  UNL1        0.2460
     19  O         21.5710  -24.6360   -9.1480 O.2     1  UNL1       -0.2710
     20  H         21.5910  -21.4470   -8.9770 H       1  UNL1        0.1690
     21  C         20.4960  -23.1470   -7.6020 C.3     1  UNL1        0.2780
     22  O         19.5760  -22.0800   -7.8000 O.2     1  UNL1       -0.3410
     23  C         18.2630  -22.3870   -8.0770 C.2     1  UNL1        0.0800
     24  C         17.7730  -22.6520   -9.3600 C.2     1  UNL1        0.0370
     25  C         16.4230  -22.9380   -9.5510 C.2     1  UNL1        0.0040
     26  C         15.5520  -22.9650   -8.4650 C.2     1  UNL1        0.0120
     27  C         16.0160  -22.7050   -7.1690 C.2     1  UNL1       -0.0230
     28  C         15.1310  -22.7250   -6.0790 C.2     1  UNL1        0.0120
     29  C         17.3870  -22.4160   -6.9610 C.2     1  UNL1        0.0070
     30  C         15.5810  -22.4580   -4.7860 C.2     1  UNL1        0.0010
     31  C         16.9220  -22.1720   -4.5670 C.2     1  UNL1        0.0010
     32  C         17.8150  -22.1550   -5.6400 C.2     1  UNL1        0.0150
@<TRIPOS>BOND
     1     1     2    1
     2     2    15    1
     3     2     3    1
     4     2     4    1
     5    16    15    1
     6    15    12    1
     7     4     5    1
     8    14    12    1
     9    12    13    1
    10    12     6    1
    11     5     6   ar
    12     5     9   ar
    13    11    10    3
    14     6     7   ar
    15    10     9    1
    16     9     8   ar
    17     8     7   ar
    18     8    17    1
    19    25    24    1
    20    25    26    2
    21    17    20    1
    22    17    18   am
    23    24    23    2
    24    19    18    2
    25    18    21    1
    26    26    27    1
    27    23    22    1
    28    23    29    1
    29    22    21    1
    30    27    29    2
    31    27    28    1
    32    29    32    1
    33    28    30    2
    34    32    31    2
    35    30    31    1
