@<TRIPOS>MOLECULE
36027_out_ligand_01.pdbqt
 32 35 0 0 0
SMALL
GASTEIGER

@<TRIPOS>ATOM
      1  N         21.0810  -21.7870  -12.0770 N.pl3   1  UNL1       -0.2290
      2  C         20.5420  -22.0470  -10.9200 C.2     1  UNL1        0.1550
      3  N         21.1970  -22.4950   -9.7900 N.pl3   1  UNL1       -0.2600
      4  N         20.6640  -22.7290   -8.5620 N.2     1  UNL1       -0.1720
      5  C         19.3830  -22.5390   -8.4250 C.2     1  UNL1        0.0980
      6  C         18.4890  -22.1180   -9.5400 C.2     1  UNL1        0.0090
      7  C         17.0990  -21.9960   -9.3980 C.2     1  UNL1        0.0150
      8  C         16.3150  -21.5900  -10.4810 C.2     1  UNL1        0.0010
      9  C         16.9080  -21.3130  -11.7130 C.2     1  UNL1        0.0010
     10  C         18.2870  -21.4500  -11.8670 C.3     1  UNL1        0.0160
     11  C         19.0740  -21.8580  -10.7820 C.2     1  UNL1        0.0240
     12  H         22.2070  -22.5890   -9.8570 H       1  UNL1        0.1910
     13  C         22.4600  -21.9510  -12.2500 C.2     1  UNL1        0.0600
     14  C         23.0890  -21.4440  -13.3840 C.2     1  UNL1        0.0340
     15  C         24.4680  -21.5920  -13.5570 C.2     1  UNL1        0.0400
     16  C         25.2480  -22.2450  -12.5900 C.2     1  UNL1        0.0840
     17  C         24.6150  -22.7440  -11.4300 C.2     1  UNL1        0.0670
     18  C         23.2250  -22.5870  -11.2760 C.2     1  UNL1        0.0510
     19  O         26.6030  -22.4230  -12.7150 O.2     1  UNL1       -0.3550
     20  C         27.0740  -23.2390  -13.7820 C.3     1  UNL1        0.2100
     21  C         25.3160  -23.4550  -10.3130 C.2     1  UNL1        0.2520
     22  N         24.5830  -23.8620   -9.2390 N.am    1  UNL1       -0.3660
     23  H         23.5970  -23.6510   -9.1630 H       1  UNL1        0.1590
     24  H         25.0630  -24.3110   -8.4710 H       1  UNL1        0.1590
     25  O         26.5220  -23.6750  -10.3450 O.2     1  UNL1       -0.2680
     26  C         18.8220  -22.7630   -7.0740 C.2     1  UNL1       -0.0050
     27  C         18.9030  -21.7570   -6.1070 C.2     1  UNL1        0.0140
     28  C         18.3740  -21.9860   -4.8350 C.2     1  UNL1        0.0070
     29  C         17.7800  -23.2180   -4.5230 C.2     1  UNL1       -0.0620
     30  C         17.2110  -23.4450   -3.1530 C.3     1  UNL1        0.0480
     31  C         17.7180  -24.2200   -5.5010 C.2     1  UNL1        0.0070
     32  C         18.2450  -23.9980   -6.7750 C.2     1  UNL1        0.0140
@<TRIPOS>BOND
     1    20    19    1
     2    15    14    1
     3    15    16    2
     4    14    13    2
     5    19    16    1
     6    16    17    1
     7    13     1    1
     8    13    18    1
     9     1     2    1
    10    10     9    1
    11    10    11    1
    12     9     8    2
    13    17    18    2
    14    17    21    1
    15     2    11    2
    16     2     3    1
    17    11     6    1
    18     8     7    1
    19    25    21    2
    20    21    22   am
    21    12     3    1
    22     3     4    1
    23     6     7    2
    24     6     5    1
    25    22    23    1
    26    22    24    1
    27     4     5    2
    28     5    26    1
    29    26    32    2
    30    26    27    1
    31    32    31    1
    32    27    28    2
    33    31    29    2
    34    28    29    1
    35    29    30    1
