@<TRIPOS>MOLECULE
3602_out_ligand_01.pdbqt
 39 41 0 0 0
SMALL
GASTEIGER

@<TRIPOS>ATOM
      1  C         20.8720  -23.2430   -8.4910 C.2     1  UNL1        0.0320
      2  C         20.7560  -22.1410   -7.6310 C.2     1  UNL1        0.0180
      3  C         19.7200  -22.0860   -6.6970 C.2     1  UNL1        0.0260
      4  C         18.8070  -23.1410   -6.6240 C.2     1  UNL1        0.0790
      5  C         18.9450  -24.2680   -7.4430 C.2     1  UNL1        0.0260
      6  C         19.9780  -24.3160   -8.3810 C.2     1  UNL1        0.0180
      7  C         21.9720  -23.2480   -9.4950 C.2     1  UNL1        0.2560
      8  N         21.7070  -22.5220  -10.6420 N.am    1  UNL1       -0.3230
      9  H         20.8440  -21.9930  -10.6550 H       1  UNL1        0.1690
     10  O         23.0010  -23.8470   -9.2150 O.2     1  UNL1       -0.2670
     11  C         22.5370  -22.3610  -11.7720 C.2     1  UNL1        0.0370
     12  C         23.7200  -23.0820  -11.9950 C.2     1  UNL1        0.0620
     13  C         24.4730  -22.8680  -13.1570 C.2     1  UNL1        0.0760
     14  C         24.0210  -21.9300  -14.0920 C.2     1  UNL1        0.1430
     15  C         22.8570  -21.2040  -13.8860 C.2     1  UNL1        0.0470
     16  F         24.7240  -21.7220  -15.2170 F       1  UNL1       -0.2040
     17  C         22.1160  -21.4200  -12.7240 C.2     1  UNL1        0.0320
     18  N         25.6660  -23.5530  -13.4730 N.am    1  UNL1       -0.3110
     19  C         25.8020  -24.7270  -14.1570 C.2     1  UNL1        0.2960
     20  N         27.1150  -25.0480  -14.3520 N.am    1  UNL1       -0.2540
     21  O         24.9300  -25.4730  -14.5710 O.2     1  UNL1       -0.2540
     22  H         27.2120  -25.8650  -14.9430 H       1  UNL1        0.1280
     23  H         27.7200  -24.2840  -14.6190 H       1  UNL1        0.1280
     24  H         26.4980  -23.2290  -12.9960 H       1  UNL1        0.1700
     25  S         17.4540  -23.0500   -5.4770 S.O2    1  UNL1        0.2630
     26  O         17.0060  -24.3930   -5.1770 O.2     1  UNL1       -0.2000
     27  O         17.8330  -22.1350   -4.4210 O.2     1  UNL1       -0.2000
     28  N         16.2630  -22.2560   -6.3870 N.pl3   1  UNL1       -0.2810
     29  H         15.3920  -22.2010   -5.8570 H       1  UNL1        0.1790
     30  C         16.1730  -22.5700   -7.7690 C.2     1  UNL1        0.0430
     31  C         15.5200  -23.7260   -8.1880 C.2     1  UNL1        0.0300
     32  C         15.4990  -24.0590   -9.5430 C.2     1  UNL1        0.0030
     33  C         16.1440  -23.2410  -10.4750 C.2     1  UNL1        0.0160
     34  C         16.8140  -22.0820  -10.0600 C.2     1  UNL1        0.0500
     35  C         16.8140  -21.7490   -8.6970 C.2     1  UNL1        0.0460
     36  C         17.5380  -21.1940  -11.0420 C.3     1  UNL1        0.4170
     37  F         18.8580  -21.0460  -10.7300 F       1  UNL1       -0.1660
     38  F         17.5100  -21.6570  -12.3220 F       1  UNL1       -0.1660
     39  F         17.0230  -19.9350  -11.0850 F       1  UNL1       -0.1660
@<TRIPOS>BOND
     1    16    14    1
     2    22    20    1
     3    23    20    1
     4    21    19    2
     5    20    19   am
     6    19    18   am
     7    14    15    2
     8    14    13    1
     9    15    17    1
    10    18    13    1
    11    18    24    1
    12    13    12    2
    13    17    11    2
    14    38    36    1
    15    12    11    1
    16    11     8    1
    17    39    36    1
    18    36    37    1
    19    36    34    1
    20     9     8    1
    21     8     7   am
    22    33    34    2
    23    33    32    1
    24    34    35    1
    25    32    31    2
    26     7    10    2
    27     7     1    1
    28    35    30    2
    29     1     6    2
    30     1     2    1
    31     6     5    1
    32    31    30    1
    33    30    28    1
    34     2     3    2
    35     5     4    2
    36     3     4    1
    37     4    25    1
    38    28    29    1
    39    28    25    1
    40    25    26    2
    41    25    27    2
