@<TRIPOS>MOLECULE
36031_out_ligand_01.pdbqt
 34 39 0 0 0
SMALL
GASTEIGER

@<TRIPOS>ATOM
      1  C         24.5320  -21.9010  -12.4090 C.2     1  UNL1        0.1440
      2  N         24.3100  -21.3740  -13.6310 N.2     1  UNL1       -0.2230
      3  C         23.0620  -21.0400  -13.9830 C.2     1  UNL1        0.2360
      4  N         21.9520  -21.1590  -13.2520 N.2     1  UNL1       -0.2400
      5  C         22.1560  -21.6890  -12.0190 C.ar    1  UNL1        0.0920
      6  C         23.4190  -22.0660  -11.5710 C.ar    1  UNL1        0.0820
      7  S         23.3450  -22.6960   -9.9720 S.2     1  UNL1       -0.0630
      8  C         21.6640  -22.4650   -9.8790 C.ar    1  UNL1        0.1120
      9  N         20.9960  -22.7980   -8.7540 N.ar    1  UNL1       -0.2390
     10  C         19.6620  -22.5620   -8.7680 C.ar    1  UNL1        0.0750
     11  C         19.0140  -22.0490   -9.8810 C.ar    1  UNL1       -0.0210
     12  C         19.7440  -21.7210  -11.0310 C.ar    1  UNL1       -0.0340
     13  C         21.1310  -21.9240  -11.0420 C.ar    1  UNL1        0.0370
     14  C         18.8400  -21.1590  -12.0940 C.3     1  UNL1        0.0400
     15  C         17.4750  -21.6620  -11.6120 C.3     1  UNL1        0.0090
     16  C         17.5600  -21.7480  -10.0840 C.3     1  UNL1        0.0420
     17  N         25.8090  -22.2780  -12.0100 N.pl3   1  UNL1       -0.3690
     18  H         26.5120  -21.6070  -12.3070 H       1  UNL1        0.1610
     19  C         26.2520  -23.6760  -12.0680 C.3     1  UNL1        0.0790
     20  C         27.0450  -24.0440  -10.8120 C.3     1  UNL1        0.0320
     21  C         26.9810  -23.9890  -13.3900 C.3     1  UNL1        0.0290
     22  C         26.0810  -24.5980  -14.4740 C.3     1  UNL1        0.0400
     23  C         25.8260  -23.7130  -15.6670 C.2     1  UNL1       -0.0580
     24  C         24.6460  -23.8430  -16.4100 C.2     1  UNL1        0.0070
     25  C         24.4090  -23.0220  -17.5140 C.2     1  UNL1        0.0010
     26  C         25.3470  -22.0610  -17.8830 C.2     1  UNL1        0.0000
     27  C         26.5210  -21.9160  -17.1470 C.2     1  UNL1        0.0010
     28  C         26.7590  -22.7360  -16.0420 C.2     1  UNL1        0.0070
     29  C         18.9640  -22.9140   -7.5190 C.2     1  UNL1       -0.0070
     30  C         18.3140  -24.1500   -7.3570 C.2     1  UNL1        0.0140
     31  C         17.6600  -24.4700   -6.1640 C.2     1  UNL1        0.0010
     32  C         17.6370  -23.5560   -5.1140 C.2     1  UNL1        0.0000
     33  C         18.2610  -22.3200   -5.2570 C.2     1  UNL1        0.0010
     34  C         18.9140  -22.0020   -6.4510 C.2     1  UNL1        0.0140
@<TRIPOS>BOND
     1    26    25    2
     2    26    27    1
     3    25    24    1
     4    27    28    2
     5    24    23    2
     6    28    23    1
     7    23    22    1
     8    22    21    1
     9     3     2    1
    10     3     4    2
    11     2     1    2
    12    21    19    1
    13     4     5    1
    14     1    17    1
    15     1     6    1
    16    18    17    1
    17    14    15    1
    18    14    12    1
    19    19    17    1
    20    19    20    1
    21     5     6   ar
    22     5    13   ar
    23    15    16    1
    24     6     7   ar
    25    13    12   ar
    26    13     8   ar
    27    12    11   ar
    28    16    11    1
    29     7     8   ar
    30    11    10   ar
    31     8     9   ar
    32    10     9   ar
    33    10    29    1
    34    29    30    2
    35    29    34    1
    36    30    31    1
    37    34    33    2
    38    31    32    2
    39    33    32    1
