@<TRIPOS>MOLECULE
36059_out_ligand_01.pdbqt
 43 47 0 0 0
SMALL
GASTEIGER

@<TRIPOS>ATOM
      1  N         25.0430  -21.9660  -12.7950 N.pl3   1  UNL1       -0.2290
      2  C         23.8200  -21.9370  -12.3470 C.2     1  UNL1        0.1550
      3  N         22.7310  -21.3560  -12.9650 N.pl3   1  UNL1       -0.2600
      4  N         21.4370  -21.3760  -12.5500 N.2     1  UNL1       -0.1720
      5  C         21.1850  -21.9680  -11.4180 C.2     1  UNL1        0.0980
      6  C         22.2390  -22.5820  -10.5580 C.3     1  UNL1        0.0090
      7  C         21.9700  -23.1300   -9.2950 C.2     1  UNL1        0.0150
      8  C         23.0010  -23.6990   -8.5420 C.2     1  UNL1        0.0010
      9  C         24.3050  -23.7150   -9.0350 C.2     1  UNL1        0.0010
     10  C         24.5840  -23.1530  -10.2790 C.2     1  UNL1        0.0160
     11  C         23.5510  -22.5810  -11.0360 C.2     1  UNL1        0.0240
     12  H         22.9060  -20.8880  -13.8500 H       1  UNL1        0.1910
     13  C         19.7660  -22.0100  -10.9960 C.2     1  UNL1       -0.0030
     14  C         18.8030  -21.4070  -11.8020 C.2     1  UNL1        0.0140
     15  C         17.4630  -21.4300  -11.4110 C.2     1  UNL1        0.0090
     16  C         17.0620  -22.0720  -10.2250 C.2     1  UNL1       -0.0390
     17  C         15.6080  -22.0080   -9.8430 C.3     1  UNL1        0.0500
     18  C         18.0500  -22.6940   -9.4340 C.2     1  UNL1        0.0860
     19  C         19.3980  -22.6700   -9.8230 C.2     1  UNL1        0.0390
     20  S         17.6610  -23.5100   -7.8960 S.O2    1  UNL1        0.2590
     21  O         16.4020  -24.2060   -8.0470 O.2     1  UNL1       -0.2010
     22  O         18.8490  -24.1990   -7.4450 O.2     1  UNL1       -0.2010
     23  N         17.4140  -22.2170   -6.8600 N.3     1  UNL1       -0.3130
     24  H         17.7600  -21.3330   -7.2410 H       1  UNL1        0.1720
     25  C         17.6520  -22.4130   -5.4200 C.3     1  UNL1        0.1640
     26  C         16.3280  -22.3290   -4.6430 C.3     1  UNL1        0.1400
     27  C         15.8810  -23.6400   -4.0070 C.3     1  UNL1        0.0350
     28  C         14.7710  -24.1180   -4.9100 C.3     1  UNL1        0.0290
     29  C         14.1810  -22.8240   -5.4130 C.3     1  UNL1        0.1680
     30  O         15.2750  -21.9070   -5.5360 O.3     1  UNL1       -0.3840
     31  C         25.3540  -21.3680  -14.0200 C.2     1  UNL1        0.0600
     32  C         25.6850  -20.0180  -14.0760 C.2     1  UNL1        0.0340
     33  C         25.9580  -19.4030  -15.3010 C.2     1  UNL1        0.0400
     34  C         25.8930  -20.1290  -16.4990 C.2     1  UNL1        0.0840
     35  C         25.5560  -21.4990  -16.4470 C.2     1  UNL1        0.0670
     36  C         25.2850  -22.1000  -15.2030 C.2     1  UNL1        0.0510
     37  O         26.1490  -19.5730  -17.7280 O.2     1  UNL1       -0.3550
     38  C         25.8610  -18.1910  -17.9090 C.3     1  UNL1        0.2100
     39  C         25.4610  -22.4010  -17.6370 C.2     1  UNL1        0.2520
     40  N         24.2290  -22.6740  -18.1530 N.am    1  UNL1       -0.3660
     41  H         23.3970  -22.2220  -17.7920 H       1  UNL1        0.1590
     42  H         24.1710  -23.2390  -18.9870 H       1  UNL1        0.1590
     43  O         26.4610  -22.8940  -18.1530 O.2     1  UNL1       -0.2680
@<TRIPOS>BOND
     1    42    40    1
     2    43    39    2
     3    40    41    1
     4    40    39   am
     5    38    37    1
     6    37    34    1
     7    39    35    1
     8    34    35    2
     9    34    33    1
    10    35    36    1
    11    33    32    2
    12    36    31    2
    13    32    31    1
    14    31     1    1
    15    12     3    1
    16     3     4    1
    17     3     2    1
    18     1     2    1
    19     4     5    2
    20     2    11    2
    21    14    15    1
    22    14    13    2
    23     5    13    1
    24     5     6    1
    25    15    16    2
    26    11     6    1
    27    11    10    1
    28    13    19    1
    29     6     7    1
    30    10     9    2
    31    16    17    1
    32    16    18    1
    33    19    18    2
    34    18    20    1
    35     7     8    2
    36     9     8    1
    37    21    20    2
    38    20    22    2
    39    20    23    1
    40    24    23    1
    41    23    25    1
    42    30    29    1
    43    30    26    1
    44    25    26    1
    45    29    28    1
    46    28    27    1
    47    26    27    1
