@<TRIPOS>MOLECULE
36055_out_ligand_01.pdbqt
 34 37 0 0 0
SMALL
GASTEIGER

@<TRIPOS>ATOM
      1  C         22.1950  -22.5970  -11.1220 C.ar    1  UNL1        0.1020
      2  S         20.6820  -21.9830  -11.6530 S.2     1  UNL1       -0.0620
      3  C         19.8880  -22.5060  -10.2470 C.ar    1  UNL1        0.1110
      4  N         18.5690  -22.2810  -10.0860 N.2     1  UNL1       -0.2350
      5  C         18.0280  -22.7490   -8.9240 C.2     1  UNL1        0.1550
      6  C         18.7790  -23.4280   -7.9630 C.2     1  UNL1        0.0500
      7  C         20.1520  -23.6280   -8.1650 C.2     1  UNL1        0.0340
      8  C         20.7360  -23.1520   -9.3580 C.ar    1  UNL1        0.0290
      9  C         22.0700  -23.1950   -9.8780 C.ar    1  UNL1        0.0620
     10  N         23.1030  -23.7740   -9.2220 N.pl3   1  UNL1       -0.3970
     11  H         23.0900  -23.9430   -8.2210 H       1  UNL1        0.1560
     12  H         24.0530  -23.6520   -9.5870 H       1  UNL1        0.1560
     13  C         23.4120  -22.4500  -11.9280 C.2     1  UNL1        0.2650
     14  N         23.2670  -21.6620  -13.0590 N.am    1  UNL1       -0.3220
     15  H         22.3440  -21.2720  -13.2030 H       1  UNL1        0.1690
     16  O         24.4630  -22.9950  -11.5960 O.2     1  UNL1       -0.2670
     17  C         24.2350  -21.3310  -14.0290 C.2     1  UNL1        0.0350
     18  C         24.2690  -22.1180  -15.1860 C.2     1  UNL1        0.0300
     19  C         25.1970  -21.8610  -16.2010 C.2     1  UNL1        0.0090
     20  C         26.1010  -20.8020  -16.0810 C.2     1  UNL1       -0.0620
     21  C         27.1190  -20.5420  -17.1500 C.3     1  UNL1        0.0480
     22  C         26.0760  -20.0250  -14.9190 C.2     1  UNL1        0.0090
     23  C         25.1470  -20.2830  -13.9040 C.2     1  UNL1        0.0300
     24  C         16.5360  -22.5190   -8.7090 C.3     1  UNL1        0.4350
     25  F         16.2570  -21.7300   -7.6360 F       1  UNL1       -0.1650
     26  F         15.8380  -23.6790   -8.5370 F       1  UNL1       -0.1650
     27  F         15.9350  -21.9080   -9.7740 F       1  UNL1       -0.1650
     28  C         18.1710  -23.8910   -6.7010 C.2     1  UNL1        0.2010
     29  O         17.7040  -25.0270   -6.7280 O.2     1  UNL1       -0.2860
     30  C         18.1620  -22.9960   -5.5530 C.2     1  UNL1        0.0550
     31  C         18.6520  -21.7080   -5.4210 C.2     1  UNL1        0.0230
     32  C         18.4420  -21.1740   -4.1150 C.2     1  UNL1        0.0090
     33  C         17.8070  -22.0710   -3.2870 C.2     1  UNL1        0.0500
     34  S         17.4700  -23.5450   -4.0810 S.3     1  UNL1       -0.0980
@<TRIPOS>BOND
     1    21    20    1
     2    19    20    2
     3    19    18    1
     4    20    22    1
     5    18    17    2
     6    22    23    2
     7    17    23    1
     8    17    14    1
     9    15    14    1
    10    14    13   am
    11    13    16    2
    12    13     1    1
    13     2     1   ar
    14     2     3   ar
    15     1     9   ar
    16     3     4    2
    17     3     8   ar
    18     4     5    1
    19     9     8   ar
    20     9    10    1
    21    27    24    1
    22    12    10    1
    23     8     7    2
    24    10    11    1
    25     5    24    1
    26     5     6    2
    27    24    26    1
    28    24    25    1
    29     7     6    1
    30     6    28    1
    31    29    28    2
    32    28    30    1
    33    30    31    2
    34    30    34    1
    35    31    32    1
    36    32    33    2
    37    34    33    1
