@<TRIPOS>MOLECULE
36052_out_ligand_01.pdbqt
 38 42 0 0 0
SMALL
GASTEIGER

@<TRIPOS>ATOM
      1  N         19.8760  -23.0810   -9.4230 N.pl3   1  UNL1       -0.3460
      2  C         20.9880  -22.9860  -10.2240 C.2     1  UNL1        0.1040
      3  C         20.6610  -22.2020  -11.3070 C.2     1  UNL1       -0.0070
      4  C         19.2850  -21.8450  -11.1860 C.2     1  UNL1        0.0020
      5  C         18.3900  -21.0950  -11.9790 C.2     1  UNL1        0.0140
      6  C         17.0670  -20.9250  -11.5580 C.2     1  UNL1        0.0010
      7  C         16.6270  -21.4850  -10.3640 C.2     1  UNL1        0.0020
      8  C         17.4930  -22.2290   -9.5570 C.2     1  UNL1        0.0300
      9  C         18.8190  -22.3970   -9.9880 C.2     1  UNL1        0.0450
     10  C         21.5290  -21.8820  -12.3930 C.2     1  UNL1        0.0350
     11  C         22.8590  -21.6750  -12.3860 C.2     1  UNL1        0.0860
     12  C         23.5360  -21.4530  -13.6940 C.2     1  UNL1        0.2710
     13  C         23.7540  -21.6280  -11.2440 C.2     1  UNL1        0.1830
     14  O         22.8700  -21.0840  -14.6600 O.2     1  UNL1       -0.2660
     15  N         24.9180  -21.6730  -13.6800 N.am    1  UNL1       -0.2280
     16  C         25.5870  -22.0630  -12.5010 C.2     1  UNL1        0.3580
     17  O         26.6430  -22.6900  -12.5180 O.2     1  UNL1       -0.2440
     18  N         25.0210  -21.7730  -11.2830 N.am    1  UNL1       -0.1680
     19  C         25.6720  -21.6240  -14.9170 C.2     1  UNL1        0.0500
     20  C         26.0310  -22.7870  -15.6250 C.2     1  UNL1        0.0300
     21  C         26.7480  -22.7240  -16.8280 C.2     1  UNL1        0.0050
     22  C         27.1200  -21.4930  -17.3520 C.2     1  UNL1        0.0420
     23  C         26.7740  -20.3380  -16.6690 C.2     1  UNL1        0.1180
     24  F         27.1190  -19.1460  -17.1740 F       1  UNL1       -0.2060
     25  C         26.0640  -20.3920  -15.4700 C.2     1  UNL1        0.0720
     26  O         23.2130  -21.3320  -10.0600 O.2     1  UNL1       -0.3440
     27  H         23.8010  -20.7080   -9.6010 H       1  UNL1        0.2190
     28  C         19.8270  -23.8270   -8.1730 C.3     1  UNL1        0.2310
     29  C         19.0970  -23.1350   -7.0290 C.2     1  UNL1        0.2400
     30  O         19.5980  -22.1230   -6.5370 O.2     1  UNL1       -0.2710
     31  N         17.9400  -23.7520   -6.5890 N.am    1  UNL1       -0.3260
     32  H         17.6030  -24.5460   -7.1220 H       1  UNL1        0.1690
     33  C         17.1020  -23.3580   -5.5240 C.2     1  UNL1        0.0340
     34  C         17.3510  -23.6420   -4.1810 C.2     1  UNL1        0.0290
     35  C         16.4610  -23.2150   -3.1890 C.2     1  UNL1        0.0020
     36  C         15.3150  -22.5030   -3.5310 C.2     1  UNL1        0.0000
     37  C         15.0560  -22.2160   -4.8680 C.2     1  UNL1        0.0020
     38  C         15.9450  -22.6420   -5.8590 C.2     1  UNL1        0.0290
@<TRIPOS>BOND
     1    22    21    2
     2    22    23    1
     3    24    23    1
     4    21    20    1
     5    23    25    2
     6    20    19    2
     7    25    19    1
     8    19    15    1
     9    14    12    2
    10    12    15   am
    11    12    11    1
    12    15    16   am
    13    17    16    2
    14    16    18    1
    15    10    11    2
    16    10     3    1
    17    11    13    1
    18     5     6    1
    19     5     4    2
    20     6     7    2
    21     3     4    1
    22     3     2    2
    23    18    13    2
    24    13    26    1
    25     4     9    1
    26     7     8    1
    27     2     1    1
    28    26    27    1
    29     9     8    2
    30     9     1    1
    31     1    28    1
    32    28    29    1
    33    32    31    1
    34    29    31   am
    35    29    30    2
    36    31    33    1
    37    38    33    2
    38    38    37    1
    39    33    34    1
    40    37    36    2
    41    34    35    2
    42    36    35    1
