@<TRIPOS>MOLECULE
36068_out_ligand_01.pdbqt
 37 40 0 0 0
SMALL
GASTEIGER

@<TRIPOS>ATOM
      1  C         20.6800  -22.2570   -9.8080 C.2     1  UNL1        0.0860
      2  C         19.9230  -22.6100   -8.6760 C.2     1  UNL1        0.0390
      3  C         18.5210  -22.5540   -8.6920 C.2     1  UNL1       -0.0030
      4  C         17.8990  -22.1600   -9.8870 C.2     1  UNL1        0.0140
      5  C         18.6460  -21.8270  -11.0210 C.2     1  UNL1        0.0090
      6  C         20.0480  -21.8670  -11.0030 C.2     1  UNL1       -0.0390
      7  C         20.7900  -21.5340  -12.2670 C.3     1  UNL1        0.0500
      8  S         22.4560  -22.3280   -9.6560 S.O2    1  UNL1        0.2630
      9  O         22.7740  -23.1040   -8.4760 O.2     1  UNL1       -0.2000
     10  O         22.9990  -20.9980   -9.8350 O.2     1  UNL1       -0.2000
     11  N         22.9190  -23.2680  -10.9840 N.pl3   1  UNL1       -0.2810
     12  H         22.9100  -24.2590  -10.7440 H       1  UNL1        0.1790
     13  C         23.9600  -22.7910  -11.8240 C.2     1  UNL1        0.0430
     14  C         25.2270  -22.5770  -11.2820 C.2     1  UNL1        0.0330
     15  C         26.2580  -22.0990  -12.0920 C.2     1  UNL1        0.0400
     16  C         26.0240  -21.8580  -13.4480 C.2     1  UNL1        0.0840
     17  C         24.7530  -22.0760  -13.9940 C.2     1  UNL1        0.0670
     18  C         23.7180  -22.5550  -13.1770 C.2     1  UNL1        0.0500
     19  O         27.0240  -21.2840  -14.1870 O.2     1  UNL1       -0.3550
     20  C         27.1210  -19.8870  -13.9100 C.3     1  UNL1        0.2100
     21  C         24.4870  -21.8390  -15.4320 C.2     1  UNL1        0.2520
     22  N         24.2330  -20.5440  -15.7940 N.am    1  UNL1       -0.3660
     23  H         24.4640  -19.7660  -15.1930 H       1  UNL1        0.1590
     24  H         24.1720  -20.3680  -16.7890 H       1  UNL1        0.1590
     25  O         24.4860  -22.7420  -16.2580 O.2     1  UNL1       -0.2680
     26  C         17.7120  -22.9440   -7.5220 C.ar    1  UNL1        0.1000
     27  N         16.7650  -23.8780   -7.8130 N.ar    1  UNL1       -0.1460
     28  N         15.9570  -24.3690   -6.8410 N.ar    1  UNL1       -0.1230
     29  C         16.1100  -23.9160   -5.5860 C.ar    1  UNL1        0.1950
     30  C         17.0410  -22.9520   -5.2060 C.ar    1  UNL1        0.0310
     31  C         17.1630  -22.4950   -3.8760 C.2     1  UNL1        0.0170
     32  C         17.8770  -22.4300   -6.2130 C.ar    1  UNL1        0.0100
     33  C         18.0980  -21.5220   -3.5350 C.2     1  UNL1        0.0010
     34  C         18.9170  -20.9840   -4.5170 C.2     1  UNL1        0.0010
     35  C         18.8050  -21.4230   -5.8390 C.2     1  UNL1        0.0150
     36  O         15.2560  -24.4790   -4.6850 O.3     1  UNL1       -0.3430
     37  H         15.6730  -24.2180   -3.8440 H       1  UNL1        0.2190
@<TRIPOS>BOND
     1    24    22    1
     2    25    21    2
     3    22    21   am
     4    22    23    1
     5    21    17    1
     6    19    20    1
     7    19    16    1
     8    17    16    2
     9    17    18    1
    10    16    15    1
    11    18    13    2
    12     7     6    1
    13    15    14    2
    14    13    14    1
    15    13    11    1
    16     5     6    1
    17     5     4    2
    18     6     1    2
    19    11    12    1
    20    11     8    1
    21     4     3    1
    22    10     8    2
    23     1     8    1
    24     1     2    1
    25     8     9    2
    26     3     2    2
    27     3    26    1
    28    27    26   ar
    29    27    28   ar
    30    26    32   ar
    31    28    29   ar
    32    32    35    1
    33    32    30   ar
    34    35    34    2
    35    29    30   ar
    36    29    36    1
    37    30    31    1
    38    36    37    1
    39    34    33    1
    40    31    33    2
