@<TRIPOS>MOLECULE
36096_out_ligand_01.pdbqt
 32 35 0 0 0
SMALL
GASTEIGER

@<TRIPOS>ATOM
      1  C         27.0840  -19.1330  -11.9600 C.3     1  UNL1        0.1630
      2  N         26.0030  -19.8000  -12.6590 N.ar    1  UNL1       -0.2860
      3  C         25.7820  -19.5710  -14.0110 C.ar    1  UNL1        0.3300
      4  O         26.4600  -18.8110  -14.7030 O.2     1  UNL1       -0.2460
      5  N         24.7330  -20.2520  -14.6010 N.ar    1  UNL1       -0.2730
      6  C         23.8940  -21.1680  -14.0080 C.ar    1  UNL1        0.2800
      7  O         23.0300  -21.7640  -14.6410 O.2     1  UNL1       -0.2650
      8  C         24.1660  -21.3420  -12.6240 C.ar    1  UNL1        0.1670
      9  C         25.1810  -20.6850  -11.9940 C.ar    1  UNL1        0.1860
     10  N         25.2660  -21.0210  -10.6830 N.ar    1  UNL1       -0.0420
     11  C         24.3060  -21.9090  -10.4840 C.ar    1  UNL1        0.7260
     12  N         23.5710  -22.0990  -11.6460 N.ar    1  UNL1       -0.1660
     13  H         24.6010  -20.0860  -15.5860 H       1  UNL1        0.1730
     14  N         24.0060  -22.5640   -9.3240 N.pl3   1  UNL1       -0.1070
     15  H         24.5450  -22.3090   -8.4980 H       1  UNL1        0.2080
     16  N         22.7550  -23.0040   -8.9790 N.2     1  UNL1       -0.1720
     17  C         22.0840  -22.2370   -8.1760 C.2     1  UNL1        0.1500
     18  C         20.7370  -22.6010   -7.6950 C.2     1  UNL1       -0.0170
     19  C         20.1940  -23.8310   -8.0820 C.2     1  UNL1        0.0140
     20  C         18.9210  -24.1980   -7.6390 C.2     1  UNL1        0.0200
     21  C         18.1990  -23.3350   -6.8130 C.2     1  UNL1        0.0110
     22 BR         16.4770  -23.8330   -6.2150 Br      1  UNL1       -0.0510
     23  C         18.7370  -22.1070   -6.4270 C.2     1  UNL1        0.0200
     24  C         20.0100  -21.7390   -6.8680 C.2     1  UNL1        0.0140
     25  C         22.3830  -22.9190  -11.8140 C.3     1  UNL1        0.1860
     26  C         21.1160  -22.1190  -11.6190 C.2     1  UNL1       -0.0380
     27  C         21.1010  -20.7410  -11.8850 C.2     1  UNL1        0.0090
     28  C         19.9370  -19.9910  -11.7020 C.2     1  UNL1        0.0020
     29  C         18.7710  -20.6080  -11.2530 C.2     1  UNL1        0.0190
     30  C         18.7760  -21.9760  -10.9880 C.2     1  UNL1        0.0110
     31 BR         17.1970  -22.8160  -10.3760 Br      1  UNL1       -0.0510
     32  C         19.9360  -22.7310  -11.1690 C.2     1  UNL1        0.0270
@<TRIPOS>BOND
     1    13     5    1
     2     4     3    2
     3     7     6    2
     4     5     3   ar
     5     5     6   ar
     6     3     2   ar
     7     6     8   ar
     8     2     9   ar
     9     2     1    1
    10     8     9   ar
    11     8    12   ar
    12     9    10   ar
    13    27    28    1
    14    27    26    2
    15    25    12    1
    16    25    26    1
    17    28    29    2
    18    12    11   ar
    19    26    32    1
    20    29    30    1
    21    32    30    2
    22    30    31    1
    23    10    11   ar
    24    11    14    1
    25    14    16    1
    26    14    15    1
    27    16    17    2
    28    17    18    1
    29    19    18    2
    30    19    20    1
    31    18    24    1
    32    20    21    2
    33    24    23    2
    34    21    23    1
    35    21    22    1
