@<TRIPOS>MOLECULE
3609_out_ligand_01.pdbqt
 30 32 0 0 0
SMALL
GASTEIGER

@<TRIPOS>ATOM
      1  N         17.8630  -23.1210   -8.3050 N.am    1  UNL1       -0.3480
      2  C         18.3490  -23.2010   -9.5870 C.2     1  UNL1        0.2560
      3  O         17.6660  -23.2880  -10.5970 O.2     1  UNL1       -0.2680
      4  H         18.4910  -23.1020   -7.5130 H       1  UNL1        0.1630
      5  C         19.8090  -23.1870   -9.7220 C.2     1  UNL1        0.0830
      6  C         20.5810  -24.1090   -9.0470 C.2     1  UNL1        0.1380
      7  N         21.9280  -24.1460   -9.1070 N.2     1  UNL1       -0.2430
      8  C         22.5250  -23.1940   -9.8560 C.2     1  UNL1        0.1540
      9  N         21.8560  -22.2480  -10.5420 N.2     1  UNL1       -0.2260
     10  C         20.4880  -22.2430  -10.4720 C.2     1  UNL1        0.1590
     11  C         24.0440  -23.2080   -9.9430 C.3     1  UNL1        0.3460
     12  N         24.6930  -24.1000   -8.9640 N.3     1  UNL1        0.0850
     13  H         25.4650  -23.5690   -8.5520 H       1  UNL1        0.3130
     14  H         25.1490  -24.8510   -9.4810 H       1  UNL1        0.3130
     15  C         19.7300  -21.1910  -11.2650 C.3     1  UNL1        0.4350
     16  F         20.5340  -20.1570  -11.6630 F       1  UNL1       -0.1650
     17  F         19.1950  -21.6730  -12.4240 F       1  UNL1       -0.1650
     18  F         18.7170  -20.6070  -10.5710 F       1  UNL1       -0.1650
     19  C         16.4290  -23.0550   -8.0250 C.3     1  UNL1        0.1160
     20  C         15.6650  -24.1730   -8.7480 C.3     1  UNL1        0.0370
     21  C         16.1960  -23.1070   -6.5200 C.2     1  UNL1       -0.0060
     22  C         15.1160  -23.8570   -6.0040 C.2     1  UNL1        0.0110
     23  C         14.8850  -23.9250   -4.6340 C.2     1  UNL1        0.0020
     24  C         15.7290  -23.2480   -3.7640 C.2     1  UNL1        0.0140
     25  C         16.8070  -22.4990   -4.2590 C.2     1  UNL1       -0.0070
     26  C         17.6610  -21.8140   -3.3850 C.2     1  UNL1        0.0150
     27  C         17.0570  -22.4190   -5.6500 C.2     1  UNL1        0.0750
     28  C         18.7250  -21.0780   -3.8860 C.2     1  UNL1        0.0200
     29  C         18.8980  -21.0530   -5.2540 C.2     1  UNL1        0.1170
     30  N         18.0950  -21.7020   -6.1250 N.2     1  UNL1       -0.2600
@<TRIPOS>BOND
     1    17    15    1
     2    16    15    1
     3    15    18    1
     4    15    10    1
     5     3     2    2
     6     9    10    2
     7     9     8    1
     8    10     5    1
     9    11     8    1
    10    11    12    1
    11     8     7    2
    12     5     2    1
    13     5     6    2
    14     2     1   am
    15    14    12    1
    16     7     6    1
    17    12    13    1
    18    20    19    1
    19     1    19    1
    20     1     4    1
    21    19    21    1
    22    21    22    2
    23    21    27    1
    24    30    27    1
    25    30    29    2
    26    22    23    1
    27    27    25    2
    28    29    28    1
    29    23    24    2
    30    25    24    1
    31    25    26    1
    32    28    26    2
