@<TRIPOS>MOLECULE
36102_out_ligand_01.pdbqt
 30 34 0 0 0
SMALL
GASTEIGER

@<TRIPOS>ATOM
      1  C         15.8710  -23.3160   -8.0630 C.3     1  UNL1        0.2700
      2  C         16.3660  -24.5630   -7.2770 C.3     1  UNL1        0.0420
      3  C         17.8140  -24.4260   -6.7640 C.3     1  UNL1        0.0070
      4  C         18.8160  -24.2330   -7.9190 C.3     1  UNL1        0.0420
      5  C         18.3000  -23.2590   -8.9220 C.ar    1  UNL1       -0.0210
      6  C         16.9740  -22.8780   -8.9730 C.ar    1  UNL1        0.0500
      7  N         16.8280  -21.9710   -9.9870 N.ar    1  UNL1       -0.3570
      8  C         18.0380  -21.7760  -10.6180 C.ar    1  UNL1        0.0430
      9  C         18.3660  -20.9530  -11.6990 C.2     1  UNL1        0.0310
     10  C         19.6980  -20.9540  -12.1320 C.2     1  UNL1        0.0140
     11  C         20.6840  -21.7430  -11.5180 C.2     1  UNL1       -0.0250
     12  C         20.3140  -22.5570  -10.4290 C.2     1  UNL1        0.0260
     13  C         18.9800  -22.5770   -9.9690 C.ar    1  UNL1       -0.0000
     14  H         15.9680  -21.4910  -10.2130 H       1  UNL1        0.1660
     15  N         15.5350  -22.1640   -7.2270 N.3     1  UNL1        0.0940
     16  H         16.3300  -21.9380   -6.6320 H       1  UNL1        0.3160
     17  C         14.3320  -22.3590   -6.4180 C.3     1  UNL1        0.2750
     18  C         14.5570  -21.8140   -5.0020 C.3     1  UNL1        0.0680
     19  C         15.7540  -22.4550   -4.3420 C.2     1  UNL1       -0.0570
     20  C         16.9950  -21.8050   -4.3310 C.2     1  UNL1        0.0070
     21  C         18.1050  -22.4110   -3.7390 C.2     1  UNL1        0.0010
     22  C         17.9850  -23.6700   -3.1570 C.2     1  UNL1        0.0000
     23  C         16.7570  -24.3270   -3.1650 C.2     1  UNL1        0.0010
     24  C         15.6450  -23.7250   -3.7560 C.2     1  UNL1        0.0070
     25  C         22.0750  -21.7220  -11.9980 C.2     1  UNL1       -0.0260
     26  C         22.3770  -21.3590  -13.3220 C.2     1  UNL1        0.0120
     27  C         23.6970  -21.3380  -13.7800 C.2     1  UNL1        0.0010
     28  C         24.7390  -21.6800  -12.9210 C.2     1  UNL1        0.0000
     29  C         24.4610  -22.0430  -11.6060 C.2     1  UNL1        0.0010
     30  C         23.1400  -22.0630  -11.1490 C.2     1  UNL1        0.0120
@<TRIPOS>BOND
     1    27    26    1
     2    27    28    2
     3    26    25    2
     4    28    29    1
     5    10     9    1
     6    10    11    2
     7    25    11    1
     8    25    30    1
     9     9     8    2
    10    29    30    2
    11    11    12    1
    12     8     7   ar
    13     8    13   ar
    14    12    13    2
    15    14     7    1
    16     7     6   ar
    17    13     5   ar
    18     6     5   ar
    19     6     1    1
    20     5     4    1
    21     1     2    1
    22     1    15    1
    23     4     3    1
    24     2     3    1
    25    15    16    1
    26    15    17    1
    27    17    18    1
    28    18    19    1
    29    19    20    2
    30    19    24    1
    31    20    21    1
    32    24    23    2
    33    21    22    2
    34    23    22    1
