@<TRIPOS>MOLECULE
36105_out_ligand_01.pdbqt
 31 34 0 0 0
SMALL
GASTEIGER

@<TRIPOS>ATOM
      1  C         22.8610  -21.6080  -13.3350 C.2     1  UNL1        0.0770
      2  C         23.8380  -22.4530  -12.7620 C.2     1  UNL1        0.0380
      3  C         23.6120  -23.0660  -11.5250 C.2     1  UNL1        0.0210
      4  C         22.4110  -22.8000  -10.8950 C.2     1  UNL1        0.0480
      5  C         21.4680  -21.9640  -11.4460 C.2     1  UNL1        0.0510
      6  C         21.6630  -21.3420  -12.6640 C.2     1  UNL1        0.0550
      7  C         20.3370  -21.9020  -10.5270 C.2     1  UNL1        0.2660
      8  O         19.3630  -21.2210  -10.7910 O.2     1  UNL1       -0.2670
      9  N         20.6400  -22.7080   -9.4450 N.am    1  UNL1       -0.2440
     10  C         21.8870  -23.2810   -9.6210 C.2     1  UNL1        0.2660
     11  O         22.5370  -24.0530   -8.9380 O.2     1  UNL1       -0.2670
     12  C         19.7910  -22.9220   -8.3130 C.2     1  UNL1        0.0460
     13  C         19.7550  -22.0200   -7.2360 C.2     1  UNL1        0.0310
     14  C         18.9200  -22.2270   -6.1270 C.2     1  UNL1        0.0190
     15  C         18.0860  -23.3430   -6.0650 C.2     1  UNL1        0.0320
     16  C         18.1130  -24.2600   -7.1140 C.2     1  UNL1        0.0190
     17  C         18.9530  -24.0470   -8.2200 C.2     1  UNL1        0.0310
     18  C         17.2180  -23.5190   -4.8700 C.2     1  UNL1        0.2490
     19  N         16.1950  -22.6290   -4.6940 N.am    1  UNL1       -0.3660
     20  H         15.7040  -22.6970   -3.8110 H       1  UNL1        0.1590
     21  H         16.1660  -21.7410   -5.1710 H       1  UNL1        0.1590
     22  O         17.4250  -24.4050   -4.0510 O.2     1  UNL1       -0.2680
     23  O         23.0340  -20.9570  -14.5390 O.2     1  UNL1       -0.3080
     24  C         24.3250  -20.8380  -15.0090 C.2     1  UNL1        0.1090
     25  C         25.1060  -19.8300  -14.4360 C.2     1  UNL1        0.0400
     26  C         26.4120  -19.6310  -14.8760 C.2     1  UNL1        0.0030
     27  C         26.9260  -20.4280  -15.8970 C.2     1  UNL1        0.0030
     28  C         26.1340  -21.4200  -16.4900 C.2     1  UNL1        0.0390
     29  C         24.8200  -21.6290  -16.0600 C.2     1  UNL1        0.1020
     30  O         23.9590  -22.5500  -16.5940 O.2     1  UNL1       -0.3530
     31  C         24.3710  -23.2250  -17.7760 C.3     1  UNL1        0.2100
@<TRIPOS>BOND
     1    31    30    1
     2    30    29    1
     3    28    29    1
     4    28    27    2
     5    29    24    2
     6    27    26    1
     7    24    23    1
     8    24    25    1
     9    26    25    2
    10    23     1    1
    11     1     2    2
    12     1     6    1
    13     2     3    1
    14     6     5    2
    15     3     4    2
    16     5     4    1
    17     5     7    1
    18     4    10    1
    19     8     7    2
    20     7     9   am
    21    10     9   am
    22    10    11    2
    23     9    12    1
    24    12    17    2
    25    12    13    1
    26    17    16    1
    27    13    14    2
    28    16    15    2
    29    14    15    1
    30    15    18    1
    31    21    19    1
    32    18    19   am
    33    18    22    2
    34    19    20    1
