@<TRIPOS>MOLECULE
3612_out_ligand_01.pdbqt
 36 39 0 0 0
SMALL
GASTEIGER

@<TRIPOS>ATOM
      1  C         15.7160  -23.5390   -6.0960 C.2     1  UNL1        0.0920
      2  C         15.7650  -24.7320   -6.7860 C.2     1  UNL1        0.1130
      3  N         15.8900  -24.4360   -8.1160 N.pl3   1  UNL1       -0.3600
      4  C         15.9330  -23.0690   -8.3070 C.2     1  UNL1        0.1020
      5  C         15.8100  -22.4910   -7.0500 C.2     1  UNL1        0.0610
      6  H         15.9510  -25.1090   -8.8730 H       1  UNL1        0.1650
      7  C         16.0940  -22.5040   -9.6280 C.2     1  UNL1        0.2680
      8  O         15.1320  -22.2320  -10.3400 O.2     1  UNL1       -0.2660
      9  N         17.3910  -22.3390  -10.0470 N.am    1  UNL1       -0.3550
     10  H         18.1520  -22.6550   -9.4640 H       1  UNL1        0.1620
     11  C         17.7190  -21.9090  -11.3980 C.3     1  UNL1        0.1300
     12  C         18.6670  -20.7070  -11.4370 C.3     1  UNL1        0.0980
     13  C         20.0630  -21.1250  -11.7530 C.ar    1  UNL1        0.1060
     14  N         20.8070  -21.9700  -11.0690 N.ar    1  UNL1       -0.2330
     15  C         21.9850  -22.0780  -11.7670 C.ar    1  UNL1        0.0870
     16  C         23.1180  -22.8540  -11.4930 C.2     1  UNL1        0.0570
     17  C         21.9610  -21.2750  -12.9040 C.ar    1  UNL1        0.0620
     18  C         24.1880  -22.7910  -12.3890 C.2     1  UNL1        0.0360
     19 CL         25.5950  -23.7400  -12.0870 Cl      1  UNL1       -0.0840
     20  C         24.1430  -21.9770  -13.5250 C.2     1  UNL1        0.0260
     21  C         23.0180  -21.1960  -13.8110 C.2     1  UNL1        0.0340
     22  N         20.7300  -20.6710  -12.8650 N.ar    1  UNL1       -0.3430
     23  H         20.3600  -20.0330  -13.5560 H       1  UNL1        0.1670
     24  S         15.5500  -23.3370   -4.3870 S.O2    1  UNL1        0.2470
     25  O         14.7660  -22.1320   -4.2210 O.2     1  UNL1       -0.2050
     26  O         15.0680  -24.6170   -3.9160 O.2     1  UNL1       -0.2050
     27  N         17.0850  -23.1050   -3.6980 N.pl3   1  UNL1       -0.1810
     28  H         16.9410  -22.7550   -2.7500 H       1  UNL1        0.1460
     29  C         17.9910  -22.3000   -4.4550 C.2     1  UNL1        0.0230
     30  C         18.3310  -21.0360   -3.9750 C.2     1  UNL1        0.0240
     31  C         19.2460  -20.2530   -4.6760 C.2     1  UNL1        0.0020
     32  C         19.8290  -20.7380   -5.8460 C.2     1  UNL1        0.0070
     33  C         19.5080  -22.0150   -6.3250 C.2     1  UNL1       -0.0570
     34  C         18.5770  -22.7930   -5.6210 C.2     1  UNL1        0.0310
     35  C         20.1400  -22.5400   -7.5890 C.3     1  UNL1        0.0340
     36  C         19.5840  -23.9000   -7.9760 C.3     1  UNL1        0.0100
@<TRIPOS>BOND
     1    21    20    2
     2    21    17    1
     3    23    22    1
     4    20    18    1
     5    17    22   ar
     6    17    15   ar
     7    22    13   ar
     8    18    19    1
     9    18    16    2
    10    15    16    1
    11    15    14   ar
    12    13    12    1
    13    13    14   ar
    14    12    11    1
    15    11     9    1
    16     8     7    2
    17     9     7   am
    18     9    10    1
    19     7     4    1
    20     6     3    1
    21     4     3    1
    22     4     5    2
    23     3     2    1
    24    36    35    1
    25    35    33    1
    26     5     1    1
    27     2     1    2
    28    33    32    2
    29    33    34    1
    30     1    24    1
    31    32    31    1
    32    34    29    2
    33    31    30    2
    34    29    30    1
    35    29    27    1
    36    24    25    2
    37    24    26    2
    38    24    27    1
    39    27    28    1
