@<TRIPOS>MOLECULE
36142_out_ligand_01.pdbqt
 27 30 0 0 0
SMALL
GASTEIGER

@<TRIPOS>ATOM
      1  C         18.0060  -22.1120  -10.5460 C.2     1  UNL1       -0.0400
      2  C         18.2890  -21.1680  -11.5420 C.2     1  UNL1        0.0100
      3  C         19.5810  -21.0510  -12.0660 C.2     1  UNL1        0.0160
      4  C         20.6190  -21.8710  -11.6030 C.2     1  UNL1        0.0170
      5  C         20.3310  -22.8110  -10.6010 C.2     1  UNL1        0.0160
      6  C         19.0400  -22.9290  -10.0750 C.2     1  UNL1        0.0100
      7  C         16.6200  -22.2020   -9.9600 C.3     1  UNL1        0.1610
      8  N         16.6710  -22.0880   -8.5200 N.am    1  UNL1       -0.3530
      9  C         16.3010  -23.1270   -7.6990 C.2     1  UNL1        0.2530
     10  O         16.0720  -24.2640   -8.0940 O.2     1  UNL1       -0.2680
     11  H         16.7290  -21.1560   -8.1320 H       1  UNL1        0.1630
     12  C         16.2520  -22.8310   -6.2450 C.2     1  UNL1        0.0490
     13  C         15.0100  -23.0240   -5.6190 C.2     1  UNL1        0.0180
     14  C         14.8580  -22.7880   -4.2520 C.2     1  UNL1        0.0010
     15  C         15.9440  -22.3470   -3.5010 C.2     1  UNL1        0.0010
     16  C         17.1780  -22.1320   -4.1170 C.2     1  UNL1        0.0200
     17  C         17.3370  -22.3670   -5.4900 C.2     1  UNL1        0.0260
     18 BR         19.0390  -21.9630   -6.2300 Br      1  UNL1       -0.0500
     19  C         21.9790  -21.7720  -12.1280 C.ar    1  UNL1        0.1800
     20  N         23.1200  -22.1050  -11.5470 N.ar    1  UNL1       -0.2200
     21  C         24.0700  -21.7980  -12.4910 C.ar    1  UNL1        0.1110
     22  C         25.4580  -21.9130  -12.4960 C.2     1  UNL1        0.1500
     23  C         23.4600  -21.2840  -13.6210 C.ar    1  UNL1        0.1090
     24  N         26.1650  -21.5220  -13.5940 N.2     1  UNL1       -0.2710
     25  C         25.5000  -21.0260  -14.6700 C.2     1  UNL1        0.1190
     26  C         24.1260  -20.8740  -14.7620 C.2     1  UNL1        0.0590
     27  O         22.1150  -21.2640  -13.3970 O.2     1  UNL1       -0.2890
@<TRIPOS>BOND
     1    26    25    2
     2    26    23    1
     3    25    24    1
     4    23    27   ar
     5    23    21   ar
     6    24    22    2
     7    27    19   ar
     8    22    21    1
     9    21    20   ar
    10    19     4    1
    11    19    20   ar
    12     3     4    2
    13     3     2    1
    14     4     5    1
    15     2     1    2
    16     5     6    2
    17     1     6    1
    18     1     7    1
    19     7     8    1
    20     8    11    1
    21     8     9   am
    22    10     9    2
    23     9    12    1
    24    12    13    2
    25    12    17    1
    26    18    17    1
    27    13    14    1
    28    17    16    2
    29    14    15    2
    30    16    15    1
