@<TRIPOS>MOLECULE
36149_out_ligand_01.pdbqt
 31 35 0 0 0
SMALL
GASTEIGER

@<TRIPOS>ATOM
      1  C         23.3600  -23.6510   -9.1750 C.3     1  UNL1        0.1610
      2  N         22.1080  -23.1410   -8.6710 N.am    1  UNL1       -0.3560
      3  C         20.9430  -23.8790   -8.6930 C.2     1  UNL1        0.2310
      4  O         20.9080  -25.0490   -9.0680 O.2     1  UNL1       -0.2720
      5  H         22.0770  -22.1820   -8.3520 H       1  UNL1        0.1620
      6  C         19.6930  -23.1070   -8.2130 C.3     1  UNL1        0.0680
      7  C         18.8230  -24.0780   -7.3770 C.3     1  UNL1        0.0240
      8  C         18.0680  -23.2200   -6.3600 C.3     1  UNL1        0.0020
      9  C         18.7710  -21.8670   -6.3350 C.3     1  UNL1        0.0020
     10  C         20.0570  -22.0650   -7.1290 C.3     1  UNL1        0.0240
     11  C         19.0010  -22.4190   -9.4030 C.2     1  UNL1       -0.0400
     12  C         19.7930  -21.7490  -10.3580 C.2     1  UNL1        0.0080
     13  C         19.2190  -21.1160  -11.4630 C.2     1  UNL1        0.0010
     14  C         17.8400  -21.1370  -11.6360 C.2     1  UNL1        0.0000
     15  C         17.0380  -21.7870  -10.7040 C.2     1  UNL1        0.0010
     16  C         17.6110  -22.4230   -9.5970 C.2     1  UNL1        0.0080
     17  C         23.7870  -22.8760  -10.3940 C.2     1  UNL1       -0.0400
     18  C         25.0180  -22.2080  -10.4080 C.2     1  UNL1        0.0100
     19  C         25.4330  -21.5080  -11.5440 C.2     1  UNL1        0.0160
     20  C         24.6310  -21.4600  -12.6930 C.2     1  UNL1        0.0170
     21  C         23.4020  -22.1360  -12.6770 C.2     1  UNL1        0.0160
     22  C         22.9850  -22.8400  -11.5410 C.2     1  UNL1        0.0100
     23  C         25.0930  -20.7190  -13.8660 C.ar    1  UNL1        0.1800
     24  N         24.9820  -21.0350  -15.1440 N.ar    1  UNL1       -0.2200
     25  C         25.5870  -19.9870  -15.7960 C.ar    1  UNL1        0.1110
     26  C         25.8000  -19.7180  -17.1460 C.2     1  UNL1        0.1500
     27  C         26.0460  -19.0640  -14.8730 C.ar    1  UNL1        0.1090
     28  N         26.4430  -18.5750  -17.5140 N.2     1  UNL1       -0.2710
     29  C         26.8690  -17.7130  -16.5550 C.2     1  UNL1        0.1190
     30  C         26.7050  -17.8900  -15.1900 C.2     1  UNL1        0.0590
     31  O         25.7340  -19.5260  -13.6280 O.2     1  UNL1       -0.2890
@<TRIPOS>BOND
     1    28    26    1
     2    28    29    2
     3    26    25    2
     4    29    30    1
     5    25    24   ar
     6    25    27   ar
     7    30    27    2
     8    24    23   ar
     9    27    31   ar
    10    23    31   ar
    11    23    20    1
    12    20    21    2
    13    20    19    1
    14    21    22    1
    15    14    13    2
    16    14    15    1
    17    19    18    2
    18    22    17    2
    19    13    12    1
    20    15    16    2
    21    18    17    1
    22    17     1    1
    23    12    11    2
    24    16    11    1
    25    11     6    1
    26     1     2    1
    27     4     3    2
    28     3     2   am
    29     3     6    1
    30     2     5    1
    31     6     7    1
    32     6    10    1
    33     7     8    1
    34    10     9    1
    35     8     9    1
