@<TRIPOS>MOLECULE
36163_out_ligand_01.pdbqt
 32 35 0 0 0
SMALL
GASTEIGER

@<TRIPOS>ATOM
      1  C         19.0210  -22.3750  -10.6280 C.3     1  UNL1        0.2130
      2  C         17.5900  -21.8880  -10.8640 C.3     1  UNL1        0.1400
      3  C         16.6080  -22.3330   -9.8040 C.2     1  UNL1        0.2250
      4  O         15.4210  -22.5230  -10.0580 O.2     1  UNL1       -0.2730
      5  N         17.0680  -22.4210   -8.5170 N.am    1  UNL1       -0.3110
      6  C         18.4070  -22.3510   -8.2210 C.2     1  UNL1        0.1400
      7  C         19.0950  -22.3970   -7.0280 C.2     1  UNL1        0.0390
      8  C         20.4550  -22.4410   -7.4210 C.2     1  UNL1        0.1550
      9  N         20.6160  -22.4150   -8.7500 N.2     1  UNL1       -0.1810
     10  N         19.3520  -22.2840   -9.2090 N.pl3   1  UNL1       -0.2390
     11  H         16.3920  -22.6320   -7.7900 H       1  UNL1        0.1700
     12  C         19.9860  -21.6070  -11.5410 C.2     1  UNL1        0.2470
     13  N         21.2630  -22.1340  -11.6080 N.am    1  UNL1       -0.3250
     14  H         21.4900  -22.8160  -10.8790 H       1  UNL1        0.1690
     15  O         19.5880  -20.6550  -12.2130 O.2     1  UNL1       -0.2710
     16  C         22.3370  -21.7240  -12.4220 C.2     1  UNL1        0.0340
     17  C         23.6280  -21.9910  -11.9510 C.2     1  UNL1        0.0300
     18  C         24.7520  -21.6250  -12.6990 C.2     1  UNL1        0.0190
     19  C         24.5990  -20.9760  -13.9270 C.2     1  UNL1        0.0320
     20  C         23.3110  -20.7200  -14.4090 C.2     1  UNL1        0.0190
     21  C         22.1870  -21.0930  -13.6580 C.2     1  UNL1        0.0300
     22  C         25.8220  -20.6030  -14.6870 C.2     1  UNL1        0.2490
     23  N         25.6610  -19.8370  -15.8080 N.am    1  UNL1       -0.3660
     24  H         26.5150  -19.4890  -16.2280 H       1  UNL1        0.1590
     25  H         24.8120  -19.3240  -15.9930 H       1  UNL1        0.1590
     26  O         26.9390  -20.9370  -14.3130 O.2     1  UNL1       -0.2680
     27  C         18.5040  -22.4620   -5.7070 C.2     1  UNL1       -0.0210
     28  C         18.6420  -21.3860   -4.8220 C.2     1  UNL1        0.0120
     29  C         18.0700  -21.4400   -3.5490 C.2     1  UNL1        0.0010
     30  C         17.3490  -22.5660   -3.1530 C.2     1  UNL1        0.0000
     31  C         17.1980  -23.6380   -4.0310 C.2     1  UNL1        0.0010
     32  C         17.7710  -23.5870   -5.3040 C.2     1  UNL1        0.0120
@<TRIPOS>BOND
     1    24    23    1
     2    25    23    1
     3    23    22   am
     4    22    26    2
     5    22    19    1
     6    20    19    2
     7    20    21    1
     8    19    18    1
     9    21    16    2
    10    18    17    2
    11    16    17    1
    12    16    13    1
    13    15    12    2
    14    13    12   am
    15    13    14    1
    16    12     1    1
    17     2     1    1
    18     2     3    1
    19     1    10    1
    20     4     3    2
    21     3     5   am
    22    10     9    1
    23    10     6    1
    24     9     8    2
    25     5     6    1
    26     5    11    1
    27     6     7    2
    28     8     7    1
    29     7    27    1
    30    27    32    2
    31    27    28    1
    32    32    31    1
    33    28    29    2
    34    31    30    2
    35    29    30    1
