@<TRIPOS>MOLECULE
3616_out_ligand_01.pdbqt
 30 33 0 0 0
SMALL
GASTEIGER

@<TRIPOS>ATOM
      1  C         19.6740  -23.3260   -8.6250 C.2     1  UNL1        0.0320
      2  C         19.5790  -22.3570   -9.6290 C.2     1  UNL1        0.0190
      3  C         20.6470  -22.1540  -10.5140 C.2     1  UNL1        0.0300
      4  C         21.8220  -22.9000  -10.3970 C.2     1  UNL1        0.0350
      5  C         21.9170  -23.8570   -9.3780 C.2     1  UNL1        0.0300
      6  C         20.8530  -24.0660   -8.4940 C.2     1  UNL1        0.0190
      7  N         22.9340  -22.7590  -11.2500 N.am    1  UNL1       -0.3230
      8  C         24.0080  -21.9030  -11.1080 C.2     1  UNL1        0.2580
      9  O         24.2180  -21.1640  -10.1530 O.2     1  UNL1       -0.2670
     10  H         22.9950  -23.4150  -12.0140 H       1  UNL1        0.1690
     11  C         24.9680  -21.9830  -12.2140 C.2     1  UNL1        0.0580
     12  C         26.3290  -22.4040  -12.0960 C.2     1  UNL1        0.0360
     13  C         26.9070  -22.3510  -13.3440 C.2     1  UNL1        0.0920
     14  N         25.9630  -21.8870  -14.2110 N.pl3   1  UNL1       -0.3560
     15  C         24.7820  -21.6320  -13.5510 C.2     1  UNL1        0.0550
     16  C         26.1830  -21.5880  -15.6160 C.3     1  UNL1        0.1580
     17  C         23.6110  -21.0570  -14.2820 C.3     1  UNL1        0.3270
     18  N         24.0100  -20.3710  -15.5150 N.3     1  UNL1        0.0900
     19  C         24.8710  -21.2450  -16.3260 C.3     1  UNL1        0.2900
     20  H         24.5330  -19.5340  -15.2520 H       1  UNL1        0.3160
     21  C         18.5630  -23.5800   -7.6620 C.2     1  UNL1        0.2560
     22  O         18.3180  -24.7410   -7.3570 O.2     1  UNL1       -0.2670
     23  N         17.8900  -22.4480   -7.2370 N.am    1  UNL1       -0.3230
     24  H         18.1300  -21.5740   -7.6860 H       1  UNL1        0.1690
     25  C         16.8310  -22.3810   -6.3070 C.2     1  UNL1        0.0350
     26  C         17.1770  -22.3570   -4.9480 C.2     1  UNL1        0.0290
     27  C         16.1880  -22.2960   -3.9610 C.2     1  UNL1        0.0020
     28  C         14.8450  -22.2630   -4.3250 C.2     1  UNL1        0.0000
     29  C         14.4930  -22.2900   -5.6710 C.2     1  UNL1        0.0020
     30  C         15.4820  -22.3500   -6.6590 C.2     1  UNL1        0.0290
@<TRIPOS>BOND
     1    19    16    1
     2    19    18    1
     3    16    14    1
     4    18    20    1
     5    18    17    1
     6    17    15    1
     7    14    15    1
     8    14    13    1
     9    15    11    2
    10    13    12    2
    11    11    12    1
    12    11     8    1
    13    10     7    1
    14     7     8   am
    15     7     4    1
    16     8     9    2
    17     3     4    2
    18     3     2    1
    19     4     5    1
    20     2     1    2
    21     5     6    2
    22     1     6    1
    23     1    21    1
    24    24    23    1
    25    21    22    2
    26    21    23   am
    27    23    25    1
    28    30    25    2
    29    30    29    1
    30    25    26    1
    31    29    28    2
    32    26    27    2
    33    28    27    1
