@<TRIPOS>MOLECULE
3619_out_ligand_01.pdbqt
 33 36 0 0 0
SMALL
GASTEIGER

@<TRIPOS>ATOM
      1  C         18.5500  -22.7000   -9.8720 C.2     1  UNL1        0.0320
      2  C         19.5900  -23.4990   -9.3880 C.2     1  UNL1        0.0190
      3  C         20.8770  -23.3820   -9.9220 C.2     1  UNL1        0.0300
      4  C         21.1460  -22.4610  -10.9430 C.2     1  UNL1        0.0350
      5  C         20.1090  -21.6510  -11.4090 C.2     1  UNL1        0.0300
      6  C         18.8170  -21.7650  -10.8780 C.2     1  UNL1        0.0190
      7  N         22.4690  -22.4020  -11.4210 N.am    1  UNL1       -0.3220
      8  C         23.5570  -21.7680  -10.8390 C.2     1  UNL1        0.2770
      9  O         23.5180  -21.0860   -9.8190 O.2     1  UNL1       -0.2660
     10  H         22.6310  -22.7990  -12.3360 H       1  UNL1        0.1690
     11  C         24.8140  -21.9740  -11.5940 C.ar    1  UNL1        0.1530
     12  N         25.9320  -22.4250  -10.9870 N.ar    1  UNL1       -0.1690
     13  N         26.8530  -22.5070  -11.9600 N.ar    1  UNL1       -0.2790
     14  C         26.3830  -22.1070  -13.1690 C.ar    1  UNL1        0.0640
     15  H         27.7760  -22.8560  -11.7190 H       1  UNL1        0.1890
     16  C         25.0650  -21.7610  -12.9790 C.ar    1  UNL1        0.0050
     17  C         27.1210  -22.1220  -14.4520 C.3     1  UNL1        0.3280
     18  C         24.2260  -21.3190  -14.1260 C.3     1  UNL1        0.0730
     19  C         24.9470  -21.6460  -15.4620 C.3     1  UNL1        0.2750
     20  N         26.3920  -21.3130  -15.4500 N.3     1  UNL1        0.0890
     21  H         26.4930  -20.3320  -15.1880 H       1  UNL1        0.3160
     22  C         17.1960  -22.8570   -9.2720 C.2     1  UNL1        0.2510
     23  O         16.2600  -22.1780   -9.6790 O.2     1  UNL1       -0.2680
     24  N         17.0840  -23.7660   -8.2420 N.am    1  UNL1       -0.3530
     25  H         17.9280  -24.0690   -7.7740 H       1  UNL1        0.1630
     26  C         15.8500  -23.8660   -7.4930 C.3     1  UNL1        0.1640
     27  C         16.0570  -23.4780   -6.0580 C.2     1  UNL1       -0.0020
     28  C         17.2070  -23.8870   -5.3640 C.2     1  UNL1        0.0120
     29  C         17.3980  -23.5220   -4.0290 C.2     1  UNL1        0.0010
     30  C         16.4430  -22.7450   -3.3720 C.2     1  UNL1        0.0030
     31  C         15.2970  -22.3350   -4.0510 C.2     1  UNL1        0.0430
     32  C         15.1140  -22.7030   -5.3810 C.2     1  UNL1        0.1240
     33  F         14.0040  -22.2940   -6.0140 F       1  UNL1       -0.2050
@<TRIPOS>BOND
     1    19    20    1
     2    19    18    1
     3    20    21    1
     4    20    17    1
     5    17    14    1
     6    18    16    1
     7    14    16   ar
     8    14    13   ar
     9    16    11   ar
    10    10     7    1
    11    13    15    1
    12    13    12   ar
    13    11    12   ar
    14    11     8    1
    15     7     4    1
    16     7     8   am
    17     5     4    2
    18     5     6    1
    19     4     3    1
    20     6     1    2
    21     8     9    2
    22     3     2    2
    23     1     2    1
    24     1    22    1
    25    23    22    2
    26    22    24   am
    27    24    25    1
    28    24    26    1
    29    26    27    1
    30    27    32    2
    31    27    28    1
    32    33    32    1
    33    32    31    1
    34    28    29    2
    35    31    30    2
    36    29    30    1
