@<TRIPOS>MOLECULE
36214_out_ligand_01.pdbqt
 33 36 0 0 0
SMALL
GASTEIGER

@<TRIPOS>ATOM
      1  C         19.1000  -22.3080  -10.5800 C.3     1  UNL1        0.2130
      2  C         17.6840  -21.7920  -10.8430 C.3     1  UNL1        0.1400
      3  C         16.6710  -22.2490   -9.8170 C.2     1  UNL1        0.2250
      4  O         15.4920  -22.4330  -10.1070 O.2     1  UNL1       -0.2730
      5  N         17.0960  -22.3550   -8.5190 N.am    1  UNL1       -0.3110
      6  C         18.4290  -22.3090   -8.1900 C.2     1  UNL1        0.1400
      7  C         19.0870  -22.3820   -6.9810 C.2     1  UNL1        0.0390
      8  C         20.4550  -22.4360   -7.3410 C.2     1  UNL1        0.1550
      9  N         20.6500  -22.3900   -8.6650 N.2     1  UNL1       -0.1810
     10  N         19.3980  -22.2410   -9.1530 N.pl3   1  UNL1       -0.2390
     11  H         16.4000  -22.5710   -7.8130 H       1  UNL1        0.1700
     12  C         20.1020  -21.5450  -11.4560 C.2     1  UNL1        0.2470
     13  N         21.3190  -22.1830  -11.6290 N.am    1  UNL1       -0.3250
     14  H         21.5130  -22.9300  -10.9550 H       1  UNL1        0.1690
     15  O         19.7820  -20.4930  -12.0080 O.2     1  UNL1       -0.2710
     16  C         22.3880  -21.8070  -12.4630 C.2     1  UNL1        0.0340
     17  C         23.6750  -22.1910  -12.0580 C.2     1  UNL1        0.0310
     18  C         24.7950  -21.8640  -12.8270 C.2     1  UNL1        0.0270
     19  C         24.6240  -21.1480  -14.0120 C.2     1  UNL1        0.0740
     20  C         23.3490  -20.7770  -14.4400 C.2     1  UNL1        0.0270
     21  C         22.2340  -21.1060  -13.6620 C.2     1  UNL1        0.0310
     22  S         26.0300  -20.7240  -15.0060 S.O2    1  UNL1        0.2390
     23  O         26.6410  -21.9430  -15.4750 O.2     1  UNL1       -0.2060
     24  O         26.7750  -19.6860  -14.3300 O.2     1  UNL1       -0.2060
     25  N         25.2970  -19.9660  -16.3200 N.3     1  UNL1       -0.2250
     26  H         24.5540  -20.5200  -16.7440 H       1  UNL1        0.1360
     27  H         24.9680  -19.0440  -16.0280 H       1  UNL1        0.1360
     28  C         18.4600  -22.4630   -5.6770 C.2     1  UNL1       -0.0210
     29  C         18.5740  -21.4080   -4.7620 C.2     1  UNL1        0.0120
     30  C         17.9710  -21.4960   -3.5050 C.2     1  UNL1        0.0010
     31  C         17.2560  -22.6380   -3.1530 C.2     1  UNL1        0.0000
     32  C         17.1430  -23.6950   -4.0550 C.2     1  UNL1        0.0010
     33  C         17.7460  -23.6100   -5.3120 C.2     1  UNL1        0.0120
@<TRIPOS>BOND
     1    26    25    1
     2    25    27    1
     3    25    22    1
     4    23    22    2
     5    22    24    2
     6    22    19    1
     7    20    19    2
     8    20    21    1
     9    19    18    1
    10    21    16    2
    11    18    17    2
    12    16    17    1
    13    16    13    1
    14    15    12    2
    15    13    12   am
    16    13    14    1
    17    12     1    1
    18     2     1    1
    19     2     3    1
    20     1    10    1
    21     4     3    2
    22     3     5   am
    23    10     9    1
    24    10     6    1
    25     9     8    2
    26     5     6    1
    27     5    11    1
    28     6     7    2
    29     8     7    1
    30     7    28    1
    31    28    33    2
    32    28    29    1
    33    33    32    1
    34    29    30    2
    35    32    31    2
    36    30    31    1
