@<TRIPOS>MOLECULE
36219_out_ligand_01.pdbqt
 29 32 0 0 0
SMALL
GASTEIGER

@<TRIPOS>ATOM
      1  C         21.9760  -21.9840  -11.9440 C.2     1  UNL1        0.0330
      2  C         20.8370  -21.2590  -12.3820 C.2     1  UNL1        0.0180
      3  C         19.6020  -21.3830  -11.7340 C.2     1  UNL1        0.0190
      4  C         19.5460  -22.2340  -10.6500 C.2     1  UNL1        0.0480
      5  C         20.6560  -22.9340  -10.2120 C.2     1  UNL1        0.0490
      6  C         21.8900  -22.8310  -10.8290 C.2     1  UNL1        0.0350
      7  C         20.2510  -23.7220   -9.0500 C.2     1  UNL1        0.2620
      8  O         20.9990  -24.4610   -8.4410 O.2     1  UNL1       -0.2670
      9  N         18.9260  -23.4580   -8.8460 N.am    1  UNL1       -0.2760
     10  C         18.4310  -22.5750   -9.7660 C.2     1  UNL1        0.2620
     11  O         17.3050  -22.1320   -9.8830 O.2     1  UNL1       -0.2670
     12  C         23.2580  -21.7850  -12.6810 C.2     1  UNL1        0.2560
     13  N         23.1720  -21.0120  -13.8230 N.am    1  UNL1       -0.3200
     14  H         22.2980  -20.5620  -14.0590 H       1  UNL1        0.1690
     15  O         24.2730  -22.2890  -12.2130 O.2     1  UNL1       -0.2670
     16  C         24.2340  -20.7260  -14.6650 C.2     1  UNL1        0.0710
     17  C         24.5290  -21.2600  -15.8940 C.2     1  UNL1        0.1420
     18  N         25.6720  -20.6490  -16.3160 N.pl3   1  UNL1       -0.2830
     19  C         26.3740  -20.8820  -17.5550 C.3     1  UNL1        0.1790
     20  N         26.1490  -19.7420  -15.4420 N.2     1  UNL1       -0.1830
     21  C         25.2690  -19.7910  -14.4380 C.2     1  UNL1        0.1690
     22  C         18.1490  -24.0120   -7.7600 C.3     1  UNL1        0.1740
     23  C         18.2480  -23.1550   -6.5190 C.2     1  UNL1       -0.0400
     24  C         17.5830  -23.5320   -5.3410 C.2     1  UNL1        0.0120
     25  C         17.6540  -22.7270   -4.2040 C.2     1  UNL1        0.0430
     26  C         18.3810  -21.5430   -4.2450 C.2     1  UNL1        0.1160
     27  F         18.4460  -20.7710   -3.1530 F       1  UNL1       -0.2060
     28  C         19.0350  -21.1460   -5.4040 C.2     1  UNL1        0.0430
     29  C         18.9670  -21.9490   -6.5440 C.2     1  UNL1        0.0120
@<TRIPOS>BOND
     1    19    18    1
     2    18    17    1
     3    18    20    1
     4    17    16    2
     5    20    21    2
     6    16    21    1
     7    16    13    1
     8    14    13    1
     9    13    12   am
    10    12    15    2
    11    12     1    1
    12     2     1    2
    13     2     3    1
    14     1     6    1
    15     3     4    2
    16     6     5    2
    17     4     5    1
    18     4    10    1
    19     5     7    1
    20    11    10    2
    21    10     9   am
    22     7     9   am
    23     7     8    2
    24     9    22    1
    25    22    23    1
    26    29    23    2
    27    29    28    1
    28    23    24    1
    29    28    26    2
    30    24    25    2
    31    26    25    1
    32    26    27    1
