@<TRIPOS>MOLECULE
36229_out_ligand_01.pdbqt
 30 33 0 0 0
SMALL
GASTEIGER

@<TRIPOS>ATOM
      1  C         23.2750  -22.3970  -12.2060 C.2     1  UNL1        0.0370
      2  C         24.5250  -22.3550  -12.8400 C.2     1  UNL1        0.0250
      3  C         24.7400  -21.5190  -13.9330 C.2     1  UNL1        0.0020
      4  C         23.7030  -20.7230  -14.4090 C.2     1  UNL1        0.0010
      5  C         22.4560  -20.7610  -13.7840 C.2     1  UNL1        0.0180
      6  C         22.2170  -21.5910  -12.6720 C.2     1  UNL1        0.0410
      7  C         20.8860  -21.5550  -12.0720 C.2     1  UNL1        0.2080
      8  N         20.0900  -22.5470  -11.7350 N.2     1  UNL1       -0.2020
      9  C         18.9730  -21.8870  -11.2770 C.2     1  UNL1        0.1800
     10  N         19.0510  -20.5490  -11.3340 N.4     1  UNL1       -0.1080
     11  O         20.3180  -20.3290  -11.8700 O.2     1  UNL1       -0.1910
     12  C         17.7770  -22.6010  -10.7470 C.3     1  UNL1        0.2580
     13  O         17.0670  -21.7890   -9.8040 O.2     1  UNL1       -0.3440
     14  C         16.5790  -22.4100   -8.6890 C.2     1  UNL1        0.0690
     15  C         16.1820  -23.7350   -8.8880 C.2     1  UNL1        0.0370
     16  C         15.6640  -24.4910   -7.8350 C.2     1  UNL1        0.0030
     17  C         15.5380  -23.9220   -6.5700 C.2     1  UNL1        0.0000
     18  C         15.9300  -22.6000   -6.3630 C.2     1  UNL1        0.0030
     19  C         16.4490  -21.8440   -7.4190 C.2     1  UNL1        0.0370
     20  N         23.1230  -23.3510  -11.1480 N.pl3   1  UNL1       -0.1800
     21  H         23.5510  -24.2700  -11.2780 H       1  UNL1        0.1460
     22  S         23.4270  -22.8080   -9.5690 S.O2    1  UNL1        0.2450
     23  O         24.3900  -23.7290   -9.0050 O.2     1  UNL1       -0.2060
     24  O         23.6780  -21.3840   -9.5980 O.2     1  UNL1       -0.2060
     25  C         21.8790  -23.1040   -8.7530 C.2     1  UNL1        0.0740
     26  C         21.1870  -24.2980   -8.9840 C.2     1  UNL1        0.0250
     27  C         19.9680  -24.5170   -8.3420 C.2     1  UNL1        0.0020
     28  C         19.4450  -23.5460   -7.4860 C.2     1  UNL1        0.0000
     29  C         20.1320  -22.3510   -7.2710 C.2     1  UNL1        0.0020
     30  C         21.3520  -22.1240   -7.9080 C.2     1  UNL1        0.0250
@<TRIPOS>BOND
     1     4     3    2
     2     4     5    1
     3     3     2    1
     4     5     6    2
     5     2     1    2
     6     6     1    1
     7     6     7    1
     8     1    20    1
     9     7    11    1
    10     7     8    2
    11    11    10    1
    12     8     9    2
    13    10     9    1
    14    21    20    1
    15     9    12    1
    16    20    22    1
    17    12    13    1
    18    13    14    1
    19    24    22    2
    20    22    23    2
    21    22    25    1
    22    26    25    2
    23    26    27    1
    24    15    14    2
    25    15    16    1
    26    25    30    1
    27    14    19    1
    28    27    28    2
    29    30    29    2
    30    16    17    2
    31    28    29    1
    32    19    18    2
    33    17    18    1
