@<TRIPOS>MOLECULE
36233_out_ligand_01.pdbqt
 29 32 0 0 0
SMALL
GASTEIGER

@<TRIPOS>ATOM
      1  C         21.4040  -21.8480  -11.7310 C.2     1  UNL1        0.0330
      2  C         20.3380  -21.0340  -12.1910 C.2     1  UNL1        0.0180
      3  C         19.0780  -21.0910  -11.5820 C.2     1  UNL1        0.0190
      4  C         18.9230  -21.9730  -10.5300 C.2     1  UNL1        0.0480
      5  C         19.9560  -22.7800  -10.0890 C.2     1  UNL1        0.0490
      6  C         21.2090  -22.7490  -10.6710 C.2     1  UNL1        0.0350
      7  C         19.4420  -23.5850   -8.9840 C.2     1  UNL1        0.2620
      8  O         20.0990  -24.4140   -8.3840 O.2     1  UNL1       -0.2670
      9  N         18.1390  -23.2140   -8.8020 N.am    1  UNL1       -0.2760
     10  C         17.7500  -22.2670   -9.7080 C.2     1  UNL1        0.2620
     11  O         16.6680  -21.7410   -9.8750 O.2     1  UNL1       -0.2670
     12  C         22.7450  -21.8090  -12.3750 C.2     1  UNL1        0.2560
     13  N         22.7770  -21.2610  -13.6420 N.am    1  UNL1       -0.3200
     14  H         21.9430  -20.8490  -14.0370 H       1  UNL1        0.1690
     15  O         23.7080  -22.2290  -11.7430 O.2     1  UNL1       -0.2670
     16  C         23.9250  -21.1590  -14.4050 C.2     1  UNL1        0.0710
     17  C         24.3070  -22.0900  -15.3420 C.2     1  UNL1        0.1420
     18  N         25.4820  -21.6340  -15.8710 N.pl3   1  UNL1       -0.2830
     19  C         26.2770  -22.2640  -16.8970 C.3     1  UNL1        0.1790
     20  N         25.8940  -20.4710  -15.3390 N.2     1  UNL1       -0.1830
     21  C         24.9430  -20.1800  -14.4450 C.2     1  UNL1        0.1690
     22  C         17.2660  -23.7810   -7.7920 C.3     1  UNL1        0.1760
     23  C         17.3640  -23.0430   -6.4720 C.2     1  UNL1       -0.0180
     24  C         18.5150  -22.2730   -6.2150 C.2     1  UNL1        0.0100
     25  C         18.6540  -21.5560   -5.0250 C.2     1  UNL1        0.0010
     26  C         17.6470  -21.5970   -4.0680 C.2     1  UNL1        0.0020
     27  C         16.5030  -22.3570   -4.3010 C.2     1  UNL1        0.0240
     28  C         16.3590  -23.0770   -5.4930 C.2     1  UNL1        0.0420
     29 CL         14.9150  -24.0070   -5.6770 Cl      1  UNL1       -0.0840
@<TRIPOS>BOND
     1    19    18    1
     2    18    17    1
     3    18    20    1
     4    17    16    2
     5    20    21    2
     6    21    16    1
     7    16    13    1
     8    14    13    1
     9    13    12   am
    10    12    15    2
    11    12     1    1
    12     2     1    2
    13     2     3    1
    14     1     6    1
    15     3     4    2
    16     6     5    2
    17     4     5    1
    18     4    10    1
    19     5     7    1
    20    11    10    2
    21    10     9   am
    22     7     9   am
    23     7     8    2
    24     9    22    1
    25    22    23    1
    26    23    24    2
    27    23    28    1
    28    24    25    1
    29    29    28    1
    30    28    27    2
    31    25    26    2
    32    27    26    1
