@<TRIPOS>MOLECULE
36231_out_ligand_01.pdbqt
 25 27 0 0 0
SMALL
GASTEIGER

@<TRIPOS>ATOM
      1  C         20.2630  -22.5780   -8.0940 C.2     1  UNL1        0.2570
      2  O         21.2820  -22.1180   -7.5940 O.2     1  UNL1       -0.2670
      3  N         20.0140  -22.7840   -9.4380 N.am    1  UNL1       -0.3230
      4  H         19.1550  -23.2720   -9.6650 H       1  UNL1        0.1690
      5  C         20.8410  -22.4460  -10.5270 C.2     1  UNL1        0.0350
      6  C         20.2900  -21.6150  -11.5130 C.2     1  UNL1        0.0300
      7  C         21.0450  -21.2250  -12.6270 C.2     1  UNL1        0.0190
      8  C         22.3670  -21.6590  -12.7610 C.2     1  UNL1        0.0320
      9  C         22.9150  -22.4980  -11.7870 C.2     1  UNL1        0.0190
     10  C         22.1570  -22.8830  -10.6730 C.2     1  UNL1        0.0300
     11  C         23.2110  -21.2770  -13.9240 C.2     1  UNL1        0.2490
     12  N         22.8260  -20.1820  -14.6480 N.am    1  UNL1       -0.3660
     13  H         23.4930  -19.8660  -15.3420 H       1  UNL1        0.1590
     14  H         22.1950  -19.4910  -14.2700 H       1  UNL1        0.1590
     15  O         24.2330  -21.8870  -14.2110 O.2     1  UNL1       -0.2680
     16  C         19.1790  -23.0340   -7.1900 C.2     1  UNL1        0.0440
     17  C         18.8110  -22.3110   -6.0290 C.2     1  UNL1        0.0080
     18  C         19.2920  -21.1380   -5.3730 C.2     1  UNL1        0.0320
     19  C         17.7510  -22.7980   -5.2520 C.2     1  UNL1        0.0450
     20  C         18.5120  -20.9190   -4.2630 C.2     1  UNL1        0.0910
     21  N         17.5850  -21.9240   -4.1960 N.pl3   1  UNL1       -0.3600
     22  C         16.5910  -22.0600   -3.1550 C.3     1  UNL1        0.1550
     23  C         17.0630  -23.9790   -5.5810 C.2     1  UNL1        0.0300
     24  C         17.4670  -24.6900   -6.7130 C.2     1  UNL1        0.0030
     25  C         18.5130  -24.2300   -7.5060 C.2     1  UNL1        0.0180
@<TRIPOS>BOND
     1    13    12    1
     2    12    14    1
     3    12    11   am
     4    15    11    2
     5    11     8    1
     6     8     7    2
     7     8     9    1
     8     7     6    1
     9     9    10    2
    10     6     5    2
    11    10     5    1
    12     5     3    1
    13     4     3    1
    14     3     1   am
    15     1     2    2
    16     1    16    1
    17    25    16    2
    18    25    24    1
    19    16    17    1
    20    24    23    2
    21    17    18    1
    22    17    19    2
    23    23    19    1
    24    18    20    2
    25    19    21    1
    26    20    21    1
    27    21    22    1
