@<TRIPOS>MOLECULE
3624_out_ligand_01.pdbqt
 29 32 0 0 0
SMALL
GASTEIGER

@<TRIPOS>ATOM
      1  C         23.6740  -21.9740  -12.8620 C.2     1  UNL1       -0.0220
      2  C         24.8490  -22.4500  -12.2630 C.2     1  UNL1        0.0090
      3  C         24.8640  -22.7970  -10.9210 C.2     1  UNL1        0.0030
      4  C         23.7060  -22.6720  -10.1540 C.2     1  UNL1        0.0300
      5  C         22.5100  -22.1730  -10.6960 C.2     1  UNL1        0.0440
      6  C         22.5050  -21.8060  -12.0690 C.2     1  UNL1       -0.0230
      7  C         21.2460  -21.2750  -12.7140 C.3     1  UNL1        0.0430
      8  C         20.2780  -20.7190  -11.6910 C.3     1  UNL1        0.0250
      9  C         20.0620  -21.7510  -10.6050 C.3     1  UNL1        0.1330
     10  N         21.3020  -22.0890   -9.9040 N.am    1  UNL1       -0.3120
     11  C         21.2850  -22.3240   -8.5100 C.2     1  UNL1        0.2790
     12  O         22.2550  -22.1390   -7.7740 O.2     1  UNL1       -0.2650
     13  C         20.0370  -22.8130   -7.9070 C.2     1  UNL1        0.1500
     14  C         19.5250  -24.0800   -8.0810 C.2     1  UNL1        0.1810
     15  O         18.3450  -24.1700   -7.4110 O.2     1  UNL1       -0.3010
     16  C         18.1680  -22.9270   -6.8630 C.2     1  UNL1        0.1860
     17  N         19.1480  -22.0860   -7.1300 N.2     1  UNL1       -0.2160
     18  C         16.9710  -22.7230   -6.0650 C.2     1  UNL1        0.0940
     19  C         17.0430  -22.7210   -4.6690 C.2     1  UNL1        0.1340
     20  F         18.2110  -22.9310   -4.0420 F       1  UNL1       -0.2050
     21  C         15.9120  -22.5210   -3.8740 C.2     1  UNL1        0.0430
     22  C         14.6710  -22.3150   -4.4710 C.2     1  UNL1        0.0060
     23  C         14.5740  -22.3090   -5.8600 C.2     1  UNL1        0.0430
     24  C         15.7150  -22.5120   -6.6410 C.2     1  UNL1        0.1340
     25  F         15.5660  -22.4770   -7.9740 F       1  UNL1       -0.2050
     26  C         23.7300  -21.6390  -14.3360 C.3     1  UNL1        0.3050
     27  N         24.1030  -20.2460  -14.5470 N.3     1  UNL1        0.0820
     28  H         23.4210  -19.8040  -15.1580 H       1  UNL1        0.3130
     29  H         24.9990  -20.2040  -15.0250 H       1  UNL1        0.3130
@<TRIPOS>BOND
     1    28    27    1
     2    29    27    1
     3    27    26    1
     4    26     1    1
     5     1     2    2
     6     1     6    1
     7     7     6    1
     8     7     8    1
     9     2     3    1
    10     6     5    2
    11     8     9    1
    12     3     4    2
    13     5     4    1
    14     5    10    1
    15     9    10    1
    16    10    11   am
    17    11    13    1
    18    11    12    2
    19    14    13    2
    20    14    15    1
    21    25    24    1
    22    13    17    1
    23    15    16    1
    24    17    16    2
    25    16    18    1
    26    24    18    2
    27    24    23    1
    28    18    19    1
    29    23    22    2
    30    19    20    1
    31    19    21    2
    32    22    21    1
