@<TRIPOS>MOLECULE
36253_out_ligand_01.pdbqt
 30 33 0 0 0
SMALL
GASTEIGER

@<TRIPOS>ATOM
      1  N         18.4200  -23.0050   -8.6060 N.am    1  UNL1       -0.2760
      2  C         17.9550  -22.2270   -9.6290 C.2     1  UNL1        0.2620
      3  O         16.8440  -21.7720   -9.8240 O.2     1  UNL1       -0.2670
      4  C         19.0850  -22.0130  -10.5310 C.2     1  UNL1        0.0480
      5  C         19.1630  -21.3010  -11.7120 C.2     1  UNL1        0.0190
      6  C         20.3990  -21.2830  -12.3710 C.2     1  UNL1        0.0180
      7  C         21.5180  -21.9660  -11.8320 C.2     1  UNL1        0.0330
      8  C         21.4020  -22.6970  -10.6380 C.2     1  UNL1        0.0350
      9  C         20.1720  -22.6940  -10.0100 C.2     1  UNL1        0.0490
     10  C         19.7360  -23.3390   -8.7740 C.2     1  UNL1        0.2620
     11  O         20.4590  -24.0240   -8.0780 O.2     1  UNL1       -0.2670
     12  C         22.8360  -21.9670  -12.5270 C.2     1  UNL1        0.2560
     13  O         23.7600  -22.5790  -12.0050 O.2     1  UNL1       -0.2670
     14  N         22.8800  -21.2330  -13.6970 N.am    1  UNL1       -0.3200
     15  H         22.0760  -20.6860  -13.9710 H       1  UNL1        0.1690
     16  C         23.9920  -21.1130  -14.5110 C.2     1  UNL1        0.0710
     17  C         24.9570  -20.0810  -14.4860 C.2     1  UNL1        0.1690
     18  N         25.9140  -20.2460  -15.4040 N.2     1  UNL1       -0.1830
     19  N         25.5590  -21.3910  -16.0190 N.pl3   1  UNL1       -0.2830
     20  C         26.3740  -21.9050  -17.0930 C.3     1  UNL1        0.1790
     21  C         24.4160  -21.9420  -15.5210 C.2     1  UNL1        0.1420
     22  C         17.6010  -23.4690   -7.5020 C.3     1  UNL1        0.1770
     23  C         17.8100  -22.7470   -6.1810 C.2     1  UNL1       -0.0060
     24  C         18.7100  -21.6760   -6.0360 C.2     1  UNL1        0.0110
     25  C         18.8800  -21.0480   -4.8020 C.2     1  UNL1        0.0010
     26  C         18.1620  -21.4840   -3.6950 C.2     1  UNL1        0.0030
     27  C         17.2720  -22.5530   -3.8140 C.2     1  UNL1        0.0370
     28  C         17.0930  -23.1890   -5.0480 C.2     1  UNL1        0.0760
     29  O         16.2490  -24.2500   -5.2580 O.2     1  UNL1       -0.3550
     30  C         14.8600  -24.0390   -5.0280 C.3     1  UNL1        0.2100
@<TRIPOS>BOND
     1    20    19    1
     2    19    21    1
     3    19    18    1
     4    21    16    2
     5    18    17    2
     6    16    17    1
     7    16    14    1
     8    15    14    1
     9    14    12   am
    10    12    13    2
    11    12     7    1
    12     6     7    2
    13     6     5    1
    14     7     8    1
    15     5     4    2
    16     8     9    2
    17     4     9    1
    18     4     2    1
    19     9    10    1
    20     3     2    2
    21     2     1   am
    22    10     1   am
    23    10    11    2
    24     1    22    1
    25    22    23    1
    26    23    24    2
    27    23    28    1
    28    24    25    1
    29    29    28    1
    30    29    30    1
    31    28    27    2
    32    25    26    2
    33    27    26    1
