@<TRIPOS>MOLECULE
36255_out_ligand_01.pdbqt
 31 34 0 0 0
SMALL
GASTEIGER

@<TRIPOS>ATOM
      1  C         19.8050  -22.7990   -9.1260 C.2     1  UNL1        0.0630
      2  C         20.6400  -23.7140   -8.5200 C.2     1  UNL1        0.0360
      3  C         21.8150  -23.7640   -9.3110 C.2     1  UNL1        0.0400
      4  C         21.6350  -22.8800  -10.3570 C.2     1  UNL1        0.0860
      5  O         20.4090  -22.2880  -10.2360 O.2     1  UNL1       -0.3140
      6  C         18.4370  -22.2950   -8.8030 C.3     1  UNL1        0.0900
      7  C         17.3640  -23.0490   -9.6060 C.3     1  UNL1        0.1190
      8  C         15.9390  -22.7890   -9.1170 C.2     1  UNL1        0.2240
      9  N         15.7350  -22.6610   -7.7600 N.am    1  UNL1       -0.3110
     10  O         14.9810  -22.7880   -9.8880 O.2     1  UNL1       -0.2730
     11  C         16.8140  -22.5160   -6.9250 C.2     1  UNL1        0.1350
     12  H         14.7770  -22.6160   -7.4370 H       1  UNL1        0.1700
     13  C         18.1070  -22.3610   -7.3550 C.2     1  UNL1        0.0180
     14  N         16.8380  -22.4620   -5.5590 N.pl3   1  UNL1       -0.2490
     15  C         18.8610  -22.2400   -6.1760 C.2     1  UNL1        0.1500
     16  N         18.0970  -22.3010   -5.0790 N.2     1  UNL1       -0.1820
     17  C         15.7200  -22.5770   -4.6300 C.3     1  UNL1        0.1040
     18  C         16.1750  -22.3870   -3.1830 C.3     1  UNL1        0.0340
     19  C         14.9750  -23.8990   -4.8110 C.3     1  UNL1        0.0340
     20  C         22.4400  -22.4690  -11.5050 C.2     1  UNL1       -0.0020
     21  C         21.8970  -21.6370  -12.4980 C.2     1  UNL1        0.0160
     22  C         22.6620  -21.2330  -13.5970 C.2     1  UNL1        0.0260
     23  C         23.9860  -21.6590  -13.7070 C.2     1  UNL1        0.0740
     24  C         24.5450  -22.4970  -12.7430 C.2     1  UNL1        0.0260
     25  C         23.7730  -22.8930  -11.6470 C.2     1  UNL1        0.0160
     26  S         24.9530  -21.1480  -15.1030 S.O2    1  UNL1        0.2390
     27  O         26.2760  -21.7160  -14.9780 O.2     1  UNL1       -0.2060
     28  O         24.1510  -21.2970  -16.2930 O.2     1  UNL1       -0.2060
     29  N         25.1340  -19.5020  -14.8000 N.3     1  UNL1       -0.2250
     30  H         24.3360  -19.0900  -14.3180 H       1  UNL1        0.1360
     31  H         26.0050  -19.3550  -14.2870 H       1  UNL1        0.1360
@<TRIPOS>BOND
     1    28    26    2
     2    26    27    2
     3    26    29    1
     4    26    23    1
     5    29    30    1
     6    29    31    1
     7    23    22    2
     8    23    24    1
     9    22    21    1
    10    24    25    2
    11    21    20    2
    12    25    20    1
    13    20     4    1
    14     4     5    1
    15     4     3    2
    16     5     1    1
    17    10     8    2
    18     7     8    1
    19     7     6    1
    20     3     2    1
    21     1     6    1
    22     1     2    2
    23     8     9   am
    24     6    13    1
    25     9    12    1
    26     9    11    1
    27    13    11    2
    28    13    15    1
    29    11    14    1
    30    15    16    2
    31    14    16    1
    32    14    17    1
    33    19    17    1
    34    17    18    1
