@<TRIPOS>MOLECULE
36254_out_ligand_01.pdbqt
 33 36 0 0 0
SMALL
GASTEIGER

@<TRIPOS>ATOM
      1  N         22.0830  -22.4740   -8.9460 N.am    1  UNL1       -0.2250
      2  N         20.7400  -22.1610   -8.8850 N.2     1  UNL1       -0.1690
      3  C         19.8940  -23.1440   -8.8360 C.2     1  UNL1        0.0880
      4  C         20.2770  -24.5710   -8.7790 C.2     1  UNL1        0.0400
      5  C         21.5800  -24.8470   -8.8190 C.2     1  UNL1        0.0780
      6  C         22.5840  -23.7680   -8.9190 C.2     1  UNL1        0.2640
      7  O         23.7740  -24.0610   -8.9520 O.2     1  UNL1       -0.2670
      8  C         23.0110  -21.3460   -9.0560 C.3     1  UNL1        0.2570
      9  C         23.8730  -21.3970  -10.3220 C.2     1  UNL1        0.2420
     10  N         23.2550  -22.0320  -11.3850 N.am    1  UNL1       -0.3260
     11  H         22.3230  -22.3760  -11.1750 H       1  UNL1        0.1690
     12  O         25.0250  -20.9680  -10.3090 O.2     1  UNL1       -0.2710
     13  C         23.7570  -22.2630  -12.6770 C.2     1  UNL1        0.0340
     14  C         24.6570  -23.2820  -12.9940 C.2     1  UNL1        0.0300
     15  C         25.1090  -23.4540  -14.3090 C.2     1  UNL1        0.0190
     16  C         24.6690  -22.5970  -15.3230 C.2     1  UNL1        0.0320
     17  C         23.7610  -21.5800  -15.0120 C.2     1  UNL1        0.0190
     18  C         23.3130  -21.4130  -13.6970 C.2     1  UNL1        0.0300
     19  C         25.1160  -22.7360  -16.7350 C.2     1  UNL1        0.2490
     20  N         24.3370  -22.1700  -17.7050 N.am    1  UNL1       -0.3660
     21  H         23.3810  -21.8930  -17.5370 H       1  UNL1        0.1590
     22  H         24.5960  -22.3850  -18.6600 H       1  UNL1        0.1590
     23  O         26.1270  -23.3630  -17.0300 O.2     1  UNL1       -0.2680
     24  C         18.4320  -22.8730   -8.8430 C.2     1  UNL1        0.0050
     25  C         17.8230  -22.7050  -10.0970 C.2     1  UNL1        0.0150
     26  C         16.4590  -22.4560  -10.1800 C.2     1  UNL1        0.0020
     27  C         15.6990  -22.3730   -9.0150 C.2     1  UNL1        0.0120
     28  C         16.2890  -22.5280   -7.7490 C.2     1  UNL1       -0.0250
     29  C         15.5000  -22.4360   -6.5900 C.2     1  UNL1        0.0120
     30  C         17.6800  -22.7760   -7.6420 C.2     1  UNL1       -0.0130
     31  C         16.0630  -22.5860   -5.3240 C.2     1  UNL1        0.0010
     32  C         17.4240  -22.8270   -5.1990 C.2     1  UNL1        0.0010
     33  C         18.2210  -22.9220   -6.3420 C.2     1  UNL1        0.0130
@<TRIPOS>BOND
     1    22    20    1
     2    20    21    1
     3    20    19   am
     4    23    19    2
     5    19    16    1
     6    16    17    2
     7    16    15    1
     8    17    18    1
     9    15    14    2
    10    18    13    2
    11    14    13    1
    12    13    10    1
    13    10    11    1
    14    10     9   am
    15     9    12    2
    16     9     8    1
    17    26    25    1
    18    26    27    2
    19    25    24    2
    20     8     1    1
    21    27    28    1
    22     7     6    2
    23     1     6   am
    24     1     2    1
    25     6     5    1
    26     2     3    2
    27    24     3    1
    28    24    30    1
    29     3     4    1
    30     5     4    2
    31    28    30    2
    32    28    29    1
    33    30    33    1
    34    29    31    2
    35    33    32    2
    36    31    32    1
