@<TRIPOS>MOLECULE
36252_out_ligand_01.pdbqt
 28 31 0 0 0
SMALL
GASTEIGER

@<TRIPOS>ATOM
      1  C         21.7040  -22.6380   -9.3030 C.2     1  UNL1        0.0320
      2  C         21.2380  -22.1080   -8.0900 C.2     1  UNL1        0.0200
      3  C         20.2020  -22.7450   -7.3980 C.2     1  UNL1        0.0380
      4  C         19.6140  -23.8860   -7.9410 C.2     1  UNL1        0.0780
      5  C         20.0650  -24.4260   -9.1430 C.2     1  UNL1        0.0380
      6  C         21.1050  -23.7960   -9.8270 C.2     1  UNL1        0.0200
      7  C         22.8120  -22.0120  -10.0810 C.2     1  UNL1        0.2520
      8  O         23.4220  -21.0580   -9.6130 O.2     1  UNL1       -0.2680
      9  N         23.0720  -22.5390  -11.3330 N.am    1  UNL1       -0.3520
     10  H         22.3930  -23.1580  -11.7460 H       1  UNL1        0.1630
     11  C         24.0300  -21.9080  -12.2410 C.3     1  UNL1        0.0840
     12  C         25.2450  -22.8260  -12.4240 C.3     1  UNL1        0.0250
     13  C         25.0160  -23.9990  -13.3780 C.3     1  UNL1        0.0020
     14  C         25.9130  -23.9610  -14.6150 C.3     1  UNL1        0.0000
     15  C         25.9780  -22.6420  -15.3910 C.3     1  UNL1        0.0000
     16  C         24.6400  -21.9690  -15.6900 C.3     1  UNL1        0.0000
     17  C         24.1840  -20.9350  -14.6500 C.3     1  UNL1        0.0020
     18  C         23.3020  -21.4860  -13.5300 C.3     1  UNL1        0.0250
     19  O         18.6030  -24.5910   -7.2630 O.2     1  UNL1       -0.2910
     20  C         17.5460  -23.8930   -6.6930 C.2     1  UNL1        0.1890
     21  C         16.6670  -23.4350   -7.7930 C.2     1  UNL1        0.0640
     22  C         15.5700  -22.7510   -7.4380 C.2     1  UNL1        0.0590
     23  C         15.3270  -22.5130   -6.0670 C.2     1  UNL1        0.1740
     24  N         14.3590  -21.8930   -5.4250 N.2     1  UNL1       -0.1290
     25  N         16.2510  -22.9930   -5.1610 N.pl3   1  UNL1       -0.2030
     26  N         14.6370  -21.9710   -4.0760 N.2     1  UNL1       -0.1410
     27  C         15.7700  -22.6250   -3.9380 C.2     1  UNL1        0.2610
     28  N         17.3880  -23.6970   -5.4250 N.2     1  UNL1       -0.1390
@<TRIPOS>BOND
     1    16    15    1
     2    16    17    1
     3    15    14    1
     4    17    18    1
     5    14    13    1
     6    18    11    1
     7    13    12    1
     8    12    11    1
     9    11     9    1
    10    10     9    1
    11     9     7   am
    12     7     8    2
    13     7     1    1
    14     6     1    2
    15     6     5    1
    16     1     2    1
    17     5     4    2
    18     2     3    2
    19     4     3    1
    20     4    19    1
    21    21    22    2
    22    21    20    1
    23    22    23    1
    24    19    20    1
    25    20    28    2
    26    23    24    2
    27    23    25    1
    28    24    26    1
    29    28    25    1
    30    25    27    1
    31    26    27    2
