@<TRIPOS>MOLECULE
36262_out_ligand_01.pdbqt
 27 30 0 0 0
SMALL
GASTEIGER

@<TRIPOS>ATOM
      1  C         20.4680  -22.3260   -7.4780 C.2     1  UNL1        0.0320
      2  C         20.2430  -23.4880   -8.2330 C.2     1  UNL1        0.0200
      3  C         21.2040  -23.9240   -9.1480 C.2     1  UNL1        0.0380
      4  C         22.3920  -23.2070   -9.2820 C.2     1  UNL1        0.0780
      5  C         22.6320  -22.0510   -8.5420 C.2     1  UNL1        0.0380
      6  C         21.6700  -21.6180   -7.6310 C.2     1  UNL1        0.0200
      7  C         19.4760  -21.8180   -6.4870 C.2     1  UNL1        0.2520
      8  O         19.7720  -20.8820   -5.7540 O.2     1  UNL1       -0.2680
      9  N         18.2420  -22.4360   -6.4780 N.am    1  UNL1       -0.3520
     10  H         18.0480  -23.1860   -7.1250 H       1  UNL1        0.1630
     11  C         17.2120  -22.0910   -5.4990 C.3     1  UNL1        0.0840
     12  C         15.8220  -22.3970   -6.0740 C.3     1  UNL1        0.0250
     13  C         15.3620  -23.8470   -5.9250 C.3     1  UNL1        0.0020
     14  C         14.6470  -24.1060   -4.5990 C.3     1  UNL1        0.0000
     15  C         15.5450  -24.1100   -3.3660 C.3     1  UNL1        0.0000
     16  C         16.3860  -22.8490   -3.1670 C.3     1  UNL1        0.0020
     17  C         17.5450  -22.7530   -4.1540 C.3     1  UNL1        0.0250
     18  O         23.3470  -23.6100  -10.2220 O.2     1  UNL1       -0.2910
     19  C         23.3500  -22.9010  -11.4120 C.2     1  UNL1        0.1890
     20  C         22.0250  -22.2470  -11.5490 C.2     1  UNL1        0.0640
     21  C         21.8310  -21.5120  -12.6530 C.2     1  UNL1        0.0590
     22  C         22.8760  -21.4060  -13.5960 C.2     1  UNL1        0.1740
     23  N         22.9820  -20.7770  -14.7470 N.2     1  UNL1       -0.1290
     24  N         24.0550  -22.0710  -13.3230 N.pl3   1  UNL1       -0.2030
     25  N         24.2440  -21.0240  -15.2450 N.2     1  UNL1       -0.1410
     26  C         24.8710  -21.7940  -14.3820 C.2     1  UNL1        0.2610
     27  N         24.3450  -22.8420  -12.2360 N.2     1  UNL1       -0.1390
@<TRIPOS>BOND
     1    25    23    1
     2    25    26    2
     3    23    22    2
     4    26    24    1
     5    22    24    1
     6    22    21    1
     7    24    27    1
     8    21    20    2
     9    27    19    2
    10    20    19    1
    11    19    18    1
    12    18     4    1
    13     4     3    2
    14     4     5    1
    15     3     2    1
    16     5     6    2
    17     2     1    2
    18     6     1    1
    19     1     7    1
    20    10     9    1
    21     7     9   am
    22     7     8    2
    23     9    11    1
    24    12    13    1
    25    12    11    1
    26    13    14    1
    27    11    17    1
    28    14    15    1
    29    17    16    1
    30    15    16    1
