@<TRIPOS>MOLECULE
36276_out_ligand_01.pdbqt
 28 30 0 0 0
SMALL
GASTEIGER

@<TRIPOS>ATOM
      1  N         20.1360  -23.4370   -9.4370 N.ar    1  UNL1       -0.2900
      2  C         21.4640  -23.5330   -9.8220 C.ar    1  UNL1        0.3320
      3  O         22.2110  -24.3670   -9.2950 O.2     1  UNL1       -0.2460
      4  N         21.9020  -22.6890  -10.8270 N.ar    1  UNL1       -0.2630
      5  C         21.0830  -21.8320  -11.5480 C.ar    1  UNL1        0.2640
      6  O         21.4630  -21.1280  -12.4820 O.2     1  UNL1       -0.2670
      7  C         19.6560  -21.8160  -11.1810 C.ar    1  UNL1        0.0590
      8  C         18.7720  -20.9920  -11.8960 C.2     1  UNL1        0.0190
      9  C         17.4170  -20.9820  -11.5810 C.2     1  UNL1        0.0010
     10  C         16.9480  -21.7990  -10.5580 C.2     1  UNL1        0.0020
     11  C         17.8320  -22.6160   -9.8460 C.2     1  UNL1        0.0310
     12  C         19.2040  -22.6280  -10.1420 C.ar    1  UNL1        0.0550
     13  C         19.7110  -24.2470   -8.2930 C.3     1  UNL1        0.2370
     14  C         19.0580  -23.3910   -7.2050 C.2     1  UNL1        0.2400
     15  O         19.5820  -22.3430   -6.8380 O.2     1  UNL1       -0.2710
     16  N         17.8890  -23.9490   -6.7150 N.am    1  UNL1       -0.3260
     17  H         17.6150  -24.8410   -7.1310 H       1  UNL1        0.1690
     18  C         17.0350  -23.4370   -5.7190 C.2     1  UNL1        0.0360
     19  C         17.2790  -23.5500   -4.3480 C.2     1  UNL1        0.0290
     20  C         16.3780  -23.0160   -3.4200 C.2     1  UNL1        0.0040
     21  C         15.2250  -22.3660   -3.8560 C.2     1  UNL1        0.0240
     22  C         14.9810  -22.2500   -5.2200 C.2     1  UNL1        0.0360
     23 CL         13.5560  -21.4500   -5.7670 Cl      1  UNL1       -0.0840
     24  C         15.8770  -22.7790   -6.1510 C.2     1  UNL1        0.0530
     25  C         23.3260  -22.7200  -11.1640 C.3     1  UNL1        0.1630
     26  C         24.1270  -21.6470  -10.4170 C.3     1  UNL1        0.1840
     27  O         23.5240  -21.3510   -9.1610 O.3     1  UNL1       -0.3990
     28  H         22.6670  -21.8110   -9.1370 H       1  UNL1        0.2090
@<TRIPOS>BOND
     1     6     5    2
     2     8     9    1
     3     8     7    2
     4     9    10    2
     5     5     7   ar
     6     5     4   ar
     7     7    12   ar
     8    25     4    1
     9    25    26    1
    10     4     2   ar
    11    10    11    1
    12    26    27    1
    13    12    11    2
    14    12     1   ar
    15     2     1   ar
    16     2     3    2
    17     1    13    1
    18    27    28    1
    19    13    14    1
    20    14    15    2
    21    14    16   am
    22    17    16    1
    23    16    18    1
    24    24    18    2
    25    24    22    1
    26    23    22    1
    27    18    19    1
    28    22    21    2
    29    19    20    2
    30    21    20    1
