@<TRIPOS>MOLECULE
36278_out_ligand_01.pdbqt
 26 29 0 0 0
SMALL
GASTEIGER

@<TRIPOS>ATOM
      1  C         20.2010  -22.4310   -7.3970 C.2     1  UNL1        0.0320
      2  C         21.4080  -21.7250   -7.5210 C.2     1  UNL1        0.0200
      3  C         22.3630  -22.1210   -8.4590 C.2     1  UNL1        0.0380
      4  C         22.0910  -23.2090   -9.2830 C.2     1  UNL1        0.0780
      5  C         20.9010  -23.9290   -9.1720 C.2     1  UNL1        0.0380
      6  C         19.9470  -23.5290   -8.2340 C.2     1  UNL1        0.0200
      7  C         19.2100  -21.9640   -6.3870 C.2     1  UNL1        0.2520
      8  O         19.4470  -20.9710   -5.7080 O.2     1  UNL1       -0.2680
      9  N         18.0660  -22.7270   -6.2550 N.am    1  UNL1       -0.3520
     10  H         18.0690  -23.6610   -6.6420 H       1  UNL1        0.1630
     11  C         17.0790  -22.4370   -5.2210 C.3     1  UNL1        0.0840
     12  C         17.2050  -23.4500   -4.0680 C.3     1  UNL1        0.0250
     13  C         15.8830  -23.6400   -3.3350 C.3     1  UNL1        0.0020
     14  C         14.7940  -24.1810   -4.2640 C.3     1  UNL1        0.0000
     15  C         14.9610  -23.7420   -5.7200 C.3     1  UNL1        0.0020
     16  C         15.6660  -22.3950   -5.8260 C.3     1  UNL1        0.0250
     17  O         23.0710  -23.6180  -10.1950 O.2     1  UNL1       -0.2910
     18  C         23.1270  -22.8950  -11.3770 C.2     1  UNL1        0.1890
     19  C         21.8200  -22.2190  -11.5560 C.2     1  UNL1        0.0640
     20  C         21.6800  -21.4640  -12.6530 C.2     1  UNL1        0.0590
     21  C         22.7610  -21.3600  -13.5550 C.2     1  UNL1        0.1740
     22  N         22.9230  -20.7100  -14.6860 N.2     1  UNL1       -0.1290
     23  N         23.9160  -22.0550  -13.2500 N.pl3   1  UNL1       -0.2030
     24  N         24.1970  -20.9770  -15.1440 N.2     1  UNL1       -0.1410
     25  C         24.7750  -21.7770  -14.2750 C.2     1  UNL1        0.2610
     26  N         24.1550  -22.8410  -12.1620 N.2     1  UNL1       -0.1390
@<TRIPOS>BOND
     1    24    22    1
     2    24    25    2
     3    22    21    2
     4    25    23    1
     5    21    23    1
     6    21    20    1
     7    23    26    1
     8    20    19    2
     9    26    18    2
    10    19    18    1
    11    18    17    1
    12    17     4    1
    13     4     5    2
    14     4     3    1
    15     5     6    1
    16     3     2    2
    17     6     1    2
    18     2     1    1
    19     1     7    1
    20    10     9    1
    21     7     9   am
    22     7     8    2
    23     9    11    1
    24    16    15    1
    25    16    11    1
    26    15    14    1
    27    11    12    1
    28    14    13    1
    29    12    13    1
