@<TRIPOS>MOLECULE
36274_out_ligand_01.pdbqt
 28 30 0 0 0
SMALL
GASTEIGER

@<TRIPOS>ATOM
      1  N         19.9910  -22.3960  -10.6580 N.am    1  UNL1       -0.3260
      2  C         18.9390  -21.5770  -11.0390 C.2     1  UNL1        0.2420
      3  O         19.0410  -20.4850  -11.5930 O.2     1  UNL1       -0.2710
      4  H         19.7310  -23.2940  -10.2470 H       1  UNL1        0.1690
      5  C         17.5640  -22.2030  -10.7860 C.3     1  UNL1        0.2570
      6  N         17.3820  -22.6040   -9.3930 N.am    1  UNL1       -0.2260
      7  N         18.3640  -22.2180   -8.5140 N.2     1  UNL1       -0.1730
      8  C         18.2250  -22.5210   -7.2610 C.2     1  UNL1        0.0610
      9  C         17.0560  -23.2460   -6.6980 C.2     1  UNL1       -0.0260
     10  C         19.3330  -22.0900   -6.3190 C.3     1  UNL1        0.0610
     11  C         16.1190  -23.6100   -7.5810 C.2     1  UNL1        0.0850
     12  C         16.9650  -23.5390   -5.2310 C.3     1  UNL1        0.0410
     13  C         16.2490  -23.3030   -9.0170 C.2     1  UNL1        0.2640
     14  O         15.3890  -23.6940   -9.8040 O.2     1  UNL1       -0.2670
     15  C         16.8450  -22.2810   -4.3700 C.3     1  UNL1        0.0050
     16  C         18.1730  -21.5700   -4.1090 C.3     1  UNL1        0.0010
     17  C         18.8620  -21.0110   -5.3520 C.3     1  UNL1        0.0060
     18  C         21.3720  -22.1440  -10.7640 C.2     1  UNL1        0.0340
     19  C         22.0800  -22.1470  -11.9660 C.2     1  UNL1        0.0300
     20  C         23.4550  -21.8850  -11.9800 C.2     1  UNL1        0.0190
     21  C         24.1370  -21.6060  -10.7910 C.2     1  UNL1        0.0320
     22  C         23.4350  -21.6140   -9.5820 C.2     1  UNL1        0.0190
     23  C         22.0610  -21.8780   -9.5720 C.2     1  UNL1        0.0300
     24  C         25.5980  -21.3320  -10.8590 C.2     1  UNL1        0.2490
     25  N         26.4470  -22.3790  -10.6280 N.am    1  UNL1       -0.3660
     26  H         27.4250  -22.1340  -10.5460 H       1  UNL1        0.1590
     27  H         26.1420  -23.2180  -10.1580 H       1  UNL1        0.1590
     28  O         26.0350  -20.2090  -11.0760 O.2     1  UNL1       -0.2680
@<TRIPOS>BOND
     1    20    19    1
     2    20    21    2
     3    19    18    2
     4     3     2    2
     5    28    24    2
     6     2     5    1
     7     2     1   am
     8    24    21    1
     9    24    25   am
    10    21    22    1
    11     5     6    1
    12    18     1    1
    13    18    23    1
    14     1     4    1
    15    25    26    1
    16    25    27    1
    17    14    13    2
    18    22    23    2
    19     6    13   am
    20     6     7    1
    21    13    11    1
    22     7     8    2
    23    11     9    2
    24     8     9    1
    25     8    10    1
    26     9    12    1
    27    10    17    1
    28    17    16    1
    29    12    15    1
    30    15    16    1
