@<TRIPOS>MOLECULE
36270_out_ligand_01.pdbqt
 28 31 0 0 0
SMALL
GASTEIGER

@<TRIPOS>ATOM
      1  C         21.1540  -21.7330  -11.9490 C.2     1  UNL1        0.0330
      2  C         19.9520  -21.0220  -12.1900 C.2     1  UNL1        0.0180
      3  C         18.8310  -21.2120  -11.3720 C.2     1  UNL1        0.0190
      4  C         18.9550  -22.1070  -10.3270 C.2     1  UNL1        0.0480
      5  C         20.1310  -22.7930  -10.0810 C.2     1  UNL1        0.0490
      6  C         21.2540  -22.6250  -10.8680 C.2     1  UNL1        0.0350
      7  C         19.9120  -23.6360   -8.9080 C.2     1  UNL1        0.2620
      8  O         20.7480  -24.3850   -8.4390 O.2     1  UNL1       -0.2670
      9  N         18.6250  -23.4110   -8.5050 N.am    1  UNL1       -0.2760
     10  C         17.9860  -22.5100   -9.3090 C.2     1  UNL1        0.2620
     11  O         16.8470  -22.0900   -9.2540 O.2     1  UNL1       -0.2670
     12  C         22.3600  -21.5260  -12.7980 C.2     1  UNL1        0.2560
     13  N         23.5070  -22.1540  -12.3570 N.am    1  UNL1       -0.3200
     14  H         23.5120  -22.6340  -11.4680 H       1  UNL1        0.1690
     15  O         22.2580  -20.8140  -13.7910 O.2     1  UNL1       -0.2670
     16  C         24.7100  -22.1180  -13.0380 C.2     1  UNL1        0.0710
     17  C         25.0390  -22.9780  -14.0600 C.2     1  UNL1        0.1420
     18  N         26.2910  -22.6160  -14.4690 N.pl3   1  UNL1       -0.2830
     19  C         27.0670  -23.2180  -15.5260 C.3     1  UNL1        0.1790
     20  N         26.7970  -21.5710  -13.7910 N.2     1  UNL1       -0.1830
     21  C         25.8340  -21.2730  -12.9110 C.2     1  UNL1        0.1690
     22  C         18.0290  -24.0180   -7.3360 C.3     1  UNL1        0.1740
     23  C         18.1300  -23.1120   -6.1330 C.2     1  UNL1       -0.0400
     24  C         18.8190  -21.8930   -6.2140 C.2     1  UNL1        0.0090
     25  C         18.9340  -21.0690   -5.0940 C.2     1  UNL1        0.0010
     26  C         18.3690  -21.4580   -3.8800 C.2     1  UNL1        0.0000
     27  C         17.6940  -22.6720   -3.7840 C.2     1  UNL1        0.0010
     28  C         17.5780  -23.4990   -4.9030 C.2     1  UNL1        0.0090
@<TRIPOS>BOND
     1    19    18    1
     2    18    17    1
     3    18    20    1
     4    17    16    2
     5    20    21    2
     6    15    12    2
     7    16    21    1
     8    16    13    1
     9    12    13   am
    10    12     1    1
    11    13    14    1
    12     2     1    2
    13     2     3    1
    14     1     6    1
    15     3     4    2
    16     6     5    2
    17     4     5    1
    18     4    10    1
    19     5     7    1
    20    10    11    2
    21    10     9   am
    22     7     9   am
    23     7     8    2
    24     9    22    1
    25    22    23    1
    26    24    23    2
    27    24    25    1
    28    23    28    1
    29    25    26    2
    30    28    27    2
    31    26    27    1
