@<TRIPOS>MOLECULE
36280_out_ligand_01.pdbqt
 26 29 0 0 0
SMALL
GASTEIGER

@<TRIPOS>ATOM
      1  C         20.1410  -22.5340   -7.4650 C.2     1  UNL1        0.0320
      2  C         21.3200  -21.7740   -7.5290 C.2     1  UNL1        0.0200
      3  C         22.3340  -22.1240   -8.4210 C.2     1  UNL1        0.0380
      4  C         22.1480  -23.2210   -9.2600 C.2     1  UNL1        0.0780
      5  C         20.9860  -23.9890   -9.2100 C.2     1  UNL1        0.0380
      6  C         19.9720  -23.6360   -8.3170 C.2     1  UNL1        0.0200
      7  C         19.0860  -22.1200   -6.4970 C.2     1  UNL1        0.2560
      8  O         19.3180  -21.1810   -5.7460 O.2     1  UNL1       -0.2670
      9  N         17.9350  -22.8830   -6.5210 N.am    1  UNL1       -0.3220
     10  H         17.9340  -23.7090   -7.1050 H       1  UNL1        0.1690
     11  C         16.7790  -22.6840   -5.7350 C.2     1  UNL1        0.0520
     12  C         15.5850  -22.3850   -6.3990 C.2     1  UNL1        0.0320
     13  C         14.4160  -22.1720   -5.6710 C.2     1  UNL1        0.0210
     14  C         14.4750  -22.2630   -4.2910 C.2     1  UNL1        0.1160
     15  N         15.6040  -22.5450   -3.6110 N.2     1  UNL1       -0.2710
     16  C         16.7300  -22.7490   -4.3450 C.2     1  UNL1        0.1450
     17  O         23.1820  -23.5890  -10.1280 O.2     1  UNL1       -0.2910
     18  C         23.2160  -22.8990  -11.3290 C.2     1  UNL1        0.1890
     19  C         21.9030  -22.2310  -11.5030 C.2     1  UNL1        0.0640
     20  C         21.7440  -21.5050  -12.6180 C.2     1  UNL1        0.0590
     21  C         22.8100  -21.4220  -13.5390 C.2     1  UNL1        0.1740
     22  N         22.9530  -20.8000  -14.6890 N.2     1  UNL1       -0.1290
     23  N         23.9730  -22.1050  -13.2360 N.pl3   1  UNL1       -0.2030
     24  N         24.2210  -21.0730  -15.1590 N.2     1  UNL1       -0.1410
     25  C         24.8130  -21.8540  -14.2820 C.2     1  UNL1        0.2610
     26  N         24.2300  -22.8630  -12.1310 N.2     1  UNL1       -0.1390
@<TRIPOS>BOND
     1    24    22    1
     2    24    25    2
     3    22    21    2
     4    25    23    1
     5    21    23    1
     6    21    20    1
     7    23    26    1
     8    20    19    2
     9    26    18    2
    10    19    18    1
    11    18    17    1
    12    17     4    1
    13     4     5    2
    14     4     3    1
    15     5     6    1
    16     3     2    2
    17     6     1    2
    18     2     1    1
    19     1     7    1
    20    10     9    1
    21     9     7   am
    22     9    11    1
    23     7     8    2
    24    12    11    2
    25    12    13    1
    26    11    16    1
    27    13    14    2
    28    16    15    2
    29    14    15    1
