@<TRIPOS>MOLECULE
36294_out_ligand_01.pdbqt
 27 30 0 0 0
SMALL
GASTEIGER

@<TRIPOS>ATOM
      1  C         17.6570  -22.3670  -10.1180 C.2     1  UNL1       -0.0400
      2  C         17.8880  -21.4870  -11.1820 C.2     1  UNL1        0.0100
      3  C         19.1680  -21.3500  -11.7290 C.2     1  UNL1        0.0160
      4  C         20.2440  -22.0960  -11.2280 C.2     1  UNL1        0.0170
      5  C         20.0040  -22.9820  -10.1670 C.2     1  UNL1        0.0160
      6  C         18.7260  -23.1200   -9.6190 C.2     1  UNL1        0.0100
      7  C         16.2680  -22.5280   -9.5570 C.3     1  UNL1        0.1610
      8  N         16.2910  -22.4010   -8.1170 N.am    1  UNL1       -0.3530
      9  C         15.9800  -23.4590   -7.2930 C.2     1  UNL1        0.2550
     10  O         15.5760  -24.5460   -7.6810 O.2     1  UNL1       -0.2680
     11  H         16.6710  -21.5490   -7.7300 H       1  UNL1        0.1630
     12  C         16.2130  -23.2230   -5.8600 C.2     1  UNL1        0.0720
     13  C         17.3590  -23.7460   -5.2510 C.2     1  UNL1        0.0220
     14  C         17.5630  -23.5360   -3.8900 C.2     1  UNL1        0.0200
     15  C         16.6140  -22.8090   -3.1880 C.2     1  UNL1        0.1180
     16  N         15.5000  -22.2900   -3.7490 N.2     1  UNL1       -0.2480
     17  C         15.3150  -22.5170   -5.0730 C.2     1  UNL1        0.1410
     18 CL         13.8970  -21.7590   -5.6820 Cl      1  UNL1       -0.0610
     19  C         21.5930  -21.9780  -11.7780 C.ar    1  UNL1        0.1800
     20  N         22.7370  -22.4000  -11.2660 N.ar    1  UNL1       -0.2200
     21  C         23.6720  -22.0220  -12.2010 C.ar    1  UNL1        0.1110
     22  C         25.0570  -22.1710  -12.2550 C.2     1  UNL1        0.1500
     23  C         23.0490  -21.3810  -13.2560 C.ar    1  UNL1        0.1090
     24  N         25.7450  -21.6890  -13.3290 N.2     1  UNL1       -0.2710
     25  C         25.0690  -21.0690  -14.3290 C.2     1  UNL1        0.1190
     26  C         23.6980  -20.8720  -14.3670 C.2     1  UNL1        0.0590
     27  O         21.7110  -21.3500  -12.9940 O.2     1  UNL1       -0.2890
@<TRIPOS>BOND
     1    26    25    2
     2    26    23    1
     3    25    24    1
     4    24    22    2
     5    23    27   ar
     6    23    21   ar
     7    27    19   ar
     8    22    21    1
     9    21    20   ar
    10    19    20   ar
    11    19     4    1
    12     3     4    2
    13     3     2    1
    14     4     5    1
    15     2     1    2
    16     5     6    2
    17     1     6    1
    18     1     7    1
    19     7     8    1
    20     8    11    1
    21     8     9   am
    22    10     9    2
    23     9    12    1
    24    12    13    2
    25    12    17    1
    26    18    17    1
    27    13    14    1
    28    17    16    2
    29    14    15    2
    30    16    15    1
