@<TRIPOS>MOLECULE
3629_out_ligand_01.pdbqt
 27 30 0 0 0
SMALL
GASTEIGER

@<TRIPOS>ATOM
      1  O         19.2620  -21.8570  -10.7580 O.2     1  UNL1       -0.2670
      2  C         20.3540  -22.1680  -10.2980 C.2     1  UNL1        0.2560
      3  N         20.6260  -22.6070   -9.0150 N.am    1  UNL1       -0.3230
      4  H         21.5990  -22.7210   -8.7610 H       1  UNL1        0.1690
      5  C         19.7020  -22.8510   -7.9770 C.2     1  UNL1        0.0350
      6  C         18.9310  -24.0080   -8.0680 C.2     1  UNL1        0.0300
      7  C         17.9840  -24.3070   -7.0870 C.2     1  UNL1        0.0100
      8  C         17.7740  -23.4560   -5.9880 C.2     1  UNL1       -0.0500
      9  C         18.5760  -22.3030   -5.8620 C.2     1  UNL1       -0.0220
     10  C         16.7230  -23.8740   -4.9800 C.3     1  UNL1        0.0410
     11  C         19.5140  -22.0100   -6.8810 C.2     1  UNL1        0.0390
     12  C         18.4670  -21.3040   -4.7250 C.3     1  UNL1        0.3080
     13  N         18.2050  -21.9080   -3.4220 N.3     1  UNL1        0.0870
     14  C         16.7830  -22.0970   -3.1580 C.3     1  UNL1        0.2700
     15  H         18.5970  -21.3130   -2.6940 H       1  UNL1        0.3160
     16  C         15.9870  -22.7200   -4.3040 C.3     1  UNL1        0.0340
     17  C         21.5450  -22.0330  -11.1850 C.2     1  UNL1        0.0360
     18  C         22.7790  -22.4980  -10.7060 C.2     1  UNL1        0.0380
     19  C         23.9340  -22.3990  -11.4850 C.2     1  UNL1        0.0410
     20 BR         25.5900  -23.0340  -10.8460 Br      1  UNL1       -0.0490
     21  C         23.8100  -21.8160  -12.7460 C.2     1  UNL1        0.0790
     22  N         24.7070  -21.5590  -13.7520 N.pl3   1  UNL1       -0.3480
     23  C         22.6010  -21.3340  -13.2360 C.2     1  UNL1        0.0870
     24  C         24.0330  -20.9550  -14.7740 C.2     1  UNL1        0.2080
     25  H         25.6950  -21.7770  -13.7320 H       1  UNL1        0.1670
     26  N         22.7580  -20.8070  -14.4920 N.2     1  UNL1       -0.2420
     27  C         21.4450  -21.4300  -12.4490 C.2     1  UNL1        0.0510
@<TRIPOS>BOND
     1    24    26    2
     2    24    22    1
     3    26    23    1
     4    22    25    1
     5    22    21    1
     6    23    21    2
     7    23    27    1
     8    21    19    1
     9    27    17    2
    10    19    20    1
    11    19    18    2
    12    17    18    1
    13    17     2    1
    14     1     2    2
    15     2     3   am
    16     3     4    1
    17     3     5    1
    18     6     5    2
    19     6     7    1
    20     5    11    1
    21     7     8    2
    22    11     9    2
    23     8     9    1
    24     8    10    1
    25     9    12    1
    26    10    16    1
    27    12    13    1
    28    16    14    1
    29    13    14    1
    30    13    15    1
