@<TRIPOS>MOLECULE
36308_out_ligand_01.pdbqt
 28 31 0 0 0
SMALL
GASTEIGER

@<TRIPOS>ATOM
      1  C         20.2600  -21.9990  -11.1920 C.2     1  UNL1        0.0330
      2  C         19.1260  -21.3760  -11.7740 C.2     1  UNL1        0.0180
      3  C         17.8390  -21.5850  -11.2620 C.2     1  UNL1        0.0190
      4  C         17.7240  -22.4290  -10.1780 C.2     1  UNL1        0.0480
      5  C         18.8250  -23.0480   -9.6150 C.2     1  UNL1        0.0490
      6  C         20.1090  -22.8640  -10.0980 C.2     1  UNL1        0.0350
      7  C         18.3510  -23.8670   -8.5030 C.2     1  UNL1        0.2620
      8  O         19.0850  -24.5230   -7.7890 O.2     1  UNL1       -0.2670
      9  N         16.9960  -23.7080   -8.4550 N.am    1  UNL1       -0.2760
     10  C         16.5450  -22.8550   -9.4240 C.2     1  UNL1        0.2620
     11  O         15.4130  -22.4780   -9.6580 O.2     1  UNL1       -0.2670
     12  C         21.5950  -21.7340  -11.8040 C.2     1  UNL1        0.2560
     13  O         21.6400  -21.0350  -12.8080 O.2     1  UNL1       -0.2670
     14  N         22.6750  -22.2900  -11.1430 N.am    1  UNL1       -0.3220
     15  H         22.5060  -22.7510  -10.2600 H       1  UNL1        0.1690
     16  C         24.0290  -22.2120  -11.5410 C.2     1  UNL1        0.0520
     17  C         24.8710  -21.3720  -10.8060 C.2     1  UNL1        0.0320
     18  C         26.2180  -21.2600  -11.1500 C.2     1  UNL1        0.0210
     19  C         26.6850  -21.9970  -12.2240 C.2     1  UNL1        0.1160
     20  N         25.9080  -22.8200  -12.9560 N.2     1  UNL1       -0.2710
     21  C         24.5990  -22.9110  -12.6010 C.2     1  UNL1        0.1450
     22  C         16.1330  -24.3930   -7.5180 C.3     1  UNL1        0.1740
     23  C         16.0590  -23.6580   -6.2010 C.2     1  UNL1       -0.0400
     24  C         14.9540  -22.8470   -5.9000 C.2     1  UNL1        0.0090
     25  C         14.8730  -22.1880   -4.6720 C.2     1  UNL1        0.0010
     26  C         15.8910  -22.3390   -3.7320 C.2     1  UNL1        0.0000
     27  C         16.9870  -23.1530   -4.0150 C.2     1  UNL1        0.0010
     28  C         17.0700  -23.8120   -5.2410 C.2     1  UNL1        0.0090
@<TRIPOS>BOND
     1    20    21    1
     2    20    19    2
     3    13    12    2
     4    21    16    2
     5    19    18    1
     6    12     1    1
     7    12    14   am
     8     2     3    1
     9     2     1    2
    10    16    14    1
    11    16    17    1
    12     3     4    2
    13     1     6    1
    14    18    17    2
    15    14    15    1
    16     4     5    1
    17     4    10    1
    18     6     5    2
    19    11    10    2
    20     5     7    1
    21    10     9   am
    22     7     9   am
    23     7     8    2
    24     9    22    1
    25    22    23    1
    26    23    24    2
    27    23    28    1
    28    24    25    1
    29    28    27    2
    30    25    26    2
    31    27    26    1
