@<TRIPOS>MOLECULE
36325_out_ligand_01.pdbqt
 30 34 0 0 0
SMALL
GASTEIGER

@<TRIPOS>ATOM
      1  C         18.0180  -22.0230  -10.5360 C.2     1  UNL1       -0.0400
      2  C         18.3180  -21.0820  -11.5290 C.2     1  UNL1        0.0100
      3  C         19.6120  -20.9820  -12.0500 C.2     1  UNL1        0.0160
      4  C         20.6380  -21.8170  -11.5830 C.2     1  UNL1        0.0170
      5  C         20.3340  -22.7510  -10.5820 C.2     1  UNL1        0.0160
      6  C         19.0410  -22.8520  -10.0600 C.2     1  UNL1        0.0100
      7  C         16.6260  -22.1040   -9.9640 C.3     1  UNL1        0.1610
      8  N         16.6700  -22.2280   -8.5250 N.am    1  UNL1       -0.3530
      9  C         16.1860  -23.3440   -7.8810 C.2     1  UNL1        0.2520
     10  O         15.7750  -24.3490   -8.4450 O.2     1  UNL1       -0.2680
     11  H         16.8070  -21.3830   -7.9850 H       1  UNL1        0.1630
     12  C         16.1060  -23.2300   -6.4040 C.2     1  UNL1        0.0430
     13  C         15.0290  -23.8940   -5.7990 C.2     1  UNL1        0.0180
     14  C         14.8370  -23.7960   -4.4270 C.2     1  UNL1        0.0020
     15  C         15.7200  -23.0410   -3.6570 C.2     1  UNL1        0.0120
     16  C         16.8190  -22.3880   -4.2410 C.2     1  UNL1       -0.0250
     17  C         17.7060  -21.6480   -3.4420 C.2     1  UNL1        0.0120
     18  C         17.0400  -22.4830   -5.6380 C.2     1  UNL1       -0.0100
     19  C         18.8160  -21.0140   -3.9960 C.2     1  UNL1        0.0010
     20  C         19.0620  -21.1180   -5.3580 C.2     1  UNL1        0.0010
     21  C         18.1890  -21.8460   -6.1680 C.2     1  UNL1        0.0130
     22  C         22.0000  -21.7370  -12.1060 C.ar    1  UNL1        0.1800
     23  N         23.1400  -22.0280  -11.5000 N.ar    1  UNL1       -0.2200
     24  C         24.0940  -21.7690  -12.4550 C.ar    1  UNL1        0.1110
     25  C         25.4820  -21.8740  -12.4470 C.2     1  UNL1        0.1500
     26  C         23.4870  -21.3250  -13.6170 C.ar    1  UNL1        0.1090
     27  N         26.1920  -21.5430  -13.5620 N.2     1  UNL1       -0.2710
     28  C         25.5310  -21.1140  -14.6680 C.2     1  UNL1        0.1190
     29  C         24.1560  -20.9770  -14.7760 C.2     1  UNL1        0.0590
     30  O         22.1410  -21.3010  -13.4010 O.2     1  UNL1       -0.2890
@<TRIPOS>BOND
     1    29    28    2
     2    29    26    1
     3    28    27    1
     4    26    30   ar
     5    26    24   ar
     6    27    25    2
     7    30    22   ar
     8    24    25    1
     9    24    23   ar
    10    22     4    1
    11    22    23   ar
    12     3     4    2
    13     3     2    1
    14     4     5    1
    15     2     1    2
    16     5     6    2
    17     1     6    1
    18     1     7    1
    19     7     8    1
    20     8    11    1
    21     8     9   am
    22    10     9    2
    23     9    12    1
    24    12    13    2
    25    12    18    1
    26    21    18    1
    27    21    20    2
    28    13    14    1
    29    18    16    2
    30    20    19    1
    31    14    15    2
    32    16    15    1
    33    16    17    1
    34    19    17    2
