@<TRIPOS>MOLECULE
36324_out_ligand_01.pdbqt
 29 32 0 0 0
SMALL
GASTEIGER

@<TRIPOS>ATOM
      1  C         20.4090  -22.3790  -10.3350 C.2     1  UNL1        0.0360
      2  C         20.1230  -21.5360  -11.4140 C.2     1  UNL1        0.0320
      3  C         21.1180  -21.1920  -12.3300 C.2     1  UNL1        0.0400
      4  C         22.4090  -21.7020  -12.1870 C.2     1  UNL1        0.0930
      5  C         22.7180  -22.5320  -11.1160 C.2     1  UNL1        0.0680
      6  C         21.7100  -22.8670  -10.1880 C.2     1  UNL1        0.0490
      7  C         24.0730  -23.0790  -10.8820 C.2     1  UNL1        0.2590
      8  O         24.4420  -23.3270   -9.7350 O.2     1  UNL1       -0.2670
      9  N         24.8920  -23.4310  -11.9260 N.am    1  UNL1       -0.3190
     10  C         24.7210  -23.2230  -13.3010 C.2     1  UNL1        0.0880
     11  C         25.4510  -24.0250  -14.1790 C.2     1  UNL1        0.0350
     12  C         25.3180  -23.8480  -15.5540 C.2     1  UNL1        0.0220
     13  C         24.4710  -22.8520  -16.0080 C.2     1  UNL1        0.1190
     14  N         23.7750  -22.0340  -15.1930 N.2     1  UNL1       -0.2350
     15  C         23.9090  -22.2360  -13.8590 C.2     1  UNL1        0.1970
     16  O         23.3370  -21.2570  -13.0850 O.2     1  UNL1       -0.2890
     17  H         25.6700  -24.0060  -11.6230 H       1  UNL1        0.1690
     18  N         19.3420  -22.6810   -9.4610 N.am    1  UNL1       -0.3230
     19  C         19.3220  -22.5490   -8.0840 C.2     1  UNL1        0.2560
     20  O         20.2120  -22.1010   -7.3730 O.2     1  UNL1       -0.2670
     21  H         18.4850  -22.9780   -9.9090 H       1  UNL1        0.1690
     22  C         18.0550  -22.9770   -7.4280 C.2     1  UNL1        0.0330
     23  C         17.1640  -23.7770   -8.1600 C.2     1  UNL1        0.0200
     24  C         15.9620  -24.1960   -7.5850 C.2     1  UNL1        0.0450
     25  C         15.6480  -23.8050   -6.2870 C.2     1  UNL1        0.1330
     26  F         14.4900  -24.2190   -5.7530 F       1  UNL1       -0.2050
     27  C         16.5200  -22.9940   -5.5610 C.2     1  UNL1        0.0500
     28 BR         16.0830  -22.4470   -3.8030 Br      1  UNL1       -0.0480
     29  C         17.7250  -22.5720   -6.1280 C.2     1  UNL1        0.0390
@<TRIPOS>BOND
     1    13    12    2
     2    13    14    1
     3    12    11    1
     4    14    15    2
     5    11    10    2
     6    15    10    1
     7    15    16    1
     8    10     9    1
     9    16     4    1
    10     3     4    2
    11     3     2    1
    12     4     5    1
    13     9    17    1
    14     9     7   am
    15     2     1    2
    16     5     7    1
    17     5     6    2
    18     7     8    2
    19     1     6    1
    20     1    18    1
    21    21    18    1
    22    18    19   am
    23    23    24    1
    24    23    22    2
    25    19    22    1
    26    19    20    2
    27    24    25    2
    28    22    29    1
    29    25    26    1
    30    25    27    1
    31    29    27    2
    32    27    28    1
