@<TRIPOS>MOLECULE
36333_out_ligand_01.pdbqt
 32 36 0 0 0
SMALL
GASTEIGER

@<TRIPOS>ATOM
      1  C         21.7630  -21.8340  -11.2970 C.2     1  UNL1        0.0360
      2  C         21.3100  -21.4040  -12.5440 C.2     1  UNL1        0.0320
      3  C         22.2220  -21.1270  -13.5670 C.2     1  UNL1        0.0400
      4  C         23.5930  -21.3010  -13.3640 C.2     1  UNL1        0.0930
      5  C         24.0620  -21.7350  -12.1310 C.2     1  UNL1        0.0680
      6  C         23.1400  -21.9950  -11.0990 C.2     1  UNL1        0.0490
      7  C         25.4950  -21.9270  -11.8200 C.2     1  UNL1        0.2590
      8  O         25.8740  -21.8400  -10.6510 O.2     1  UNL1       -0.2670
      9  N         26.3930  -22.3290  -12.7760 N.am    1  UNL1       -0.3190
     10  C         26.2070  -22.5100  -14.1540 C.2     1  UNL1        0.0880
     11  C         27.1210  -23.3210  -14.8300 C.2     1  UNL1        0.0350
     12  C         26.9820  -23.5300  -16.2000 C.2     1  UNL1        0.0220
     13  C         25.9400  -22.8990  -16.8570 C.2     1  UNL1        0.1190
     14  N         25.0600  -22.0810  -16.2450 N.2     1  UNL1       -0.2350
     15  C         25.2040  -21.9060  -14.9090 C.2     1  UNL1        0.1970
     16  O         24.4090  -20.9170  -14.3890 O.2     1  UNL1       -0.2890
     17  H         27.2710  -22.6320  -12.3710 H       1  UNL1        0.1690
     18  N         20.9160  -22.1270  -10.2060 N.am    1  UNL1       -0.3230
     19  C         21.0430  -23.1680   -9.3040 C.2     1  UNL1        0.2560
     20  O         21.8830  -24.0590   -9.3230 O.2     1  UNL1       -0.2670
     21  H         20.0890  -21.5500  -10.1280 H       1  UNL1        0.1690
     22  C         20.0070  -23.1980   -8.2320 C.2     1  UNL1        0.0320
     23  C         19.0900  -24.2460   -8.1160 C.2     1  UNL1        0.0190
     24  C         18.1310  -24.2340   -7.0940 C.2     1  UNL1        0.0310
     25  C         18.0710  -23.1690   -6.1800 C.2     1  UNL1        0.0380
     26  C         18.9830  -22.1130   -6.3160 C.2     1  UNL1        0.0310
     27  C         19.9410  -22.1250   -7.3380 C.2     1  UNL1        0.0190
     28  N         17.0910  -23.1590   -5.1350 N.pl3   1  UNL1       -0.3330
     29  C         15.8260  -22.6000   -5.1910 C.2     1  UNL1        0.0960
     30  C         15.1820  -22.7950   -3.9890 C.2     1  UNL1        0.0190
     31  C         16.0670  -23.4990   -3.1530 C.2     1  UNL1        0.0190
     32  C         17.2240  -23.7090   -3.8720 C.2     1  UNL1        0.0960
@<TRIPOS>BOND
     1    13    14    1
     2    13    12    2
     3    14    15    2
     4    12    11    1
     5    15    16    1
     6    15    10    1
     7    11    10    2
     8    16     4    1
     9    10     9    1
    10     3     4    2
    11     3     2    1
    12     4     5    1
    13     9    17    1
    14     9     7   am
    15     2     1    2
    16     5     7    1
    17     5     6    2
    18     7     8    2
    19     1     6    1
    20     1    18    1
    21    18    21    1
    22    18    19   am
    23    20    19    2
    24    19    22    1
    25    22    23    2
    26    22    27    1
    27    23    24    1
    28    27    26    2
    29    24    25    2
    30    26    25    1
    31    25    28    1
    32    29    28    1
    33    29    30    2
    34    28    32    1
    35    30    31    1
    36    32    31    2
