@<TRIPOS>MOLECULE
36331_out_ligand_01.pdbqt
 28 31 0 0 0
SMALL
GASTEIGER

@<TRIPOS>ATOM
      1  C         20.2740  -22.3360   -8.2810 C.2     1  UNL1        0.0360
      2  C         21.4400  -22.0850   -7.5490 C.2     1  UNL1        0.0320
      3  C         22.6290  -21.7530   -8.2020 C.2     1  UNL1        0.0400
      4  C         22.6680  -21.6820   -9.5950 C.2     1  UNL1        0.0930
      5  C         21.5150  -21.9110  -10.3390 C.2     1  UNL1        0.0680
      6  C         20.3170  -22.2360   -9.6730 C.2     1  UNL1        0.0490
      7  C         21.4750  -21.8110  -11.8150 C.2     1  UNL1        0.2590
      8  O         20.4320  -21.4820  -12.3770 O.2     1  UNL1       -0.2670
      9  N         22.5450  -22.1930  -12.5860 N.am    1  UNL1       -0.3190
     10  C         23.8390  -22.5600  -12.1940 C.2     1  UNL1        0.0880
     11  C         24.6060  -23.3030  -13.0920 C.2     1  UNL1        0.0350
     12  C         25.9020  -23.6830  -12.7480 C.2     1  UNL1        0.0220
     13  C         26.3970  -23.2860  -11.5180 C.2     1  UNL1        0.1190
     14  N         25.7000  -22.5390  -10.6380 N.2     1  UNL1       -0.2350
     15  C         24.4360  -22.1960  -10.9890 C.2     1  UNL1        0.1970
     16  O         23.8520  -21.2820  -10.1460 O.2     1  UNL1       -0.2890
     17  H         22.2920  -22.3020  -13.5610 H       1  UNL1        0.1690
     18  N         19.1190  -22.6670   -7.5400 N.am    1  UNL1       -0.3230
     19  C         18.6320  -22.0440   -6.4050 C.2     1  UNL1        0.2590
     20  O         19.1240  -21.0590   -5.8660 O.2     1  UNL1       -0.2670
     21  H         18.5800  -23.4480   -7.9000 H       1  UNL1        0.1690
     22  C         17.3910  -22.6260   -5.8030 C.2     1  UNL1        0.0700
     23  C         17.4780  -23.2040   -4.5250 C.2     1  UNL1        0.0200
     24  C         16.3490  -23.7620   -3.9170 C.2     1  UNL1        0.0010
     25  C         15.1220  -23.7500   -4.5760 C.2     1  UNL1        0.0030
     26  C         15.0230  -23.1790   -5.8430 C.2     1  UNL1        0.0430
     27  C         16.1520  -22.6240   -6.4460 C.2     1  UNL1        0.1320
     28  F         16.0070  -22.0840   -7.6670 F       1  UNL1       -0.2050
@<TRIPOS>BOND
     1    17     9    1
     2    11    12    1
     3    11    10    2
     4    12    13    2
     5     9    10    1
     6     9     7   am
     7     8     7    2
     8    10    15    1
     9     7     5    1
    10    13    14    1
    11    15    14    2
    12    15    16    1
    13     5     6    1
    14     5     4    2
    15    16     4    1
    16     6     1    2
    17     4     3    1
    18     1     2    1
    19     1    18    1
    20     3     2    2
    21    21    18    1
    22    28    27    1
    23    18    19   am
    24    27    26    1
    25    27    22    2
    26    19    20    2
    27    19    22    1
    28    26    25    2
    29    22    23    1
    30    25    24    1
    31    23    24    2
