@<TRIPOS>MOLECULE
36334_out_ligand_01.pdbqt
 28 31 0 0 0
SMALL
GASTEIGER

@<TRIPOS>ATOM
      1  C         20.6380  -22.2440  -10.4610 C.2     1  UNL1        0.0360
      2  C         20.3050  -21.4630  -11.5660 C.2     1  UNL1        0.0320
      3  C         21.2620  -21.1830  -12.5460 C.2     1  UNL1        0.0400
      4  C         22.5570  -21.6980  -12.4420 C.2     1  UNL1        0.0930
      5  C         22.9090  -22.4760  -11.3460 C.2     1  UNL1        0.0680
      6  C         21.9430  -22.7400  -10.3550 C.2     1  UNL1        0.0490
      7  C         24.2600  -23.0380  -11.1400 C.2     1  UNL1        0.2590
      8  O         24.6420  -23.2800   -9.9940 O.2     1  UNL1       -0.2670
      9  N         25.0510  -23.4180  -12.1940 N.am    1  UNL1       -0.3190
     10  C         24.8390  -23.2590  -13.5700 C.2     1  UNL1        0.0880
     11  C         25.5500  -24.0910  -14.4370 C.2     1  UNL1        0.0350
     12  C         25.3770  -23.9700  -15.8140 C.2     1  UNL1        0.0220
     13  C         24.5090  -22.9990  -16.2820 C.2     1  UNL1        0.1190
     14  N         23.8330  -22.1550  -15.4790 N.2     1  UNL1       -0.2350
     15  C         24.0030  -22.3020  -14.1420 C.2     1  UNL1        0.1970
     16  O         23.4450  -21.2950  -13.3960 O.2     1  UNL1       -0.2890
     17  H         25.8370  -23.9860  -11.8980 H       1  UNL1        0.1690
     18  N         19.7440  -22.5580   -9.4160 N.am    1  UNL1       -0.3230
     19  C         20.0020  -22.5310   -8.0570 C.2     1  UNL1        0.2560
     20  O         21.0310  -22.1550   -7.5120 O.2     1  UNL1       -0.2670
     21  H         18.7940  -22.7630   -9.6990 H       1  UNL1        0.1690
     22  C         18.8710  -22.9740   -7.1950 C.2     1  UNL1        0.0350
     23  C         18.2010  -24.1870   -7.4220 C.2     1  UNL1        0.0170
     24  C         17.1470  -24.5700   -6.5870 C.2     1  UNL1        0.0040
     25  C         16.7680  -23.7490   -5.5260 C.2     1  UNL1        0.0420
     26  C         17.4490  -22.5580   -5.2980 C.2     1  UNL1        0.1170
     27  F         17.0850  -21.7790   -4.2730 F       1  UNL1       -0.2060
     28  C         18.5000  -22.1640   -6.1170 C.2     1  UNL1        0.0590
@<TRIPOS>BOND
     1    13    12    2
     2    13    14    1
     3    12    11    1
     4    14    15    2
     5    11    10    2
     6    15    10    1
     7    15    16    1
     8    10     9    1
     9    16     4    1
    10     3     4    2
    11     3     2    1
    12     4     5    1
    13     9    17    1
    14     9     7   am
    15     2     1    2
    16     5     7    1
    17     5     6    2
    18     7     8    2
    19     1     6    1
    20     1    18    1
    21    21    18    1
    22    18    19   am
    23    19    20    2
    24    19    22    1
    25    23    22    2
    26    23    24    1
    27    22    28    1
    28    24    25    2
    29    28    26    2
    30    25    26    1
    31    26    27    1
