@<TRIPOS>MOLECULE
3634_out_ligand_01.pdbqt
 40 43 0 0 0
SMALL
GASTEIGER

@<TRIPOS>ATOM
      1  C         23.2670  -22.6730  -11.3830 C.2     1  UNL1        0.0220
      2  C         22.5380  -23.0780  -10.2650 C.2     1  UNL1        0.0250
      3  C         21.2000  -22.7000  -10.1290 C.2     1  UNL1        0.0100
      4  C         20.5720  -21.9350  -11.1230 C.2     1  UNL1       -0.0400
      5  C         21.3010  -21.5780  -12.2670 C.2     1  UNL1        0.0100
      6  C         22.6390  -21.9550  -12.3990 C.2     1  UNL1        0.0250
      7  N         24.6010  -23.1220  -11.6120 N.pl3   1  UNL1       -0.1810
      8  H         24.8560  -23.9210  -11.0280 H       1  UNL1        0.1460
      9  S         25.8640  -21.9930  -11.5300 S.O2    1  UNL1        0.2460
     10  O         25.5280  -20.8750  -10.6800 O.2     1  UNL1       -0.2060
     11  O         27.0500  -22.7820  -11.2720 O.2     1  UNL1       -0.2060
     12  C         25.9420  -21.4360  -13.2330 C.2     1  UNL1        0.0820
     13  C         25.6490  -22.2770  -14.3330 C.2     1  UNL1       -0.0290
     14  C         25.6650  -21.7130  -15.6310 C.2     1  UNL1       -0.0490
     15  C         25.2650  -23.7310  -14.1570 C.3     1  UNL1        0.0400
     16  C         26.0070  -20.3600  -15.8110 C.2     1  UNL1        0.0260
     17  C         25.3730  -22.5300  -16.8690 C.3     1  UNL1        0.0390
     18  C         26.3070  -19.5450  -14.7180 C.2     1  UNL1        0.0390
     19  C         26.2680  -20.0830  -13.4310 C.2     1  UNL1        0.0430
     20  C         24.6550  -23.8410  -16.5800 C.3     1  UNL1        0.0050
     21  C         25.3480  -24.5640  -15.4370 C.3     1  UNL1        0.0050
     22  C         26.6650  -18.1150  -14.8740 C.2     1  UNL1        0.1760
     23  O         26.5780  -17.4710  -15.9030 O.2     1  UNL1       -0.6460
     24  O         27.1200  -17.5600  -13.7370 O.3     1  UNL1       -0.7730
     25  H         27.3980  -18.3290  -13.1960 H       1  UNL1        0.1670
     26  C         19.1230  -21.5510  -10.9890 C.3     1  UNL1        0.1610
     27  N         18.6250  -21.8940   -9.6770 N.am    1  UNL1       -0.3530
     28  C         17.6200  -22.8280   -9.5450 C.2     1  UNL1        0.2510
     29  O         17.1610  -23.4580  -10.4900 O.2     1  UNL1       -0.2680
     30  H         18.7620  -21.2190   -8.9390 H       1  UNL1        0.1630
     31  C         17.0680  -23.0220   -8.1740 C.2     1  UNL1        0.0320
     32  C         17.6830  -22.3500   -7.1090 C.2     1  UNL1        0.0180
     33  C         17.1950  -22.4940   -5.8080 C.2     1  UNL1        0.0170
     34  C         16.0760  -23.3010   -5.5520 C.2     1  UNL1        0.0480
     35  C         15.4620  -23.9700   -6.6250 C.2     1  UNL1        0.0170
     36  C         15.9480  -23.8270   -7.9280 C.2     1  UNL1        0.0180
     37  C         15.5610  -23.4660   -4.1420 C.3     1  UNL1        0.4170
     38  F         14.8930  -22.3710   -3.6840 F       1  UNL1       -0.1660
     39  F         16.5520  -23.7000   -3.2390 F       1  UNL1       -0.1660
     40  F         14.6940  -24.5080   -4.0280 F       1  UNL1       -0.1660
@<TRIPOS>BOND
     1    17    20    1
     2    17    14    1
     3    20    21    1
     4    23    22    2
     5    16    14    2
     6    16    18    1
     7    14    13    1
     8    21    15    1
     9    22    18    1
    10    22    24    1
    11    18    19    2
    12    13    15    1
    13    13    12    2
    14    24    25    1
    15    19    12    1
    16    12     9    1
    17     6     5    1
    18     6     1    2
    19     5     4    2
    20     7     9    1
    21     7     1    1
    22     7     8    1
    23     9    11    2
    24     9    10    2
    25     1     2    1
    26     4    26    1
    27     4     3    1
    28    26    27    1
    29    29    28    2
    30     2     3    2
    31    27    28   am
    32    27    30    1
    33    28    31    1
    34    31    36    2
    35    31    32    1
    36    36    35    1
    37    32    33    2
    38    35    34    2
    39    33    34    1
    40    34    37    1
    41    37    40    1
    42    37    38    1
    43    37    39    1
