@<TRIPOS>MOLECULE
36355_out_ligand_01.pdbqt
 33 36 0 0 0
SMALL
GASTEIGER

@<TRIPOS>ATOM
      1  N         21.6890  -23.2580   -8.9860 N.am    1  UNL1       -0.3570
      2  C         20.6480  -24.1480   -8.8390 C.2     1  UNL1        0.2520
      3  O         20.7610  -25.3640   -8.9050 O.2     1  UNL1       -0.2680
      4  H         21.4830  -22.2700   -9.0640 H       1  UNL1        0.1620
      5  C         19.3160  -23.5300   -8.6560 C.2     1  UNL1        0.0460
      6  C         18.6790  -23.8020   -7.4440 C.2     1  UNL1        0.0510
      7  C         17.4070  -23.3000   -7.2500 C.2     1  UNL1        0.0750
      8  N         16.7790  -22.5580   -8.1970 N.2     1  UNL1       -0.2470
      9  C         17.4110  -22.2690   -9.3470 C.2     1  UNL1        0.0680
     10  C         16.7470  -21.4840  -10.2810 C.2     1  UNL1        0.0320
     11  C         18.7080  -22.7210   -9.6430 C.2     1  UNL1        0.0080
     12  C         17.3340  -21.1180  -11.4940 C.2     1  UNL1        0.0020
     13  C         18.6230  -21.5360  -11.7850 C.2     1  UNL1        0.0010
     14  C         19.3100  -22.3260  -10.8670 C.2     1  UNL1        0.0150
     15  C         16.6000  -23.5150   -6.0350 C.2     1  UNL1        0.0330
     16  C         15.2540  -23.8430   -5.9530 C.2     1  UNL1        0.0210
     17  C         14.7860  -23.9800   -4.6160 C.2     1  UNL1        0.0080
     18  C         15.7860  -23.7560   -3.7010 C.2     1  UNL1        0.0500
     19  S         17.2730  -23.3870   -4.4560 S.3     1  UNL1       -0.1000
     20  C         23.0500  -23.7150   -9.1920 C.3     1  UNL1        0.1270
     21  C         23.9920  -22.5880   -9.6260 C.3     1  UNL1        0.0580
     22  C         24.1480  -22.4890  -11.1290 C.2     1  UNL1       -0.0570
     23  C         23.1430  -21.8940  -11.9060 C.2     1  UNL1        0.0090
     24  C         23.3090  -21.7480  -13.2830 C.2     1  UNL1        0.0250
     25  C         24.4800  -22.2100  -13.8890 C.2     1  UNL1        0.0740
     26  C         25.4870  -22.8110  -13.1330 C.2     1  UNL1        0.0250
     27  C         25.3170  -22.9530  -11.7550 C.2     1  UNL1        0.0090
     28  S         24.6960  -21.9730  -15.6320 S.O2    1  UNL1        0.2390
     29  O         26.1100  -22.0190  -15.9160 O.2     1  UNL1       -0.2060
     30  O         23.7340  -22.7920  -16.3330 O.2     1  UNL1       -0.2060
     31  N         24.1650  -20.3870  -15.8290 N.3     1  UNL1       -0.2250
     32  H         24.2180  -20.1460  -16.8220 H       1  UNL1        0.1360
     33  H         23.2330  -20.2240  -15.4520 H       1  UNL1        0.1360
@<TRIPOS>BOND
     1    32    31    1
     2    30    28    2
     3    29    28    2
     4    31    28    1
     5    31    33    1
     6    28    25    1
     7    25    24    2
     8    25    26    1
     9    24    23    1
    10    26    27    2
    11    23    22    2
    12    13    12    1
    13    13    14    2
    14    27    22    1
    15    12    10    2
    16    22    21    1
    17    14    11    1
    18    10     9    1
    19    11     9    1
    20    11     5    2
    21    21    20    1
    22     9     8    2
    23    20     1    1
    24     4     1    1
    25     1     2   am
    26     3     2    2
    27     2     5    1
    28     5     6    1
    29     8     7    1
    30     6     7    2
    31     7    15    1
    32    15    16    2
    33    15    19    1
    34    16    17    1
    35    17    18    2
    36    19    18    1
