@<TRIPOS>MOLECULE
36350_out_ligand_01.pdbqt
 28 31 0 0 0
SMALL
GASTEIGER

@<TRIPOS>ATOM
      1  C         18.2020  -21.9980  -10.5070 C.2     1  UNL1       -0.0400
      2  C         19.2290  -22.8430  -10.0690 C.2     1  UNL1        0.0100
      3  C         20.5080  -22.7550  -10.6270 C.2     1  UNL1        0.0160
      4  C         20.7890  -21.8260  -11.6380 C.2     1  UNL1        0.0170
      5  C         19.7560  -20.9850  -12.0770 C.2     1  UNL1        0.0160
      6  C         18.4750  -21.0720  -11.5200 C.2     1  UNL1        0.0100
      7  C         16.8180  -22.1200   -9.9200 C.3     1  UNL1        0.1610
      8  N         16.8750  -22.0820   -8.4780 N.am    1  UNL1       -0.3530
      9  C         16.3750  -23.0920   -7.6910 C.2     1  UNL1        0.2540
     10  O         15.9850  -24.1590   -8.1570 O.2     1  UNL1       -0.2680
     11  H         17.0590  -21.1900   -8.0330 H       1  UNL1        0.1630
     12  C         16.3250  -22.8540   -6.2090 C.2     1  UNL1        0.0650
     13  C         15.0820  -23.0930   -5.5890 C.2     1  UNL1        0.0200
     14  C         14.9140  -22.9030   -4.2190 C.2     1  UNL1        0.0010
     15  C         15.9870  -22.4730   -3.4480 C.2     1  UNL1        0.0030
     16  C         17.2260  -22.2250   -4.0460 C.2     1  UNL1        0.0380
     17  C         17.4080  -22.4020   -5.4270 C.2     1  UNL1        0.0840
     18  O         18.6050  -22.1660   -6.0580 O.2     1  UNL1       -0.3550
     19  C         19.3310  -20.9990   -5.6860 C.3     1  UNL1        0.2100
     20  C         22.1340  -21.7620  -12.2060 C.ar    1  UNL1        0.1800
     21  N         23.2790  -22.1660  -11.6810 N.ar    1  UNL1       -0.2200
     22  C         24.2080  -21.8680  -12.6480 C.ar    1  UNL1        0.1110
     23  C         25.5890  -22.0430  -12.7080 C.2     1  UNL1        0.1500
     24  C         23.5830  -21.2860  -13.7360 C.ar    1  UNL1        0.1090
     25  N         26.2720  -21.6460  -13.8180 N.2     1  UNL1       -0.2710
     26  C         25.5940  -21.0820  -14.8510 C.2     1  UNL1        0.1190
     27  C         24.2260  -20.8650  -14.8860 C.2     1  UNL1        0.0590
     28  O         22.2490  -21.2160  -13.4630 O.2     1  UNL1       -0.2890
@<TRIPOS>BOND
     1    27    26    2
     2    27    24    1
     3    26    25    1
     4    25    23    2
     5    24    28   ar
     6    24    22   ar
     7    28    20   ar
     8    23    22    1
     9    22    21   ar
    10    20    21   ar
    11    20     4    1
    12     5     4    2
    13     5     6    1
    14     4     3    1
    15     6     1    2
    16     3     2    2
    17     1     2    1
    18     1     7    1
    19     7     8    1
    20     8    11    1
    21     8     9   am
    22    10     9    2
    23     9    12    1
    24    12    13    2
    25    12    17    1
    26    18    19    1
    27    18    17    1
    28    13    14    1
    29    17    16    2
    30    14    15    2
    31    16    15    1
