@<TRIPOS>MOLECULE
36357_out_ligand_01.pdbqt
 27 30 0 0 0
SMALL
GASTEIGER

@<TRIPOS>ATOM
      1  C         17.7370  -22.2980  -10.3090 C.2     1  UNL1       -0.0400
      2  C         18.7850  -23.0840   -9.8150 C.2     1  UNL1        0.0100
      3  C         20.0780  -22.9430  -10.3280 C.2     1  UNL1        0.0160
      4  C         20.3540  -22.0200  -11.3490 C.2     1  UNL1        0.0170
      5  C         19.2990  -21.2430  -11.8460 C.2     1  UNL1        0.0160
      6  C         18.0040  -21.3820  -11.3350 C.2     1  UNL1        0.0100
      7  C         16.3340  -22.4580   -9.7820 C.3     1  UNL1        0.1610
      8  N         16.3120  -22.3530   -8.3420 N.am    1  UNL1       -0.3530
      9  C         16.0480  -23.4330   -7.5330 C.2     1  UNL1        0.2550
     10  O         15.7120  -24.5290   -7.9730 O.2     1  UNL1       -0.2680
     11  H         16.6870  -21.5050   -7.9330 H       1  UNL1        0.1630
     12  C         16.1870  -23.2400   -6.0610 C.2     1  UNL1        0.0700
     13  C         17.3390  -23.7380   -5.4300 C.2     1  UNL1        0.0200
     14  C         17.5190  -23.5830   -4.0530 C.2     1  UNL1        0.0010
     15  C         16.5520  -22.9290   -3.2910 C.2     1  UNL1        0.0030
     16  C         15.4050  -22.4300   -3.9070 C.2     1  UNL1        0.0430
     17  C         15.2290  -22.5870   -5.2820 C.2     1  UNL1        0.1320
     18  F         14.1100  -22.0870   -5.8290 F       1  UNL1       -0.2050
     19  C         21.7160  -21.8990  -11.8620 C.ar    1  UNL1        0.1800
     20  N         22.8570  -22.2290  -11.2780 N.ar    1  UNL1       -0.2200
     21  C         23.8100  -21.9000  -12.2110 C.ar    1  UNL1        0.1110
     22  C         25.2000  -22.0000  -12.2080 C.2     1  UNL1        0.1500
     23  C         23.2020  -21.3770  -13.3390 C.ar    1  UNL1        0.1090
     24  N         25.9090  -21.5880  -13.2960 N.2     1  UNL1       -0.2710
     25  C         25.2470  -21.0840  -14.3700 C.2     1  UNL1        0.1190
     26  C         23.8720  -20.9450  -14.4690 C.2     1  UNL1        0.0590
     27  O         21.8560  -21.3730  -13.1240 O.2     1  UNL1       -0.2890
@<TRIPOS>BOND
     1    26    25    2
     2    26    23    1
     3    25    24    1
     4    23    27   ar
     5    23    21   ar
     6    24    22    2
     7    27    19   ar
     8    21    22    1
     9    21    20   ar
    10    19     4    1
    11    19    20   ar
    12     5     4    2
    13     5     6    1
    14     4     3    1
    15     6     1    2
    16     3     2    2
    17     1     2    1
    18     1     7    1
    19     7     8    1
    20     8    11    1
    21     8     9   am
    22    10     9    2
    23     9    12    1
    24    12    13    2
    25    12    17    1
    26    18    17    1
    27    13    14    1
    28    17    16    2
    29    14    15    2
    30    16    15    1
