@<TRIPOS>MOLECULE
36368_out_ligand_01.pdbqt
 37 41 0 0 0
SMALL
GASTEIGER

@<TRIPOS>ATOM
      1  C         20.6670  -22.4990   -9.5100 C.2     1  UNL1        0.1020
      2  C         22.0150  -22.8470   -9.6310 C.2     1  UNL1        0.0500
      3  C         22.6950  -22.6530  -10.8440 C.2     1  UNL1       -0.0180
      4  C         21.9780  -22.1060  -11.9200 C.2     1  UNL1        0.0130
      5  C         20.6330  -21.7320  -11.7880 C.2     1  UNL1        0.0400
      6  C         19.9710  -21.9120  -10.5750 C.2     1  UNL1        0.1020
      7  C         24.1590  -23.0610  -10.9630 C.3     1  UNL1        0.1930
      8  N         24.4400  -23.5950  -12.2840 N.pl3   1  UNL1       -0.2670
      9  C         25.0070  -22.7300  -13.2280 C.2     1  UNL1        0.0230
     10  H         23.6770  -24.1430  -12.6590 H       1  UNL1        0.1300
     11  C         25.0560  -23.1140  -14.5740 C.2     1  UNL1        0.0240
     12  C         25.6440  -21.5460  -12.8310 C.2     1  UNL1        0.0220
     13  C         25.6750  -22.3040  -15.5260 C.2     1  UNL1        0.0030
     14  C         26.2800  -21.1110  -15.1370 C.2     1  UNL1        0.0120
     15  C         26.2800  -20.7200  -13.7900 C.2     1  UNL1       -0.0220
     16  C         26.9080  -19.5390  -13.3670 C.2     1  UNL1        0.0120
     17  C         26.9200  -19.1910  -12.0160 C.2     1  UNL1        0.0030
     18  C         26.2940  -20.0130  -11.0770 C.2     1  UNL1        0.0300
     19  C         25.6260  -21.1760  -11.4780 C.2     1  UNL1        0.0420
     20  N         25.0540  -22.0110  -10.5120 N.pl3   1  UNL1       -0.3680
     21  H         24.7080  -21.5120   -9.7020 H       1  UNL1        0.1610
     22  O         20.0920  -22.6600   -8.2740 O.2     1  UNL1       -0.3490
     23  C         20.8880  -22.0200   -7.2660 C.3     1  UNL1        0.1710
     24  C         19.9470  -21.2900   -6.3230 C.3     1  UNL1        0.0340
     25  O         18.6750  -21.5480  -10.3230 O.2     1  UNL1       -0.3390
     26  C         17.6420  -22.4510  -10.6940 C.3     1  UNL1        0.2780
     27  C         16.7370  -22.9250   -9.5470 C.2     1  UNL1        0.2460
     28  O         15.7280  -23.5840   -9.7760 O.2     1  UNL1       -0.2710
     29  N         17.2240  -22.5600   -8.3020 N.am    1  UNL1       -0.3250
     30  H         18.0490  -21.9630   -8.3190 H       1  UNL1        0.1690
     31  C         16.6670  -22.8290   -7.0400 C.2     1  UNL1        0.0350
     32  C         15.4300  -22.3370   -6.6130 C.2     1  UNL1        0.0320
     33  C         14.9460  -22.6500   -5.3380 C.2     1  UNL1        0.0440
     34  C         15.7010  -23.4540   -4.4950 C.2     1  UNL1        0.1160
     35  F         15.2360  -23.7520   -3.2740 F       1  UNL1       -0.2060
     36  C         16.9310  -23.9550   -4.9010 C.2     1  UNL1        0.0440
     37  C         17.4140  -23.6430   -6.1750 C.2     1  UNL1        0.0320
@<TRIPOS>BOND
     1    13    14    2
     2    13    11    1
     3    14    15    1
     4    11     9    2
     5    15    16    1
     6    15    12    2
     7    16    17    2
     8     9    12    1
     9     9     8    1
    10    12    19    1
    11    10     8    1
    12     8     7    1
    13    17    18    1
    14     4     5    2
    15     4     3    1
    16     5     6    1
    17    19    18    2
    18    19    20    1
    19     7     3    1
    20     7    20    1
    21     3     2    2
    22    26    25    1
    23    26    27    1
    24     6    25    1
    25     6     1    2
    26    20    21    1
    27    28    27    2
    28     2     1    1
    29    27    29   am
    30     1    22    1
    31    30    29    1
    32    29    31    1
    33    22    23    1
    34    23    24    1
    35    31    32    2
    36    31    37    1
    37    32    33    1
    38    37    36    2
    39    33    34    2
    40    36    34    1
    41    34    35    1
