@<TRIPOS>MOLECULE
3638_out_ligand_01.pdbqt
 33 36 0 0 0
SMALL
GASTEIGER

@<TRIPOS>ATOM
      1  C         18.2950  -21.9080  -10.6240 C.2     1  UNL1       -0.0400
      2  C         18.6810  -21.0690  -11.6800 C.2     1  UNL1        0.0100
      3  C         20.0030  -21.0540  -12.1300 C.2     1  UNL1        0.0170
      4  C         20.9600  -21.8680  -11.5160 C.2     1  UNL1        0.0320
      5  C         20.5830  -22.7260  -10.4750 C.2     1  UNL1        0.0170
      6  C         19.2570  -22.7450  -10.0330 C.2     1  UNL1        0.0100
      7  C         16.8590  -21.9260  -10.1540 C.3     1  UNL1        0.1610
      8  N         16.7670  -22.0930   -8.7240 N.am    1  UNL1       -0.3530
      9  C         16.2380  -23.2160   -8.1370 C.2     1  UNL1        0.2540
     10  O         15.9520  -24.2240   -8.7770 O.2     1  UNL1       -0.2680
     11  H         16.8890  -21.2750   -8.1290 H       1  UNL1        0.1630
     12  C         16.0160  -23.1760   -6.6540 C.2     1  UNL1        0.0610
     13  C         14.8520  -23.8130   -6.1840 C.2     1  UNL1        0.0190
     14  C         14.5510  -23.8320   -4.8280 C.2     1  UNL1        0.0020
     15  C         15.4130  -23.2130   -3.9340 C.2     1  UNL1        0.0140
     16  C         16.5770  -22.5720   -4.3890 C.2     1  UNL1       -0.0060
     17  C         17.4380  -21.9540   -3.4730 C.2     1  UNL1        0.0160
     18  C         16.9040  -22.5370   -5.7650 C.2     1  UNL1        0.0830
     19  C         18.5920  -21.3210   -3.9150 C.2     1  UNL1        0.0270
     20  C         18.8610  -21.3200   -5.2720 C.2     1  UNL1        0.0310
     21  C         20.0950  -20.6460   -5.7960 C.3     1  UNL1        0.0700
     22  N         18.0380  -21.9030   -6.1780 N.2     1  UNL1       -0.2520
     23  C         22.3630  -21.8140  -12.0050 C.2     1  UNL1        0.2560
     24  O         23.2640  -22.1000  -11.2270 O.2     1  UNL1       -0.2670
     25  N         22.4880  -21.4710  -13.3390 N.am    1  UNL1       -0.3230
     26  H         21.6290  -21.3980  -13.8700 H       1  UNL1        0.1690
     27  C         23.6810  -21.3190  -14.0740 C.2     1  UNL1        0.0350
     28  C         23.9420  -22.2670  -15.0760 C.2     1  UNL1        0.0320
     29  C         25.1040  -22.1860  -15.8480 C.2     1  UNL1        0.0440
     30  C         26.0030  -21.1540  -15.6220 C.2     1  UNL1        0.1160
     31  F         27.1180  -21.0760  -16.3610 F       1  UNL1       -0.2060
     32  C         25.7600  -20.2030  -14.6400 C.2     1  UNL1        0.0440
     33  C         24.5980  -20.2840  -13.8660 C.2     1  UNL1        0.0320
@<TRIPOS>BOND
     1    31    30    1
     2    29    30    2
     3    29    28    1
     4    30    32    1
     5    28    27    2
     6    32    33    2
     7    27    33    1
     8    27    25    1
     9    26    25    1
    10    25    23   am
    11     3     2    1
    12     3     4    2
    13    23     4    1
    14    23    24    2
    15     2     1    2
    16     4     5    1
    17     1     7    1
    18     1     6    1
    19     5     6    2
    20     7     8    1
    21    10     9    2
    22     8     9   am
    23     8    11    1
    24     9    12    1
    25    12    13    2
    26    12    18    1
    27    13    14    1
    28    22    18    1
    29    22    20    2
    30    21    20    1
    31    18    16    2
    32    20    19    1
    33    14    15    2
    34    16    15    1
    35    16    17    1
    36    19    17    2
