@<TRIPOS>MOLECULE
36382_out_ligand_01.pdbqt
 36 40 0 0 0
SMALL
GASTEIGER

@<TRIPOS>ATOM
      1  C         18.3070  -21.4600  -10.6550 C.ar    1  UNL1        0.1960
      2  N         17.0060  -21.2940  -10.6830 N.ar    1  UNL1       -0.1220
      3  N         16.4530  -22.1170   -9.7410 N.ar    1  UNL1       -0.1330
      4  C         17.4270  -22.7850   -9.1490 C.ar    1  UNL1        0.1400
      5  N         18.6520  -22.3590   -9.6590 N.ar    1  UNL1       -0.2750
      6  S         19.4190  -20.5390  -11.6130 S.3     1  UNL1       -0.0800
      7  C         20.2520  -21.8520  -12.5400 C.3     1  UNL1        0.1850
      8  C         21.7450  -21.5700  -12.6680 C.2     1  UNL1        0.2310
      9  N         22.5140  -22.2650  -11.7450 N.am    1  UNL1       -0.3260
     10  H         22.0020  -22.7580  -11.0150 H       1  UNL1        0.1690
     11  O         22.1660  -20.8060  -13.5340 O.2     1  UNL1       -0.2720
     12  C         23.9200  -22.3670  -11.6830 C.2     1  UNL1        0.0370
     13  C         24.7360  -21.4870  -10.9720 C.2     1  UNL1        0.0290
     14  C         26.1230  -21.6270  -11.0110 C.2     1  UNL1        0.0050
     15  C         26.7100  -22.6460  -11.7670 C.2     1  UNL1        0.0370
     16  C         25.9060  -23.5380  -12.4780 C.2     1  UNL1        0.0700
     17  C         24.5170  -23.4040  -12.4180 C.2     1  UNL1        0.0660
     18  O         26.3470  -24.5650  -13.2720 O.2     1  UNL1       -0.3560
     19  C         25.8120  -24.6290  -14.5890 C.3     1  UNL1        0.2100
     20  C         19.9490  -22.7610   -9.2400 C.2     1  UNL1        0.0430
     21  C         20.3990  -24.0670   -9.4620 C.2     1  UNL1        0.0300
     22  C         21.6920  -24.4340   -9.0640 C.2     1  UNL1        0.0020
     23  C         22.5300  -23.5000   -8.4550 C.2     1  UNL1        0.0000
     24  C         22.0840  -22.1970   -8.2400 C.2     1  UNL1        0.0020
     25  C         20.7960  -21.8240   -8.6320 C.2     1  UNL1        0.0300
     26  C         17.2260  -23.9260   -8.1960 C.3     1  UNL1        0.1200
     27  C         16.6410  -23.5460   -6.8420 C.2     1  UNL1       -0.0400
     28  C         15.3930  -24.0970   -6.4870 C.2     1  UNL1        0.0080
     29  C         14.7960  -23.7990   -5.2670 C.2     1  UNL1        0.0010
     30  C         15.4420  -22.9500   -4.3690 C.2     1  UNL1        0.0120
     31  C         16.6950  -22.4010   -4.6690 C.2     1  UNL1       -0.0250
     32  C         17.3200  -21.5550   -3.7310 C.2     1  UNL1        0.0120
     33  C         17.3260  -22.7020   -5.9070 C.2     1  UNL1       -0.0190
     34  C         18.5700  -21.0000   -3.9810 C.2     1  UNL1        0.0010
     35  C         19.2150  -21.2880   -5.1750 C.2     1  UNL1        0.0010
     36  C         18.6040  -22.1270   -6.1200 C.2     1  UNL1        0.0130
@<TRIPOS>BOND
     1    19    18    1
     2    11     8    2
     3    18    16    1
     4     8     7    1
     5     8     9   am
     6     7     6    1
     7    16    17    1
     8    16    15    2
     9    17    12    2
    10    15    14    1
    11     9    12    1
    12     9    10    1
    13    12    13    1
    14     6     1    1
    15    14    13    2
    16     2     1   ar
    17     2     3   ar
    18     1     5   ar
    19     3     4   ar
    20     5    20    1
    21     5     4   ar
    22    21    20    2
    23    21    22    1
    24    20    25    1
    25     4    26    1
    26    22    23    2
    27    25    24    2
    28    23    24    1
    29    26    27    1
    30    27    28    2
    31    27    33    1
    32    28    29    1
    33    36    33    1
    34    36    35    2
    35    33    31    2
    36    29    30    2
    37    35    34    1
    38    31    30    1
    39    31    32    1
    40    34    32    2
