@<TRIPOS>MOLECULE
363_out_ligand_01.pdbqt
 34 36 0 0 0
SMALL
GASTEIGER

@<TRIPOS>ATOM
      1  C         22.3610  -23.3320   -8.7100 C.2     1  UNL1        0.0320
      2  C         21.7970  -22.2260   -8.0580 C.2     1  UNL1        0.0180
      3  C         20.4620  -22.2640   -7.6480 C.2     1  UNL1        0.0260
      4  C         19.6910  -23.4030   -7.9040 C.2     1  UNL1        0.0740
      5  C         20.2420  -24.5100   -8.5550 C.2     1  UNL1        0.0260
      6  C         21.5770  -24.4660   -8.9660 C.2     1  UNL1        0.0180
      7  S         17.9980  -23.4370   -7.3620 S.O2    1  UNL1        0.2450
      8  O         17.6980  -22.1310   -6.8210 O.2     1  UNL1       -0.2060
      9  O         17.7900  -24.6550   -6.6100 O.2     1  UNL1       -0.2060
     10  N         17.2020  -23.6530   -8.8600 N.pl3   1  UNL1       -0.1810
     11  H         16.1990  -23.6260   -8.6630 H       1  UNL1        0.1460
     12  C         17.5480  -22.6640   -9.8380 C.2     1  UNL1        0.0230
     13  C         16.6050  -21.7260  -10.2580 C.2     1  UNL1        0.0240
     14  C         16.9680  -20.7410  -11.1750 C.2     1  UNL1        0.0030
     15  C         18.2770  -20.6850  -11.6570 C.2     1  UNL1        0.0160
     16  C         19.2410  -21.6070  -11.2190 C.2     1  UNL1        0.0490
     17  C         18.8620  -22.6000  -10.3030 C.2     1  UNL1        0.0400
     18  C         20.6510  -21.5450  -11.7470 C.3     1  UNL1        0.4170
     19  F         20.7360  -21.0550  -13.0150 F       1  UNL1       -0.1660
     20  F         21.4490  -20.7480  -10.9860 F       1  UNL1       -0.1660
     21  F         21.2610  -22.7630  -11.7770 F       1  UNL1       -0.1660
     22  C         23.7770  -23.3350   -9.1710 C.2     1  UNL1        0.2510
     23  O         24.5440  -24.2110   -8.7890 O.2     1  UNL1       -0.2680
     24  N         24.1560  -22.2970   -9.9980 N.am    1  UNL1       -0.3570
     25  H         23.5430  -21.5020  -10.1100 H       1  UNL1        0.1620
     26  C         25.5290  -22.1630  -10.4470 C.3     1  UNL1        0.1270
     27  C         25.6790  -21.1130  -11.5500 C.3     1  UNL1        0.0580
     28  C         25.3120  -21.6660  -12.9040 C.2     1  UNL1       -0.0570
     29  C         24.1390  -21.2410  -13.5430 C.2     1  UNL1        0.0090
     30  C         23.8020  -21.7350  -14.8050 C.2     1  UNL1        0.0240
     31  C         24.6380  -22.6550  -15.4340 C.2     1  UNL1        0.0340
     32 CL         24.2240  -23.2640  -16.9890 Cl      1  UNL1       -0.0840
     33  C         25.8090  -23.0830  -14.8120 C.2     1  UNL1        0.0240
     34  C         26.1460  -22.5880  -13.5500 C.2     1  UNL1        0.0090
@<TRIPOS>BOND
     1    32    31    1
     2    31    33    2
     3    31    30    1
     4    33    34    1
     5    30    29    2
     6    34    28    2
     7    29    28    1
     8    19    18    1
     9    28    27    1
    10    21    18    1
    11    18    16    1
    12    18    20    1
    13    15    16    2
    14    15    14    1
    15    27    26    1
    16    16    17    1
    17    14    13    2
    18    26    24    1
    19    17    12    2
    20    13    12    1
    21    25    24    1
    22    24    22   am
    23    12    10    1
    24    22    23    2
    25    22     1    1
    26     6     1    2
    27     6     5    1
    28    10    11    1
    29    10     7    1
    30     1     2    1
    31     5     4    2
    32     2     3    2
    33     4     3    1
    34     4     7    1
    35     7     8    2
    36     7     9    2
