@<TRIPOS>MOLECULE
36424_out_ligand_01.pdbqt
 33 36 0 0 0
SMALL
GASTEIGER

@<TRIPOS>ATOM
      1  C         21.2120  -22.5100   -7.6570 C.2     1  UNL1        0.0790
      2  C         19.9300  -22.9490   -7.3300 C.2     1  UNL1        0.0380
      3  C         19.1670  -22.2130   -6.4230 C.2     1  UNL1        0.0150
      4  C         19.6940  -21.0450   -5.8560 C.2     1  UNL1       -0.0170
      5  C         20.9990  -20.6400   -6.1580 C.2     1  UNL1        0.0150
      6  C         21.7620  -21.3760   -7.0650 C.2     1  UNL1        0.0380
      7  C         18.8610  -20.3210   -4.8780 C.2     1  UNL1        0.1500
      8  N         18.0940  -20.8010   -3.9440 N.2     1  UNL1       -0.1760
      9  N         18.1130  -22.2690   -3.7620 N.pl3   1  UNL1       -0.2000
     10  H         18.7420  -22.6350   -3.0410 H       1  UNL1        0.2020
     11  S         16.6420  -23.1310   -3.7600 S.O2    1  UNL1        0.2770
     12  O         15.6360  -22.2280   -3.2410 O.2     1  UNL1       -0.1990
     13  O         16.8720  -24.4270   -3.1530 O.2     1  UNL1       -0.1990
     14  C         16.3090  -23.3770   -5.4900 C.2     1  UNL1        0.0810
     15  C         15.5760  -22.4180   -6.1980 C.2     1  UNL1        0.0280
     16  C         15.2880  -22.6350   -7.5460 C.2     1  UNL1        0.0440
     17  C         15.7230  -23.8040   -8.1640 C.2     1  UNL1        0.1160
     18  F         15.4390  -24.0090   -9.4570 F       1  UNL1       -0.2060
     19  C         16.4400  -24.7680   -7.4590 C.2     1  UNL1        0.0440
     20  C         16.7320  -24.5590   -6.1110 C.2     1  UNL1        0.0280
     21  O         22.0050  -23.2590   -8.5280 O.3     1  UNL1       -0.2750
     22  C         21.2800  -23.8620   -9.5370 C.2     1  UNL1        0.2990
     23  O         20.9160  -25.0250   -9.6180 O.2     1  UNL1       -0.2590
     24  C         21.0910  -22.8750  -10.6190 C.2     1  UNL1        0.0510
     25  C         22.2230  -22.6010  -11.4010 C.2     1  UNL1        0.0180
     26  C         22.1490  -21.6670  -12.4270 C.2     1  UNL1        0.0020
     27  C         20.9460  -21.0100  -12.6760 C.2     1  UNL1        0.0120
     28  C         19.7930  -21.2860  -11.9190 C.2     1  UNL1       -0.0250
     29  C         18.5880  -20.6250  -12.2080 C.2     1  UNL1        0.0120
     30  C         19.8440  -22.2420  -10.8740 C.2     1  UNL1       -0.0100
     31  C         17.4270  -20.9000  -11.4870 C.2     1  UNL1        0.0010
     32  C         17.4530  -21.8460  -10.4720 C.2     1  UNL1        0.0010
     33  C         18.6440  -22.5110  -10.1700 C.2     1  UNL1        0.0130
@<TRIPOS>BOND
     1    27    26    2
     2    27    28    1
     3    26    25    1
     4    29    28    2
     5    29    31    1
     6    28    30    1
     7    31    32    2
     8    25    24    2
     9    30    24    1
    10    30    33    2
    11    24    22    1
    12    32    33    1
    13    23    22    2
    14    22    21    1
    15    18    17    1
    16    21     1    1
    17    17    16    2
    18    17    19    1
    19     1     2    2
    20     1     6    1
    21    16    15    1
    22    19    20    2
    23     2     3    1
    24     6     5    2
    25     3     4    2
    26    15    14    2
    27     5     4    1
    28    20    14    1
    29     4     7    1
    30    14    11    1
    31     7     8    2
    32     8     9    1
    33     9    11    1
    34     9    10    1
    35    11    12    2
    36    11    13    2
