@<TRIPOS>MOLECULE
36452_out_ligand_01.pdbqt
 28 30 0 0 0
SMALL
GASTEIGER

@<TRIPOS>ATOM
      1  C         18.5280  -22.2870  -10.1040 C.2     1  UNL1        0.0340
      2  C         17.9750  -21.3950  -11.0300 C.2     1  UNL1        0.0170
      3  C         18.7890  -20.8210  -12.0040 C.2     1  UNL1        0.0030
      4  C         20.1490  -21.1360  -12.0500 C.2     1  UNL1        0.0290
      5  C         20.7150  -22.0250  -11.1230 C.2     1  UNL1        0.0350
      6  C         19.8970  -22.5910  -10.1450 C.2     1  UNL1        0.0460
      7  C         17.6900  -22.9090   -9.0440 C.2     1  UNL1        0.2520
      8  O         16.4690  -22.8400   -9.1010 O.2     1  UNL1       -0.2680
      9  N         18.3800  -23.5190   -8.0170 N.am    1  UNL1       -0.3530
     10  H         19.3660  -23.3230   -7.9180 H       1  UNL1        0.1630
     11  C         17.6960  -24.0090   -6.8410 C.3     1  UNL1        0.1610
     12  C         17.9360  -23.0980   -5.6640 C.2     1  UNL1       -0.0410
     13  C         18.5800  -21.8660   -5.8480 C.2     1  UNL1        0.0090
     14  C         18.8250  -21.0250   -4.7620 C.2     1  UNL1        0.0010
     15  C         18.4340  -21.4100   -3.4810 C.2     1  UNL1        0.0000
     16  C         17.7980  -22.6350   -3.2850 C.2     1  UNL1        0.0010
     17  C         17.5540  -23.4780   -4.3710 C.2     1  UNL1        0.0090
     18  N         22.0980  -22.2800  -11.2520 N.am    1  UNL1       -0.3230
     19  C         23.1270  -21.7770  -10.4780 C.2     1  UNL1        0.2590
     20  O         22.9970  -21.0310   -9.5130 O.2     1  UNL1       -0.2670
     21  H         22.3550  -22.9200  -11.9950 H       1  UNL1        0.1690
     22  C         24.5140  -22.1960  -10.8540 C.2     1  UNL1        0.0700
     23  C         25.1560  -21.5130  -11.9000 C.2     1  UNL1        0.0200
     24  C         26.4510  -21.8640  -12.2930 C.2     1  UNL1        0.0010
     25  C         27.1210  -22.9010  -11.6450 C.2     1  UNL1        0.0030
     26  C         26.4950  -23.5860  -10.6050 C.2     1  UNL1        0.0430
     27  C         25.2030  -23.2320  -10.2190 C.2     1  UNL1        0.1320
     28  F         24.6420  -23.9200   -9.2100 F       1  UNL1       -0.2050
@<TRIPOS>BOND
     1    24    23    1
     2    24    25    2
     3     4     3    2
     4     4     5    1
     5     3     2    1
     6    21    18    1
     7    23    22    2
     8    25    26    1
     9    18     5    1
    10    18    19   am
    11     5     6    2
    12     2     1    2
    13    22    19    1
    14    22    27    1
    15    26    27    2
    16    19    20    2
    17    27    28    1
    18     6     1    1
    19     1     7    1
    20     8     7    2
    21     7     9   am
    22     9    10    1
    23     9    11    1
    24    11    12    1
    25    13    12    2
    26    13    14    1
    27    12    17    1
    28    14    15    2
    29    17    16    2
    30    15    16    1
