@<TRIPOS>MOLECULE
36474_out_ligand_01.pdbqt
 35 38 0 0 0
SMALL
GASTEIGER

@<TRIPOS>ATOM
      1  N         20.7340  -23.5280   -9.6890 N.am    1  UNL1       -0.3050
      2  C         22.1140  -23.5300   -9.8040 C.2     1  UNL1        0.2490
      3  O         22.8510  -24.1310   -9.0210 O.2     1  UNL1       -0.2680
      4  C         22.7100  -22.7770  -10.9190 C.2     1  UNL1        0.0920
      5  C         21.9590  -22.0300  -11.7350 C.2     1  UNL1        0.0490
      6  C         20.5180  -21.8800  -11.4840 C.2     1  UNL1        0.0070
      7  C         19.7360  -20.9620  -12.2050 C.2     1  UNL1        0.0150
      8  C         18.3710  -20.8330  -11.9570 C.2     1  UNL1        0.0010
      9  C         17.7730  -21.6110  -10.9760 C.2     1  UNL1        0.0020
     10  C         18.5390  -22.5100  -10.2320 C.2     1  UNL1        0.0300
     11  C         19.9170  -22.6520  -10.4680 C.2     1  UNL1        0.0490
     12  C         20.1530  -24.3850   -8.6540 C.3     1  UNL1        0.2350
     13  C         19.5230  -23.5640   -7.5250 C.2     1  UNL1        0.2400
     14  O         20.0630  -22.5400   -7.1200 O.2     1  UNL1       -0.2710
     15  N         18.3260  -24.0990   -7.0760 N.am    1  UNL1       -0.3260
     16  H         18.0320  -24.9680   -7.5280 H       1  UNL1        0.1690
     17  C         17.4860  -23.6110   -6.0560 C.2     1  UNL1        0.0360
     18  C         17.7810  -23.7040   -4.6930 C.2     1  UNL1        0.0320
     19  C         16.8930  -23.1930   -3.7390 C.2     1  UNL1        0.0460
     20  C         15.7100  -22.5900   -4.1490 C.2     1  UNL1        0.1380
     21  F         14.8770  -22.1040   -3.2170 F       1  UNL1       -0.2040
     22  C         15.4020  -22.4960   -5.5010 C.2     1  UNL1        0.0740
     23 CL         13.9390  -21.7500   -6.0180 Cl      1  UNL1       -0.0810
     24  C         16.2880  -23.0060   -6.4560 C.2     1  UNL1        0.0560
     25  C         22.7110  -21.4210  -12.8660 C.2     1  UNL1        0.2530
     26  O         22.1580  -20.7070  -13.6940 O.2     1  UNL1       -0.2680
     27  N         24.0580  -21.6800  -12.8410 N.am    1  UNL1       -0.3530
     28  H         24.4550  -22.1400  -12.0340 H       1  UNL1        0.1630
     29  C         24.9760  -21.0330  -13.7510 C.3     1  UNL1        0.1610
     30  C         24.9370  -21.7000  -15.1020 C.2     1  UNL1       -0.0410
     31  C         24.9410  -20.9390  -16.2810 C.2     1  UNL1        0.0090
     32  C         24.8830  -21.5670  -17.5280 C.2     1  UNL1        0.0010
     33  C         24.8090  -22.9560  -17.6090 C.2     1  UNL1        0.0000
     34  C         24.8000  -23.7220  -16.4440 C.2     1  UNL1        0.0010
     35  C         24.8630  -23.0990  -15.1960 C.2     1  UNL1        0.0090
@<TRIPOS>BOND
     1    33    32    2
     2    33    34    1
     3    32    31    1
     4    34    35    2
     5    31    30    2
     6    35    30    1
     7    30    29    1
     8    29    27    1
     9    26    25    2
    10    25    27   am
    11    25     5    1
    12    27    28    1
    13     7     8    1
    14     7     6    2
    15     8     9    2
    16     5     6    1
    17     5     4    2
    18     6    11    1
    19     9    10    1
    20     4     2    1
    21    11    10    2
    22    11     1    1
    23     2     1   am
    24     2     3    2
    25     1    12    1
    26    12    13    1
    27    16    15    1
    28    13    14    2
    29    13    15   am
    30    15    17    1
    31    24    17    2
    32    24    22    1
    33    17    18    1
    34    23    22    1
    35    22    20    2
    36    18    19    2
    37    20    19    1
    38    20    21    1
