@<TRIPOS>MOLECULE
3647_out_ligand_01.pdbqt
 34 37 0 0 0
SMALL
GASTEIGER

@<TRIPOS>ATOM
      1  C         19.8120  -22.4480  -10.4190 C.2     1  UNL1        0.0870
      2  C         21.1690  -22.6560  -10.7410 C.2     1  UNL1        0.0550
      3  C         21.7810  -21.9380  -11.7690 C.2     1  UNL1        0.0360
      4  C         21.0210  -21.0050  -12.4770 C.2     1  UNL1        0.0300
      5  C         19.6850  -20.7700  -12.1420 C.2     1  UNL1        0.0100
      6  C         19.0570  -21.4760  -11.1000 C.2     1  UNL1       -0.0390
      7  C         17.6320  -21.1270  -10.7740 C.3     1  UNL1        0.0500
      8  N         23.1350  -22.0700  -12.1410 N.am    1  UNL1       -0.3260
      9  C         24.2570  -21.7130  -11.4170 C.2     1  UNL1        0.2320
     10  O         24.2390  -21.3550  -10.2390 O.2     1  UNL1       -0.2720
     11  H         23.2970  -22.3840  -13.0930 H       1  UNL1        0.1690
     12  C         25.6010  -21.8680  -12.1510 C.3     1  UNL1        0.1330
     13  C         25.9540  -20.5270  -12.8620 C.3     1  UNL1        0.0210
     14  C         27.0840  -20.6610  -13.9070 C.3     1  UNL1        0.0070
     15  C         26.7490  -21.6730  -15.0220 C.3     1  UNL1        0.0600
     16  C         26.1660  -22.8770  -14.4080 C.ar    1  UNL1        0.0510
     17  N         26.0100  -24.1190  -14.9440 N.ar    1  UNL1       -0.2850
     18  C         25.6440  -22.9770  -13.1460 C.ar    1  UNL1        0.0890
     19  N         25.4640  -24.9560  -14.0410 N.ar    1  UNL1        0.0020
     20  H         26.2430  -24.4720  -15.8660 H       1  UNL1        0.1840
     21  N         25.2580  -24.2670  -12.9230 N.ar    1  UNL1       -0.1620
     22  S         19.1640  -23.4520   -9.0840 S.O2    1  UNL1        0.2630
     23  O         20.0770  -24.5370   -8.7960 O.2     1  UNL1       -0.2000
     24  O         17.7780  -23.7420   -9.3920 O.2     1  UNL1       -0.2000
     25  N         19.1240  -22.3830   -7.7830 N.pl3   1  UNL1       -0.2800
     26  H         19.9540  -21.8070   -7.6940 H       1  UNL1        0.1790
     27  C         18.3590  -22.6700   -6.6190 C.2     1  UNL1        0.0480
     28  C         17.4870  -23.7610   -6.6330 C.2     1  UNL1        0.0310
     29  C         16.7060  -24.0590   -5.5120 C.2     1  UNL1        0.0090
     30  C         16.7840  -23.2670   -4.3670 C.2     1  UNL1       -0.0610
     31  C         15.9580  -23.6020   -3.1550 C.3     1  UNL1        0.0480
     32  C         17.6680  -22.1840   -4.3530 C.2     1  UNL1        0.0150
     33  C         18.4480  -21.8580   -5.4790 C.2     1  UNL1       -0.0340
     34  C         19.3500  -20.6590   -5.4120 C.3     1  UNL1        0.0500
@<TRIPOS>BOND
     1    20    17    1
     2    15    16    1
     3    15    14    1
     4    17    16   ar
     5    17    19   ar
     6    16    18   ar
     7    19    21   ar
     8    14    13    1
     9    18    21   ar
    10    18    12    1
    11    11     8    1
    12    13    12    1
    13     4     5    2
    14     4     3    1
    15    12     9    1
    16     5     6    1
    17     8     3    1
    18     8     9   am
    19     3     2    2
    20     9    10    2
    21     6     7    1
    22     6     1    2
    23     2     1    1
    24     1    22    1
    25    24    22    2
    26    22    23    2
    27    22    25    1
    28    25    26    1
    29    25    27    1
    30    28    27    2
    31    28    29    1
    32    27    33    1
    33    29    30    2
    34    33    34    1
    35    33    32    2
    36    30    32    1
    37    30    31    1
