@<TRIPOS>MOLECULE
36471_out_ligand_01.pdbqt
 42 46 0 0 0
SMALL
GASTEIGER

@<TRIPOS>ATOM
      1  C         22.6250  -22.4030  -10.5200 C.2     1  UNL1        0.1760
      2  S         23.0390  -21.4160   -9.2320 S.2     1  UNL1       -0.0410
      3  N         23.4580  -23.1320  -11.3300 N.am    1  UNL1       -0.3330
      4  H         23.9600  -23.8500  -10.8200 H       1  UNL1        0.1680
      5  C         23.9320  -22.9010  -12.6400 C.2     1  UNL1        0.0340
      6  C         24.9200  -23.6650  -13.2650 C.2     1  UNL1        0.0310
      7  C         25.3450  -23.3560  -14.5630 C.2     1  UNL1        0.0270
      8  C         24.7960  -22.2590  -15.2300 C.2     1  UNL1        0.0750
      9  C         23.8180  -21.4780  -14.6140 C.2     1  UNL1        0.0270
     10  C         23.4010  -21.7920  -13.3180 C.2     1  UNL1        0.0310
     11  S         25.3030  -21.9060  -16.8950 S.O2    1  UNL1        0.2480
     12  O         25.6470  -23.1810  -17.4960 O.2     1  UNL1       -0.2050
     13  O         24.3190  -21.0510  -17.5240 O.2     1  UNL1       -0.2050
     14  N         26.7390  -21.0900  -16.7110 N.pl3   1  UNL1       -0.1480
     15  H         27.3820  -21.2380  -17.4770 H       1  UNL1        0.1490
     16  C         26.6640  -19.7590  -16.3160 C.cat   1  UNL1        0.2150
     17  N         26.7630  -19.4550  -15.0220 N.2     1  UNL1       -0.2300
     18  C         26.8240  -18.1420  -14.7380 C.2     1  UNL1        0.1210
     19  C         26.8290  -17.1570  -15.7000 C.2     1  UNL1        0.0390
     20  C         26.7790  -17.6010  -17.0010 C.2     1  UNL1        0.1210
     21  N         26.7180  -18.9020  -17.3410 N.2     1  UNL1       -0.2300
     22  N         21.2790  -22.5960  -10.7150 N.am    1  UNL1       -0.3330
     23  H         21.0030  -22.4240  -11.6770 H       1  UNL1        0.1680
     24  C         20.2600  -23.0570   -9.8580 C.2     1  UNL1        0.0340
     25  C         18.9530  -22.6390  -10.1480 C.2     1  UNL1        0.0310
     26  C         17.8790  -23.0510   -9.3550 C.2     1  UNL1        0.0270
     27  C         18.1130  -23.9070   -8.2780 C.2     1  UNL1        0.0800
     28  C         19.4040  -24.3530   -7.9900 C.2     1  UNL1        0.0270
     29  C         20.4730  -23.9330   -8.7890 C.2     1  UNL1        0.0310
     30  S         16.7340  -24.4270   -7.2730 S.O2    1  UNL1        0.2650
     31  O         17.3100  -25.2540   -6.2330 O.2     1  UNL1       -0.2000
     32  O         15.7200  -24.9510   -8.1650 O.2     1  UNL1       -0.2000
     33  N         16.1730  -22.9270   -6.6250 N.pl3   1  UNL1       -0.2710
     34  C         14.7510  -22.9190   -6.1750 C.3     1  UNL1        0.1420
     35  C         14.6330  -23.3410   -4.7200 C.3     1  UNL1        0.0260
     36  C         15.4030  -22.3770   -3.8310 C.3     1  UNL1        0.0420
     37  C         16.7630  -22.0380   -4.3790 C.2     1  UNL1       -0.0310
     38  C         17.6890  -21.4050   -3.5330 C.2     1  UNL1        0.0090
     39  C         17.0990  -22.2610   -5.7270 C.2     1  UNL1        0.0510
     40  C         18.9320  -20.9970   -4.0150 C.2     1  UNL1        0.0010
     41  C         19.2540  -21.1990   -5.3530 C.2     1  UNL1        0.0020
     42  C         18.3390  -21.8210   -6.2050 C.2     1  UNL1        0.0310
@<TRIPOS>BOND
     1    13    11    2
     2    12    11    2
     3    15    14    1
     4    21    20    2
     5    21    16    1
     6    20    19    1
     7    11    14    1
     8    11     8    1
     9    14    16    1
    10    16    17    2
    11    19    18    2
    12     8     9    2
    13     8     7    1
    14    17    18    1
    15     9    10    1
    16     7     6    2
    17    10     5    2
    18     6     5    1
    19     5     3    1
    20    23    22    1
    21     3     4    1
    22     3     1    1
    23    22     1    1
    24    22    24    1
    25     1     2    2
    26    25    24    2
    27    25    26    1
    28    24    29    1
    29    26    27    2
    30    29    28    2
    31    27    28    1
    32    27    30    1
    33    32    30    2
    34    30    33    1
    35    30    31    2
    36    33    34    1
    37    33    39    1
    38    42    39    1
    39    42    41    2
    40    34    35    1
    41    39    37    2
    42    41    40    1
    43    35    36    1
    44    37    36    1
    45    37    38    1
    46    40    38    2
