@<TRIPOS>MOLECULE
36473_out_ligand_01.pdbqt
 31 33 0 0 0
SMALL
GASTEIGER

@<TRIPOS>ATOM
      1  C         22.7290  -22.0180  -11.9570 C.2     1  UNL1        0.0490
      2  C         23.5010  -22.7110  -11.1080 C.2     1  UNL1        0.0920
      3  C         22.9300  -23.4010   -9.9420 C.2     1  UNL1        0.2490
      4  O         23.6870  -23.9010   -9.1110 O.2     1  UNL1       -0.2680
      5  N         21.5490  -23.4550   -9.8360 N.am    1  UNL1       -0.3050
      6  C         20.7070  -22.6340  -10.6500 C.2     1  UNL1        0.0490
      7  C         19.3270  -22.5220  -10.4150 C.2     1  UNL1        0.0300
      8  C         18.5370  -21.6600  -11.1800 C.2     1  UNL1        0.0020
      9  C         19.1160  -20.8880  -12.1790 C.2     1  UNL1        0.0010
     10  C         20.4840  -20.9900  -12.4270 C.2     1  UNL1        0.0150
     11  C         21.2880  -21.8770  -11.6910 C.2     1  UNL1        0.0070
     12  C         20.9870  -24.2880   -8.7700 C.3     1  UNL1        0.2350
     13  C         20.0990  -23.5040   -7.7960 C.2     1  UNL1        0.2400
     14  O         20.5120  -22.4620   -7.2830 O.2     1  UNL1       -0.2710
     15  N         18.8330  -24.0510   -7.6600 N.am    1  UNL1       -0.3260
     16  H         18.6180  -24.8380   -8.2660 H       1  UNL1        0.1690
     17  C         17.7850  -23.6120   -6.8270 C.2     1  UNL1        0.0350
     18  C         16.7820  -22.8480   -7.4250 C.2     1  UNL1        0.0300
     19  C         15.6940  -22.3900   -6.6790 C.2     1  UNL1        0.0090
     20  C         15.5920  -22.6760   -5.3110 C.2     1  UNL1       -0.0560
     21  C         14.4110  -22.1620   -4.5370 C.3     1  UNL1        0.0490
     22  C         16.6140  -23.4220   -4.6920 C.2     1  UNL1       -0.0540
     23  C         16.5770  -23.7260   -3.2190 C.3     1  UNL1        0.0490
     24  C         17.6900  -23.8970   -5.4650 C.2     1  UNL1        0.0370
     25  C         23.4630  -21.4750  -13.1370 C.2     1  UNL1        0.2520
     26  N         24.7280  -21.0180  -12.8510 N.am    1  UNL1       -0.3570
     27  H         25.0400  -20.9960  -11.8860 H       1  UNL1        0.1620
     28  O         22.9350  -21.3930  -14.2440 O.2     1  UNL1       -0.2680
     29  C         25.5310  -20.3310  -13.8420 C.3     1  UNL1        0.1220
     30  C         26.6750  -19.5370  -13.2140 C.3     1  UNL1        0.0150
     31  C         26.6310  -19.5560  -11.6920 C.3     1  UNL1        0.0060
@<TRIPOS>BOND
     1    28    25    2
     2    29    30    1
     3    29    26    1
     4    30    31    1
     5    25    26   am
     6    25     1    1
     7    26    27    1
     8    10     9    2
     9    10    11    1
    10     9     8    1
    11     1    11    1
    12     1     2    2
    13    11     6    2
    14     8     7    2
    15     2     3    1
    16     6     7    1
    17     6     5    1
    18     3     5   am
    19     3     4    2
    20     5    12    1
    21    12    13    1
    22    16    15    1
    23    13    15   am
    24    13    14    2
    25    15    17    1
    26    18    17    2
    27    18    19    1
    28    17    24    1
    29    19    20    2
    30    24    22    2
    31    20    22    1
    32    20    21    1
    33    22    23    1
