@<TRIPOS>MOLECULE
36485_out_ligand_01.pdbqt
 28 31 0 0 0
SMALL
GASTEIGER

@<TRIPOS>ATOM
      1  C         22.6580  -22.9120   -9.4440 C.2     1  UNL1        0.0570
      2  C         22.8030  -21.8310   -8.5690 C.2     1  UNL1        0.0320
      3  C         21.7960  -21.5230   -7.6480 C.2     1  UNL1        0.0190
      4  C         20.6370  -22.3080   -7.5950 C.2     1  UNL1        0.0320
      5  C         20.5110  -23.4170   -8.4390 C.2     1  UNL1        0.0190
      6  C         21.5190  -23.7150   -9.3580 C.2     1  UNL1        0.0320
      7  N         23.6750  -23.2300  -10.3500 N.2     1  UNL1       -0.2430
      8  C         23.6220  -22.7330  -11.5460 C.2     1  UNL1        0.1370
      9  C         24.6090  -22.9980  -12.5890 C.2     1  UNL1        0.0250
     10  C         22.5850  -21.7850  -12.1890 C.2     1  UNL1        0.2750
     11  C         25.7510  -23.7740  -12.5690 C.2     1  UNL1        0.0160
     12  C         24.2020  -22.2980  -13.7210 C.2     1  UNL1        0.0470
     13  C         26.4990  -23.8310  -13.7470 C.2     1  UNL1        0.0010
     14  C         26.0900  -23.1230  -14.8970 C.2     1  UNL1        0.0020
     15  C         24.9280  -22.3440  -14.8910 C.2     1  UNL1        0.0300
     16  N         23.0240  -21.5950  -13.4850 N.am    1  UNL1       -0.3210
     17  H         22.5360  -21.0140  -14.1480 H       1  UNL1        0.1690
     18  O         21.6030  -21.3020  -11.6720 O.2     1  UNL1       -0.2660
     19  C         19.5370  -22.0190   -6.6360 C.2     1  UNL1        0.2520
     20  O         19.6370  -21.0840   -5.8500 O.2     1  UNL1       -0.2680
     21  N         18.4530  -22.8700   -6.6810 N.am    1  UNL1       -0.3520
     22  H         18.4630  -23.6570   -7.3140 H       1  UNL1        0.1630
     23  C         17.2810  -22.6680   -5.8410 C.3     1  UNL1        0.0840
     24  C         15.9990  -22.7280   -6.6810 C.3     1  UNL1        0.0250
     25  C         14.7490  -22.5880   -5.8140 C.3     1  UNL1        0.0020
     26  C         14.7260  -23.6170   -4.6880 C.3     1  UNL1        0.0000
     27  C         15.9990  -23.5620   -3.8500 C.3     1  UNL1        0.0020
     28  C         17.2480  -23.7070   -4.7140 C.3     1  UNL1        0.0250
@<TRIPOS>BOND
     1    14    15    2
     2    14    13    1
     3    15    12    1
     4    17    16    1
     5    13    11    2
     6    12    16    1
     7    12     9    2
     8    16    10   am
     9     9    11    1
    10     9     8    1
    11    10    18    2
    12    10     8    1
    13     8     7    2
    14     7     1    1
    15     1     6    2
    16     1     2    1
    17     6     5    1
    18     2     3    2
    19     5     4    2
    20     3     4    1
    21     4    19    1
    22    22    21    1
    23    21    19   am
    24    21    23    1
    25    24    23    1
    26    24    25    1
    27    19    20    2
    28    23    28    1
    29    25    26    1
    30    28    27    1
    31    26    27    1
