@<TRIPOS>MOLECULE
36484_out_ligand_01.pdbqt
 32 35 0 0 0
SMALL
GASTEIGER

@<TRIPOS>ATOM
      1  C         17.6720  -21.8870  -10.6130 C.2     1  UNL1        0.0280
      2  C         18.5180  -22.9860  -10.8250 C.2     1  UNL1        0.0300
      3  C         19.7630  -22.8430  -11.4510 C.2     1  UNL1        0.0190
      4  C         20.2010  -21.5780  -11.8470 C.2     1  UNL1        0.0320
      5  C         19.3840  -20.4690  -11.6180 C.2     1  UNL1        0.0190
      6  C         18.1430  -20.6240  -10.9890 C.2     1  UNL1        0.0300
      7  N         16.4620  -22.0900   -9.9490 N.pl3   1  UNL1       -0.3900
      8  H         16.2140  -21.3210   -9.3310 H       1  UNL1        0.1590
      9  C         16.1340  -23.3940   -9.3700 C.3     1  UNL1        0.1270
     10  C         15.8800  -23.2820   -7.8710 C.3     1  UNL1        0.1030
     11  C         17.0510  -23.8720   -7.1210 C.2     1  UNL1        0.1610
     12  O         16.8860  -24.8410   -6.3800 O.2     1  UNL1       -0.2920
     13  C         18.4240  -23.3020   -7.2940 C.2     1  UNL1        0.0110
     14  C         18.7980  -22.0560   -6.7840 C.2     1  UNL1        0.0160
     15  C         20.0960  -21.5760   -6.9840 C.2     1  UNL1        0.0130
     16  C         21.0420  -22.3270   -7.6980 C.2     1  UNL1       -0.0260
     17  C         22.3480  -21.8550   -7.9040 C.2     1  UNL1        0.0120
     18  C         20.6700  -23.5850   -8.2210 C.2     1  UNL1       -0.0250
     19  C         23.2750  -22.6150   -8.6190 C.2     1  UNL1        0.0010
     20  C         22.9090  -23.8540   -9.1360 C.2     1  UNL1        0.0010
     21  C         21.6140  -24.3370   -8.9390 C.2     1  UNL1        0.0120
     22  C         19.3620  -24.0570   -8.0140 C.2     1  UNL1        0.0270
     23  C         21.5120  -21.3660  -12.5200 C.2     1  UNL1        0.2520
     24  O         21.5940  -20.6020  -13.4740 O.2     1  UNL1       -0.2680
     25  N         22.5890  -22.0440  -11.9840 N.am    1  UNL1       -0.3520
     26  H         22.4890  -22.4290  -11.0540 H       1  UNL1        0.1630
     27  C         23.9460  -21.8040  -12.4630 C.3     1  UNL1        0.0840
     28  C         24.7670  -21.0710  -11.3860 C.3     1  UNL1        0.0250
     29  C         26.2530  -21.3810  -11.4960 C.3     1  UNL1        0.0020
     30  C         26.5350  -22.8720  -11.3070 C.3     1  UNL1        0.0000
     31  C         25.3980  -23.7740  -11.7900 C.3     1  UNL1        0.0020
     32  C         24.5960  -23.1250  -12.9120 C.3     1  UNL1        0.0250
@<TRIPOS>BOND
     1    24    23    2
     2    32    27    1
     3    32    31    1
     4    23    25   am
     5    23     4    1
     6    27    25    1
     7    27    28    1
     8    25    26    1
     9     4     5    2
    10     4     3    1
    11    31    30    1
    12     5     6    1
    13    29    28    1
    14    29    30    1
    15     3     2    2
    16     6     1    2
    17     2     1    1
    18     1     7    1
    19     7     9    1
    20     7     8    1
    21     9    10    1
    22    20    21    2
    23    20    19    1
    24    21    18    1
    25    19    17    2
    26    18    22    1
    27    18    16    2
    28    22    13    2
    29    17    16    1
    30    10    11    1
    31    16    15    1
    32    13    11    1
    33    13    14    1
    34    11    12    2
    35    15    14    2
