@<TRIPOS>MOLECULE
36490_out_ligand_01.pdbqt
 34 37 0 0 0
SMALL
GASTEIGER

@<TRIPOS>ATOM
      1  N         20.4210  -23.6710   -9.3250 N.am    1  UNL1       -0.3050
      2  C         21.7250  -24.1010   -9.1370 C.2     1  UNL1        0.2490
      3  O         22.0190  -25.0810   -8.4550 O.2     1  UNL1       -0.2680
      4  C         22.8000  -23.3490   -9.8020 C.2     1  UNL1        0.0920
      5  C         22.5330  -22.3340  -10.6260 C.2     1  UNL1        0.0490
      6  C         21.1420  -21.9430  -10.9020 C.2     1  UNL1        0.0070
      7  C         20.8360  -20.9280  -11.8260 C.2     1  UNL1        0.0150
      8  C         19.5130  -20.5740  -12.0830 C.2     1  UNL1        0.0010
      9  C         18.4840  -21.2440  -11.4360 C.2     1  UNL1        0.0020
     10  C         18.7720  -22.2690  -10.5310 C.2     1  UNL1        0.0300
     11  C         20.0990  -22.6270  -10.2460 C.2     1  UNL1        0.0490
     12  C         19.3770  -24.4190   -8.6230 C.3     1  UNL1        0.2350
     13  C         18.7550  -23.5710   -7.5120 C.2     1  UNL1        0.2400
     14  O         19.3750  -22.6370   -6.9990 O.2     1  UNL1       -0.2710
     15  N         17.4680  -23.9780   -7.1990 N.am    1  UNL1       -0.3260
     16  H         17.1050  -24.7720   -7.7300 H       1  UNL1        0.1690
     17  C         16.6030  -23.4430   -6.2220 C.2     1  UNL1        0.0360
     18  C         16.9160  -23.7110   -4.8780 C.2     1  UNL1        0.0290
     19  C         16.1340  -23.1880   -3.8390 C.2     1  UNL1        0.0040
     20  C         15.0230  -22.4030   -4.1380 C.2     1  UNL1        0.0190
     21  C         14.6940  -22.1570   -5.4750 C.2     1  UNL1        0.0130
     22 BR         13.1770  -21.0980   -5.8820 Br      1  UNL1       -0.0510
     23  C         15.4800  -22.6660   -6.5160 C.2     1  UNL1        0.0480
     24  C         23.7340  -21.6750  -11.1970 C.2     1  UNL1        0.2530
     25  O         24.5280  -21.0670  -10.4890 O.2     1  UNL1       -0.2680
     26  N         23.8270  -21.7910  -12.5600 N.am    1  UNL1       -0.3530
     27  H         23.1560  -22.3660  -13.0570 H       1  UNL1        0.1630
     28  C         24.9930  -21.3460  -13.2840 C.3     1  UNL1        0.1610
     29  C         24.9360  -21.8190  -14.7170 C.2     1  UNL1       -0.0410
     30  C         24.9020  -23.1860  -15.0190 C.2     1  UNL1        0.0090
     31  C         24.8740  -23.6130  -16.3500 C.2     1  UNL1        0.0010
     32  C         24.8880  -22.6830  -17.3870 C.2     1  UNL1        0.0000
     33  C         24.9280  -21.3190  -17.0970 C.2     1  UNL1        0.0010
     34  C         24.9510  -20.8900  -15.7680 C.2     1  UNL1        0.0090
@<TRIPOS>BOND
     1    32    33    2
     2    32    31    1
     3    33    34    1
     4    31    30    2
     5    34    29    2
     6    30    29    1
     7    29    28    1
     8    28    26    1
     9    27    26    1
    10    26    24   am
    11     8     7    1
    12     8     9    2
    13     7     6    2
    14     9    10    1
    15    24     5    1
    16    24    25    2
    17     6     5    1
    18     6    11    1
    19     5     4    2
    20    10    11    2
    21    11     1    1
    22     4     2    1
    23     1     2   am
    24     1    12    1
    25     2     3    2
    26    12    13    1
    27    16    15    1
    28    13    15   am
    29    13    14    2
    30    15    17    1
    31    23    17    2
    32    23    21    1
    33    17    18    1
    34    22    21    1
    35    21    20    2
    36    18    19    2
    37    20    19    1
