@<TRIPOS>MOLECULE
36497_out_ligand_01.pdbqt
 28 31 0 0 0
SMALL
GASTEIGER

@<TRIPOS>ATOM
      1  N         20.1270  -22.4750   -9.3150 N.am    1  UNL1       -0.3230
      2  C         19.9140  -23.6710   -8.6540 C.2     1  UNL1        0.2570
      3  O         20.5190  -24.7240   -8.8040 O.2     1  UNL1       -0.2670
      4  H         19.5730  -21.6840   -9.0030 H       1  UNL1        0.1690
      5  C         21.0540  -22.2170  -10.3430 C.2     1  UNL1        0.0350
      6  C         22.4300  -22.4330  -10.2240 C.2     1  UNL1        0.0310
      7  C         23.2910  -22.1530  -11.2910 C.2     1  UNL1        0.0270
      8  C         22.7670  -21.6650  -12.4890 C.2     1  UNL1        0.0740
      9  C         21.3990  -21.4330  -12.6220 C.2     1  UNL1        0.0270
     10  C         20.5470  -21.7120  -11.5490 C.2     1  UNL1        0.0310
     11  S         23.8540  -21.3070  -13.8430 S.O2    1  UNL1        0.2390
     12  O         25.0470  -20.6820  -13.3210 O.2     1  UNL1       -0.2060
     13  O         23.8960  -22.4570  -14.7160 O.2     1  UNL1       -0.2060
     14  N         22.9780  -20.1320  -14.6740 N.3     1  UNL1       -0.2250
     15  H         22.9360  -19.2400  -14.1840 H       1  UNL1        0.1360
     16  H         22.0460  -20.5010  -14.8730 H       1  UNL1        0.1360
     17  C         18.8600  -23.6060   -7.6140 C.2     1  UNL1        0.0430
     18  C         17.8430  -24.5890   -7.6660 C.2     1  UNL1        0.0180
     19  C         16.8350  -24.6340   -6.6940 C.2     1  UNL1        0.0090
     20  C         16.8510  -23.6910   -5.6810 C.2     1  UNL1       -0.0460
     21  C         17.8330  -22.7310   -5.6580 C.2     1  UNL1       -0.0120
     22  C         15.8930  -23.5230   -4.5360 C.2     1  UNL1        0.0440
     23  C         17.6470  -21.8920   -4.5880 C.2     1  UNL1       -0.0460
     24  C         18.8640  -22.6150   -6.5950 C.2     1  UNL1       -0.0090
     25  C         18.5180  -20.8350   -4.3880 C.2     1  UNL1        0.0080
     26  C         16.4490  -22.2910   -3.7780 C.2     1  UNL1        0.0440
     27  C         19.5660  -20.6470   -5.3000 C.2     1  UNL1        0.0010
     28  C         19.7400  -21.5170   -6.3940 C.2     1  UNL1        0.0130
@<TRIPOS>BOND
     1    16    14    1
     2    13    11    2
     3    14    15    1
     4    14    11    1
     5    11    12    2
     6    11     8    1
     7     9     8    2
     8     9    10    1
     9     8     7    1
    10    10     5    2
    11     7     6    2
    12     5     6    1
    13     5     1    1
    14     1     4    1
    15     1     2   am
    16     3     2    2
    17     2    17    1
    18    18    17    2
    19    18    19    1
    20    17    24    1
    21    19    20    2
    22    24    28    1
    23    24    21    2
    24    28    27    2
    25    20    21    1
    26    20    22    1
    27    21    23    1
    28    27    25    1
    29    23    25    2
    30    23    26    1
    31    22    26    2
