@<TRIPOS>MOLECULE
36492_out_ligand_01.pdbqt
 28 30 0 0 0
SMALL
GASTEIGER

@<TRIPOS>ATOM
      1  C         19.3700  -22.2130  -10.6240 C.2     1  UNL1        0.0360
      2  C         18.6860  -21.3450  -11.4780 C.2     1  UNL1        0.0290
      3  C         17.3230  -21.0850  -11.2950 C.2     1  UNL1        0.0040
      4  C         16.6260  -21.6950  -10.2570 C.2     1  UNL1        0.0250
      5  C         17.3010  -22.5790   -9.4150 C.2     1  UNL1        0.0820
      6  C         18.6690  -22.8270   -9.5800 C.2     1  UNL1        0.0540
      7  N         20.7470  -22.5000  -10.7290 N.am    1  UNL1       -0.3230
      8  C         21.6160  -22.0810  -11.7230 C.2     1  UNL1        0.2560
      9  O         21.3240  -21.4660  -12.7400 O.2     1  UNL1       -0.2670
     10  H         21.1220  -23.1320  -10.0340 H       1  UNL1        0.1690
     11  C         23.0360  -22.4870  -11.5210 C.2     1  UNL1        0.0320
     12  C         23.4470  -22.8630  -10.2370 C.2     1  UNL1        0.0170
     13  C         24.7720  -23.2450  -10.0090 C.2     1  UNL1        0.0070
     14  C         25.6920  -23.2760  -11.0640 C.2     1  UNL1       -0.0620
     15  C         27.1210  -23.6610  -10.8110 C.3     1  UNL1        0.0480
     16  C         25.2750  -22.9040  -12.3480 C.2     1  UNL1        0.0070
     17  C         23.9510  -22.5200  -12.5800 C.2     1  UNL1        0.0170
     18  S         16.4300  -23.3640   -8.0780 S.O2    1  UNL1        0.2630
     19  O         15.7660  -24.5390   -8.5990 O.2     1  UNL1       -0.2000
     20  O         15.6870  -22.3310   -7.3840 O.2     1  UNL1       -0.2000
     21  N         17.6700  -23.8250   -7.0290 N.pl3   1  UNL1       -0.2810
     22  H         17.7150  -24.8340   -6.9030 H       1  UNL1        0.1790
     23  C         17.9860  -23.0020   -5.9140 C.2     1  UNL1        0.0420
     24  C         17.5440  -23.3800   -4.6450 C.2     1  UNL1        0.0300
     25  C         17.8130  -22.5650   -3.5450 C.2     1  UNL1        0.0020
     26  C         18.5220  -21.3760   -3.7120 C.2     1  UNL1        0.0000
     27  C         18.9660  -21.0020   -4.9790 C.2     1  UNL1        0.0020
     28  C         18.6970  -21.8140   -6.0820 C.2     1  UNL1        0.0300
@<TRIPOS>BOND
     1     9     8    2
     2    17    16    1
     3    17    11    2
     4    16    14    2
     5     8    11    1
     6     8     7   am
     7    11    12    1
     8     2     3    1
     9     2     1    2
    10     3     4    2
    11    14    15    1
    12    14    13    1
    13     7     1    1
    14     7    10    1
    15     1     6    1
    16     4     5    1
    17    12    13    2
    18     6     5    2
    19     5    18    1
    20    19    18    2
    21    18    20    2
    22    18    21    1
    23    21    22    1
    24    21    23    1
    25    28    23    2
    26    28    27    1
    27    23    24    1
    28    27    26    2
    29    24    25    2
    30    26    25    1
