@<TRIPOS>MOLECULE
364_out_ligand_01.pdbqt
 33 35 0 0 0
SMALL
GASTEIGER

@<TRIPOS>ATOM
      1  C         23.8940  -22.2790  -11.4180 C.2     1  UNL1        0.0360
      2  C         24.8370  -21.4140  -10.8590 C.2     1  UNL1        0.0290
      3  C         26.1850  -21.5000  -11.2230 C.2     1  UNL1        0.0040
      4  C         26.6030  -22.4550  -12.1470 C.2     1  UNL1        0.0230
      5  C         25.6710  -23.3270  -12.7100 C.2     1  UNL1        0.0460
      6  C         26.0910  -24.3150  -13.6600 C.1     1  UNL1        0.0990
      7  N         26.4180  -25.1220  -14.4260 N.1     1  UNL1       -0.1910
      8  C         24.3210  -23.2390  -12.3440 C.2     1  UNL1        0.0520
      9  N         22.5180  -22.2580  -11.0970 N.am    1  UNL1       -0.3230
     10  C         21.5000  -21.6720  -11.8270 C.2     1  UNL1        0.2560
     11  O         21.5920  -21.1150  -12.9130 O.2     1  UNL1       -0.2670
     12  H         22.2480  -22.7910  -10.2800 H       1  UNL1        0.1690
     13  C         20.1490  -21.7770  -11.2110 C.2     1  UNL1        0.0340
     14  C         18.9890  -21.4830  -11.9320 C.2     1  UNL1        0.0200
     15  C         17.7350  -21.6120  -11.3240 C.2     1  UNL1        0.0390
     16  C         17.6200  -22.0390   -9.9930 C.2     1  UNL1        0.0910
     17  C         18.7880  -22.3570   -9.2860 C.2     1  UNL1        0.1140
     18  C         20.0490  -22.2220   -9.8910 C.2     1  UNL1        0.0450
     19  O         16.4210  -22.2210   -9.3710 O.2     1  UNL1       -0.3540
     20  C         15.6340  -23.3470   -9.7400 C.3     1  UNL1        0.2100
     21  S         18.7520  -22.8810   -7.5790 S.O2    1  UNL1        0.2660
     22  O         18.2540  -24.2430   -7.5690 O.2     1  UNL1       -0.2000
     23  O         20.0140  -22.5710   -6.9430 O.2     1  UNL1       -0.2000
     24  N         17.5140  -21.9480   -6.8960 N.pl3   1  UNL1       -0.2790
     25  H         17.7990  -20.9690   -6.8290 H       1  UNL1        0.1790
     26  C         16.8030  -22.4680   -5.7670 C.2     1  UNL1        0.0660
     27  C         15.6610  -23.2470   -5.9690 C.2     1  UNL1        0.0550
     28  C         14.9890  -23.7870   -4.8720 C.2     1  UNL1        0.0360
     29 CL         13.5940  -24.7630   -5.1190 Cl      1  UNL1       -0.0840
     30  C         15.4410  -23.5500   -3.5740 C.2     1  UNL1        0.0260
     31  C         16.5780  -22.7660   -3.3660 C.2     1  UNL1        0.0280
     32  C         17.2580  -22.2290   -4.4600 C.2     1  UNL1        0.0610
     33 CL         18.6660  -21.2720   -4.1690 Cl      1  UNL1       -0.0820
@<TRIPOS>BOND
     1     7     6    3
     2     6     5    1
     3    11    10    2
     4     5     8    1
     5     5     4    2
     6     8     1    2
     7     4     3    1
     8    14    15    1
     9    14    13    2
    10    10    13    1
    11    10     9   am
    12     1     9    1
    13     1     2    1
    14    15    16    2
    15     3     2    2
    16    13    18    1
    17     9    12    1
    18    16    19    1
    19    16    17    1
    20    18    17    2
    21    20    19    1
    22    17    21    1
    23    21    22    2
    24    21    23    2
    25    21    24    1
    26    24    25    1
    27    24    26    1
    28    27    26    2
    29    27    28    1
    30    26    32    1
    31    29    28    1
    32    28    30    2
    33    32    33    1
    34    32    31    2
    35    30    31    1
