@<TRIPOS>MOLECULE
36503_out_ligand_01.pdbqt
 31 34 0 0 0
SMALL
GASTEIGER

@<TRIPOS>ATOM
      1  C         20.7290  -22.3980   -7.5000 C.2     1  UNL1        0.0320
      2  C         21.7510  -21.4720   -7.7100 C.2     1  UNL1        0.0190
      3  C         22.8740  -21.8280   -8.4650 C.2     1  UNL1        0.0300
      4  C         22.9860  -23.0940   -9.0600 C.2     1  UNL1        0.0280
      5  C         21.9590  -24.0160   -8.8230 C.2     1  UNL1        0.0300
      6  C         20.8320  -23.6720   -8.0640 C.2     1  UNL1        0.0190
      7  N         24.1560  -23.4060   -9.7480 N.pl3   1  UNL1       -0.3900
      8  H         24.9660  -23.5050   -9.1320 H       1  UNL1        0.1590
      9  C         24.5210  -22.7500  -11.0020 C.3     1  UNL1        0.1270
     10  C         23.5490  -23.0630  -12.1340 C.3     1  UNL1        0.1050
     11  C         22.8010  -21.8300  -12.6160 C.2     1  UNL1        0.1840
     12  O         23.3320  -20.9930  -13.3480 O.2     1  UNL1       -0.2900
     13  C         21.4320  -21.7000  -12.1660 C.2     1  UNL1        0.1220
     14  C         20.5210  -20.6730  -12.3350 C.2     1  UNL1        0.0550
     15  C         19.3220  -21.0760  -11.6920 C.2     1  UNL1        0.0010
     16  C         18.0470  -20.5160  -11.5000 C.2     1  UNL1        0.0140
     17  C         19.5820  -22.3350  -11.1660 C.2     1  UNL1        0.0860
     18  C         17.0920  -21.2520  -10.7850 C.2     1  UNL1        0.0010
     19  C         17.3930  -22.5150  -10.2670 C.2     1  UNL1        0.0030
     20  C         18.6550  -23.0880  -10.4480 C.2     1  UNL1        0.0380
     21  O         20.8580  -22.7140  -11.4500 O.2     1  UNL1       -0.3060
     22  C         19.5510  -21.9900   -6.6870 C.2     1  UNL1        0.2520
     23  O         19.6150  -21.0060   -5.9590 O.2     1  UNL1       -0.2680
     24  N         18.4360  -22.7990   -6.7890 N.am    1  UNL1       -0.3520
     25  H         18.5580  -23.7210   -7.1890 H       1  UNL1        0.1630
     26  C         17.2600  -22.5750   -5.9620 C.3     1  UNL1        0.0840
     27  C         17.1760  -23.6120   -4.8330 C.3     1  UNL1        0.0250
     28  C         15.9120  -23.4300   -3.9980 C.3     1  UNL1        0.0020
     29  C         14.6560  -23.4500   -4.8630 C.3     1  UNL1        0.0000
     30  C         14.7330  -22.4250   -5.9890 C.3     1  UNL1        0.0020
     31  C         15.9950  -22.6040   -6.8270 C.3     1  UNL1        0.0250
@<TRIPOS>BOND
     1    12    11    2
     2    11    13    1
     3    11    10    1
     4    14    13    2
     5    14    15    1
     6    13    21    1
     7    10     9    1
     8    15    16    2
     9    15    17    1
    10    16    18    1
    11    21    17    1
    12    17    20    2
    13     9     7    1
    14    18    19    2
    15    20    19    1
    16     7     8    1
    17     7     4    1
    18     4     5    2
    19     4     3    1
    20     5     6    1
    21     3     2    2
    22     6     1    2
    23     2     1    1
    24     1    22    1
    25    25    24    1
    26    31    30    1
    27    31    26    1
    28    24    22   am
    29    24    26    1
    30    22    23    2
    31    30    29    1
    32    26    27    1
    33    29    28    1
    34    27    28    1
