@<TRIPOS>MOLECULE
36509_out_ligand_01.pdbqt
 29 32 0 0 0
SMALL
GASTEIGER

@<TRIPOS>ATOM
      1  N         19.3290  -22.3340   -9.2130 N.am    1  UNL1       -0.3220
      2  C         19.1880  -23.5070   -8.4930 C.2     1  UNL1        0.2570
      3  O         19.9070  -24.4970   -8.5510 O.2     1  UNL1       -0.2670
      4  H         18.7720  -21.5520   -8.8930 H       1  UNL1        0.1690
      5  C         20.2400  -22.0810  -10.2620 C.2     1  UNL1        0.0420
      6  C         21.6100  -22.3280  -10.1250 C.2     1  UNL1        0.0540
      7  C         22.4860  -22.0430  -11.1760 C.2     1  UNL1        0.0760
      8  C         22.0150  -21.5310  -12.3820 C.2     1  UNL1        0.0250
      9  C         20.6490  -21.3100  -12.5370 C.2     1  UNL1        0.0100
     10  C         19.7500  -21.5830  -11.4900 C.2     1  UNL1       -0.0350
     11  C         18.2850  -21.3170  -11.7220 C.3     1  UNL1        0.0500
     12  S         24.2180  -22.3460  -10.9570 S.O2    1  UNL1        0.2390
     13  O         24.6980  -23.0450  -12.1230 O.2     1  UNL1       -0.2060
     14  O         24.8340  -21.1320  -10.4680 O.2     1  UNL1       -0.2060
     15  N         24.2460  -23.4030   -9.6490 N.3     1  UNL1       -0.2250
     16  H         23.4800  -24.0720   -9.7400 H       1  UNL1        0.1360
     17  H         25.1470  -23.8570   -9.5000 H       1  UNL1        0.1360
     18  C         18.0970  -23.4770   -7.4870 C.2     1  UNL1        0.0430
     19  C         16.9800  -24.3110   -7.7240 C.2     1  UNL1        0.0180
     20  C         15.9280  -24.3870   -6.8010 C.2     1  UNL1        0.0090
     21  C         16.0030  -23.6230   -5.6500 C.2     1  UNL1       -0.0460
     22  C         17.0840  -22.8010   -5.4450 C.2     1  UNL1       -0.0120
     23  C         15.0170  -23.5230   -4.5220 C.2     1  UNL1        0.0440
     24  C         16.9430  -22.1230   -4.2610 C.2     1  UNL1       -0.0460
     25  C         18.1650  -22.6630   -6.3220 C.2     1  UNL1       -0.0090
     26  C         17.9150  -21.2190   -3.8690 C.2     1  UNL1        0.0080
     27  C         15.6700  -22.4990   -3.5600 C.2     1  UNL1        0.0440
     28  C         19.0180  -21.0140   -4.7080 C.2     1  UNL1        0.0010
     29  C         19.1460  -21.7190   -5.9220 C.2     1  UNL1        0.0130
@<TRIPOS>BOND
     1     9     8    2
     2     9    10    1
     3     8     7    1
     4    13    12    2
     5    11    10    1
     6    10     5    2
     7     7    12    1
     8     7     6    2
     9    12    14    2
    10    12    15    1
    11     5     6    1
    12     5     1    1
    13    16    15    1
    14    15    17    1
    15     1     4    1
    16     1     2   am
    17     3     2    2
    18     2    18    1
    19    19    18    2
    20    19    20    1
    21    18    25    1
    22    20    21    2
    23    25    29    1
    24    25    22    2
    25    29    28    2
    26    21    22    1
    27    21    23    1
    28    22    24    1
    29    28    26    1
    30    23    27    2
    31    24    26    2
    32    24    27    1
