@<TRIPOS>MOLECULE
36524_out_ligand_01.pdbqt
 31 34 0 0 0
SMALL
GASTEIGER

@<TRIPOS>ATOM
      1  C         19.6840  -21.9330  -10.9830 C.2     1  UNL1        0.0380
      2  C         18.8390  -21.1820  -11.8140 C.2     1  UNL1        0.0300
      3  C         17.4900  -21.0110  -11.5020 C.2     1  UNL1        0.0030
      4  C         16.9540  -21.5890  -10.3530 C.2     1  UNL1        0.0100
      5  C         17.7560  -22.3490   -9.4890 C.2     1  UNL1       -0.0190
      6  C         19.1160  -22.5110   -9.8290 C.2     1  UNL1        0.0400
      7  N         21.0730  -22.1070  -11.2940 N.pl3   1  UNL1       -0.3310
      8  C         21.6170  -21.6410  -12.5030 C.3     1  UNL1        0.1170
      9  C         22.9090  -21.7400  -12.8880 C.2     1  UNL1        0.0860
     10  C         23.8080  -22.4070  -11.9170 C.2     1  UNL1        0.1120
     11  N         25.0860  -22.6610  -11.9700 N.pl3   1  UNL1       -0.1700
     12  C         23.2320  -22.9000  -10.6570 C.2     1  UNL1        0.0810
     13  N         25.4000  -23.3080  -10.7800 N.am    1  UNL1       -0.2420
     14  C         24.3340  -23.5000   -9.9110 C.2     1  UNL1        0.2750
     15  H         26.3510  -23.6050  -10.5940 H       1  UNL1        0.1920
     16  O         24.2980  -24.0240   -8.8180 O.2     1  UNL1       -0.2660
     17  C         21.9350  -22.7390  -10.3990 C.2     1  UNL1        0.1160
     18  C         23.4020  -21.2150  -14.1810 C.2     1  UNL1        0.2960
     19  O         23.3250  -21.8120  -15.2430 O.2     1  UNL1       -0.2590
     20  O         23.9530  -19.9800  -14.0280 O.3     1  UNL1       -0.3220
     21  C         25.3250  -19.8980  -14.4210 C.3     1  UNL1        0.2130
     22  C         17.2080  -23.0020   -8.2230 C.3     1  UNL1        0.1390
     23  C         16.0160  -23.9190   -8.5030 C.3     1  UNL1        0.0540
     24  N         16.8590  -22.0450   -7.1890 N.am    1  UNL1       -0.3210
     25  C         17.5930  -22.2030   -6.0430 C.2     1  UNL1        0.3240
     26  H         16.1060  -21.3730   -7.2390 H       1  UNL1        0.1650
     27  O         17.4500  -21.5490   -5.0270 O.2     1  UNL1       -0.2470
     28  N         18.4740  -23.2090   -6.2280 N.am    1  UNL1       -0.2770
     29  C         18.3030  -23.7820   -7.4490 C.2     1  UNL1        0.2580
     30  H         19.1030  -23.5440   -5.5180 H       1  UNL1        0.1730
     31  O         18.9120  -24.7670   -7.8430 O.2     1  UNL1       -0.2700
@<TRIPOS>BOND
     1    19    18    2
     2    21    20    1
     3    18    20    1
     4    18     9    1
     5     9     8    1
     6     9    10    2
     7     8     7    1
     8    11    10    1
     9    11    13    1
    10    10    12    1
    11     2     3    1
    12     2     1    2
    13     3     4    2
    14     7     1    1
    15     7    17    1
    16     1     6    1
    17    13    15    1
    18    13    14   am
    19    12    17    2
    20    12    14    1
    21     4     5    1
    22    14    16    2
    23     6     5    2
    24     5    22    1
    25    23    22    1
    26    22    29    1
    27    22    24    1
    28    31    29    2
    29    29    28   am
    30    26    24    1
    31    24    25   am
    32    28    25   am
    33    28    30    1
    34    25    27    2
