@<TRIPOS>MOLECULE
36537_out_ligand_01.pdbqt
 31 34 0 0 0
SMALL
GASTEIGER

@<TRIPOS>ATOM
      1  C         19.4480  -21.9610  -10.8860 C.2     1  UNL1        0.0390
      2  C         18.6350  -21.1880  -11.7350 C.2     1  UNL1        0.0300
      3  C         17.2700  -21.0150  -11.4820 C.2     1  UNL1        0.0030
      4  C         16.6850  -21.6190  -10.3710 C.2     1  UNL1        0.0170
      5  C         17.4660  -22.4060   -9.5200 C.2     1  UNL1        0.0340
      6  C         18.8380  -22.5630   -9.7710 C.2     1  UNL1        0.0470
      7  N         20.8480  -22.1240  -11.1460 N.pl3   1  UNL1       -0.3310
      8  C         21.4280  -21.6770  -12.3440 C.3     1  UNL1        0.1170
      9  C         22.7290  -21.7920  -12.6900 C.2     1  UNL1        0.0860
     10  C         23.6000  -22.4540  -11.6970 C.2     1  UNL1        0.1120
     11  N         24.8770  -22.7190  -11.7120 N.pl3   1  UNL1       -0.1700
     12  C         22.9880  -22.9190  -10.4410 C.2     1  UNL1        0.0810
     13  N         25.1520  -23.3570  -10.5060 N.am    1  UNL1       -0.2420
     14  C         24.0610  -23.5270   -9.6630 C.2     1  UNL1        0.2750
     15  H         26.0930  -23.6660  -10.2910 H       1  UNL1        0.1920
     16  O         23.9940  -24.0360   -8.5640 O.2     1  UNL1       -0.2660
     17  C         21.6860  -22.7450  -10.2170 C.2     1  UNL1        0.1160
     18  C         23.1600  -21.2490  -13.9920 C.2     1  UNL1        0.2960
     19  O         22.7540  -20.1890  -14.4520 O.2     1  UNL1       -0.2590
     20  O         24.0410  -22.0740  -14.6010 O.3     1  UNL1       -0.3220
     21  C         24.8800  -21.4370  -15.5660 C.3     1  UNL1        0.2130
     22  C         16.8900  -23.0600   -8.3130 C.2     1  UNL1        0.2560
     23  O         16.1590  -24.0300   -8.4680 O.2     1  UNL1       -0.2670
     24  N         17.2200  -22.4640   -7.1100 N.am    1  UNL1       -0.3220
     25  H         17.7300  -21.5920   -7.1460 H       1  UNL1        0.1690
     26  C         16.8360  -22.9020   -5.8240 C.2     1  UNL1        0.0520
     27  C         15.6160  -22.4410   -5.3200 C.2     1  UNL1        0.0320
     28  C         15.1930  -22.8360   -4.0510 C.2     1  UNL1        0.0210
     29  C         16.0060  -23.6830   -3.3200 C.2     1  UNL1        0.1160
     30  N         17.1900  -24.1470   -3.7680 N.2     1  UNL1       -0.2710
     31  C         17.5790  -23.7490   -5.0070 C.2     1  UNL1        0.1450
@<TRIPOS>BOND
     1    21    20    1
     2    20    18    1
     3    19    18    2
     4    18     9    1
     5     9     8    1
     6     9    10    2
     7     8     7    1
     8     2     3    1
     9     2     1    2
    10    11    10    1
    11    11    13    1
    12    10    12    1
    13     3     4    2
    14     7     1    1
    15     7    17    1
    16     1     6    1
    17    13    15    1
    18    13    14   am
    19    12    17    2
    20    12    14    1
    21     4     5    1
    22     6     5    2
    23    14    16    2
    24     5    22    1
    25    23    22    2
    26    22    24   am
    27    25    24    1
    28    24    26    1
    29    26    27    2
    30    26    31    1
    31    27    28    1
    32    31    30    2
    33    28    29    2
    34    30    29    1
