@<TRIPOS>MOLECULE
36545_out_ligand_01.pdbqt
 29 31 0 0 0
SMALL
GASTEIGER

@<TRIPOS>ATOM
      1  C         20.5770  -24.2880   -8.7030 C.2     1  UNL1        0.2540
      2  O         20.7550  -25.4640   -8.9950 O.2     1  UNL1       -0.2680
      3  N         21.5730  -23.3410   -8.6350 N.am    1  UNL1       -0.3530
      4  H         21.3080  -22.3680   -8.5780 H       1  UNL1        0.1630
      5  C         22.9200  -23.6420   -9.0570 C.3     1  UNL1        0.1610
      6  C         23.2120  -23.0180  -10.4000 C.2     1  UNL1       -0.0400
      7  C         22.1650  -22.4860  -11.1700 C.2     1  UNL1        0.0100
      8  C         22.4270  -21.8710  -12.3940 C.2     1  UNL1        0.0250
      9  C         23.7430  -21.7910  -12.8550 C.2     1  UNL1        0.0740
     10  C         24.7980  -22.3010  -12.0960 C.2     1  UNL1        0.0250
     11  C         24.5300  -22.9120  -10.8690 C.2     1  UNL1        0.0100
     12  S         24.0680  -20.9990  -14.4070 S.O2    1  UNL1        0.2390
     13  O         24.0110  -21.9940  -15.4530 O.2     1  UNL1       -0.2060
     14  O         25.1930  -20.1090  -14.2380 O.2     1  UNL1       -0.2060
     15  N         22.6830  -20.0600  -14.6040 N.3     1  UNL1       -0.2250
     16  H         21.9350  -20.5440  -15.0990 H       1  UNL1        0.1360
     17  H         22.9410  -19.1840  -15.0600 H       1  UNL1        0.1360
     18  C         19.2170  -23.7400   -8.4440 C.2     1  UNL1        0.0580
     19  C         18.6340  -24.0800   -7.2840 C.2     1  UNL1        0.1110
     20  N         17.3670  -23.6510   -6.9310 N.am    1  UNL1       -0.3270
     21  C         16.8200  -24.0860   -5.6530 C.3     1  UNL1        0.1590
     22  C         16.5860  -22.8460   -7.7670 C.2     1  UNL1        0.2580
     23  C         17.1910  -22.4620   -9.0720 C.2     1  UNL1        0.0430
     24  O         15.4590  -22.4530   -7.4800 O.2     1  UNL1       -0.2670
     25  C         16.4630  -21.6500   -9.9560 C.2     1  UNL1        0.0180
     26  C         18.4800  -22.9070   -9.4040 C.2     1  UNL1       -0.0030
     27  C         17.0200  -21.2770  -11.1770 C.2     1  UNL1        0.0010
     28  C         18.2990  -21.7110  -11.5180 C.2     1  UNL1        0.0010
     29  C         19.0250  -22.5200  -10.6380 C.2     1  UNL1        0.0130
@<TRIPOS>BOND
     1    13    12    2
     2    16    15    1
     3    17    15    1
     4    15    12    1
     5    12    14    2
     6    12     9    1
     7     9     8    2
     8     9    10    1
     9     8     7    1
    10    10    11    2
    11    28    27    2
    12    28    29    1
    13    27    25    1
    14     7     6    2
    15    11     6    1
    16    29    26    2
    17     6     5    1
    18    25    23    2
    19    26    23    1
    20    26    18    1
    21    23    22    1
    22     5     3    1
    23     2     1    2
    24     1     3   am
    25     1    18    1
    26     3     4    1
    27    18    19    2
    28    22    24    2
    29    22    20   am
    30    19    20    1
    31    20    21    1
