@<TRIPOS>MOLECULE
36557_out_ligand_01.pdbqt
 31 34 0 0 0
SMALL
GASTEIGER

@<TRIPOS>ATOM
      1  N         21.5250  -23.3080   -8.7010 N.am    1  UNL1       -0.3530
      2  C         20.5440  -24.2690   -8.6330 C.2     1  UNL1        0.2540
      3  O         20.7360  -25.4680   -8.7830 O.2     1  UNL1       -0.2680
      4  H         21.2470  -22.3360   -8.7530 H       1  UNL1        0.1630
      5  C         19.1800  -23.7160   -8.4110 C.2     1  UNL1        0.0590
      6  C         18.5790  -24.0270   -7.2530 C.2     1  UNL1        0.1120
      7  N         17.3040  -23.5970   -6.9340 N.am    1  UNL1       -0.3180
      8  C         16.5610  -22.7590   -7.7770 C.2     1  UNL1        0.2590
      9  O         15.4590  -22.2960   -7.4880 O.2     1  UNL1       -0.2670
     10  C         17.1780  -22.4260   -9.0910 C.2     1  UNL1        0.0430
     11  C         16.4680  -21.6310  -10.0020 C.2     1  UNL1        0.0180
     12  C         18.4600  -22.9060   -9.4030 C.2     1  UNL1       -0.0030
     13  C         17.0360  -21.3060  -11.2320 C.2     1  UNL1        0.0010
     14  C         18.3070  -21.7730  -11.5530 C.2     1  UNL1        0.0010
     15  C         19.0160  -22.5670  -10.6450 C.2     1  UNL1        0.0130
     16  C         16.7710  -23.9600   -5.6400 C.3     1  UNL1        0.0920
     17  C         17.6620  -24.0430   -4.4240 C.3     1  UNL1        0.0280
     18  C         16.6240  -22.9680   -4.5110 C.3     1  UNL1        0.0280
     19  C         22.8700  -23.6380   -9.1090 C.3     1  UNL1        0.1610
     20  C         23.1880  -23.0240  -10.4500 C.2     1  UNL1       -0.0400
     21  C         22.1590  -22.4840  -11.2390 C.2     1  UNL1        0.0100
     22  C         22.4470  -21.8780  -12.4620 C.2     1  UNL1        0.0250
     23  C         23.7700  -21.8150  -12.9030 C.2     1  UNL1        0.0740
     24  C         24.8090  -22.3330  -12.1240 C.2     1  UNL1        0.0250
     25  C         24.5140  -22.9360  -10.8990 C.2     1  UNL1        0.0100
     26  S         24.1290  -21.0340  -14.4530 S.O2    1  UNL1        0.2390
     27  O         24.0650  -22.0300  -15.4970 O.2     1  UNL1       -0.2060
     28  O         25.2690  -20.1660  -14.2730 O.2     1  UNL1       -0.2060
     29  N         22.7650  -20.0700  -14.6680 N.3     1  UNL1       -0.2250
     30  H         22.0400  -20.6220  -15.1300 H       1  UNL1        0.1360
     31  H         22.4300  -19.6460  -13.8040 H       1  UNL1        0.1360
@<TRIPOS>BOND
     1    27    26    2
     2    30    29    1
     3    29    26    1
     4    29    31    1
     5    26    28    2
     6    26    23    1
     7    23    22    2
     8    23    24    1
     9    22    21    1
    10    24    25    2
    11    14    13    2
    12    14    15    1
    13    21    20    2
    14    13    11    1
    15    25    20    1
    16    15    12    2
    17    20    19    1
    18    11    10    2
    19    12    10    1
    20    12     5    1
    21    19     1    1
    22    10     8    1
    23     3     2    2
    24     4     1    1
    25     1     2   am
    26     2     5    1
    27     5     6    2
    28     8     9    2
    29     8     7   am
    30     6     7    1
    31     7    16    1
    32    16    18    1
    33    16    17    1
    34    18    17    1
