@<TRIPOS>MOLECULE
3656_out_ligand_01.pdbqt
 32 35 0 0 0
SMALL
GASTEIGER

@<TRIPOS>ATOM
      1  C         19.9600  -22.2000   -9.9180 C.2     1  UNL1        0.0350
      2  C         19.3070  -21.4280  -10.8870 C.2     1  UNL1        0.0290
      3  C         19.9360  -21.1190  -12.0960 C.2     1  UNL1        0.0030
      4  C         21.2250  -21.5810  -12.3470 C.2     1  UNL1        0.0090
      5  C         21.8960  -22.3590  -11.3950 C.2     1  UNL1       -0.0380
      6  C         21.2560  -22.6520  -10.1800 C.2     1  UNL1        0.0380
      7  C         23.2820  -22.8850  -11.6730 C.3     1  UNL1        0.1610
      8  N         23.8360  -22.2630  -12.8600 N.am    1  UNL1       -0.3530
      9  C         24.9320  -21.4330  -12.7950 C.2     1  UNL1        0.2510
     10  O         25.5620  -21.2120  -11.7670 O.2     1  UNL1       -0.2680
     11  H         23.2410  -22.2500  -13.6750 H       1  UNL1        0.1630
     12  C         25.3190  -20.7460  -14.0580 C.2     1  UNL1        0.0320
     13  C         25.1160  -21.4240  -15.2650 C.2     1  UNL1        0.0180
     14  C         25.4690  -20.8270  -16.4790 C.2     1  UNL1        0.0130
     15  C         26.0240  -19.5390  -16.5050 C.2     1  UNL1       -0.0230
     16  C         26.3910  -18.9170  -17.7040 C.2     1  UNL1        0.0310
     17  C         26.2130  -18.8470  -15.2910 C.2     1  UNL1       -0.0070
     18  C         26.9270  -17.6400  -17.6570 C.2     1  UNL1        0.1170
     19  N         27.1200  -16.9480  -16.5170 N.2     1  UNL1       -0.2720
     20  C         26.7580  -17.5630  -15.3670 C.2     1  UNL1        0.1280
     21  C         25.8550  -19.4520  -14.0730 C.2     1  UNL1        0.0300
     22  N         19.2560  -22.4680   -8.7240 N.am    1  UNL1       -0.3230
     23  C         19.6880  -22.2480   -7.4270 C.2     1  UNL1        0.2560
     24  O         20.7970  -21.8560   -7.0800 O.2     1  UNL1       -0.2670
     25  H         18.3640  -22.9290   -8.8380 H       1  UNL1        0.1690
     26  C         18.6910  -22.5630   -6.3670 C.2     1  UNL1        0.0320
     27  C         17.9640  -23.7540   -6.4730 C.2     1  UNL1        0.0170
     28  C         17.0300  -24.1000   -5.4920 C.2     1  UNL1        0.0070
     29  C         16.8260  -23.2700   -4.3850 C.2     1  UNL1       -0.0620
     30  C         15.8210  -23.6540   -3.3390 C.3     1  UNL1        0.0480
     31  C         17.5600  -22.0810   -4.2800 C.2     1  UNL1        0.0070
     32  C         18.4930  -21.7320   -5.2580 C.2     1  UNL1        0.0170
@<TRIPOS>BOND
     1    16    18    2
     2    16    15    1
     3    18    19    1
     4    19    20    2
     5    15    14    2
     6    15    17    1
     7    14    13    1
     8    20    17    1
     9    17    21    2
    10    13    12    2
    11    21    12    1
    12    12     9    1
    13    11     8    1
    14     8     9   am
    15     8     7    1
    16     9    10    2
    17     4     3    2
    18     4     5    1
    19     3     2    1
    20     7     5    1
    21     5     6    2
    22     2     1    2
    23     6     1    1
    24     1    22    1
    25    25    22    1
    26    22    23   am
    27    23    24    2
    28    23    26    1
    29    27    26    2
    30    27    28    1
    31    26    32    1
    32    28    29    2
    33    32    31    2
    34    29    31    1
    35    29    30    1
