@<TRIPOS>MOLECULE
36661_out_ligand_01.pdbqt
 32 34 0 0 0
SMALL
GASTEIGER

@<TRIPOS>ATOM
      1  C         20.5680  -24.2800   -8.7090 C.2     1  UNL1        0.2540
      2  O         20.7480  -25.4570   -8.9920 O.2     1  UNL1       -0.2680
      3  N         21.5620  -23.3320   -8.6380 N.am    1  UNL1       -0.3530
      4  H         21.2940  -22.3580   -8.5940 H       1  UNL1        0.1630
      5  C         19.2080  -23.7330   -8.4610 C.2     1  UNL1        0.0580
      6  C         18.6200  -24.0620   -7.3010 C.2     1  UNL1        0.1120
      7  N         17.3490  -23.6320   -6.9590 N.am    1  UNL1       -0.3210
      8  C         16.5880  -22.8040   -7.7930 C.2     1  UNL1        0.2580
      9  C         17.1930  -22.4420   -9.1040 C.2     1  UNL1        0.0430
     10  O         15.4800  -22.3720   -7.4880 O.2     1  UNL1       -0.2670
     11  C         16.4720  -21.6340   -9.9950 C.2     1  UNL1        0.0180
     12  C         18.4770  -22.9070   -9.4330 C.2     1  UNL1       -0.0030
     13  C         17.0300  -21.2840  -11.2220 C.2     1  UNL1        0.0010
     14  C         18.3020  -21.7380  -11.5610 C.2     1  UNL1        0.0010
     15  C         19.0220  -22.5430  -10.6730 C.2     1  UNL1        0.0130
     16  C         16.7810  -24.0200   -5.6650 C.3     1  UNL1        0.1580
     17  C         17.3760  -23.2220   -4.5010 C.3     1  UNL1        0.1870
     18  O         16.5220  -22.1460   -4.1060 O.3     1  UNL1       -0.3940
     19  C         15.1500  -22.5070   -4.0590 C.3     1  UNL1        0.2010
     20  C         22.9130  -23.6330   -9.0530 C.3     1  UNL1        0.1610
     21  C         23.2010  -23.0300  -10.4050 C.2     1  UNL1       -0.0400
     22  C         24.5150  -22.9560  -10.8910 C.2     1  UNL1        0.0100
     23  C         24.7810  -22.3640  -12.1270 C.2     1  UNL1        0.0250
     24  C         23.7270  -21.8410  -12.8810 C.2     1  UNL1        0.0740
     25  C         22.4150  -21.8890  -12.4050 C.2     1  UNL1        0.0250
     26  C         22.1560  -22.4850  -11.1710 C.2     1  UNL1        0.0100
     27  S         24.0710  -21.0720  -14.4410 S.O2    1  UNL1        0.2390
     28  O         24.0110  -22.0800  -15.4720 O.2     1  UNL1       -0.2060
     29  O         25.2050  -20.1920  -14.2780 O.2     1  UNL1       -0.2060
     30  N         22.7330  -20.0650  -14.6200 N.3     1  UNL1       -0.2250
     31  H         22.1720  -19.9860  -13.7720 H       1  UNL1        0.1360
     32  H         23.0500  -19.1520  -14.9520 H       1  UNL1        0.1360
@<TRIPOS>BOND
     1    28    27    2
     2    32    30    1
     3    30    27    1
     4    30    31    1
     5    27    29    2
     6    27    24    1
     7    24    25    2
     8    24    23    1
     9    25    26    1
    10    23    22    2
    11    14    13    2
    12    14    15    1
    13    13    11    1
    14    26    21    2
    15    22    21    1
    16    15    12    2
    17    21    20    1
    18    11     9    2
    19    12     9    1
    20    12     5    1
    21     9     8    1
    22    20     3    1
    23     2     1    2
    24     1     3   am
    25     1     5    1
    26     3     4    1
    27     5     6    2
    28     8    10    2
    29     8     7   am
    30     6     7    1
    31     7    16    1
    32    16    17    1
    33    17    18    1
    34    18    19    1
