@<TRIPOS>MOLECULE
36670_out_ligand_01.pdbqt
 28 30 0 0 0
SMALL
GASTEIGER

@<TRIPOS>ATOM
      1  N         17.3840  -23.0130  -10.2490 N.am    1  UNL1       -0.3510
      2  C         17.7090  -21.7450  -10.6970 C.2     1  UNL1        0.2720
      3  O         16.8870  -20.8320  -10.7390 O.2     1  UNL1       -0.2660
      4  H         18.1500  -23.6250  -10.0080 H       1  UNL1        0.1630
      5  C         16.0980  -23.2930   -9.6610 C.3     1  UNL1        0.1610
      6  C         16.1940  -23.3450   -8.1550 C.2     1  UNL1       -0.0400
      7  C         17.0570  -24.2630   -7.5350 C.2     1  UNL1        0.0100
      8  C         17.1350  -24.3410   -6.1440 C.2     1  UNL1        0.0250
      9  C         16.3510  -23.4860   -5.3670 C.2     1  UNL1        0.0740
     10  C         15.4770  -22.5750   -5.9650 C.2     1  UNL1        0.0250
     11  C         15.4000  -22.5060   -7.3570 C.2     1  UNL1        0.0100
     12  S         16.4380  -23.5780   -3.5980 S.O2    1  UNL1        0.2390
     13  O         17.8200  -23.4540   -3.1980 O.2     1  UNL1       -0.2060
     14  O         15.5920  -24.6600   -3.1530 O.2     1  UNL1       -0.2060
     15  N         15.7020  -22.1290   -3.1530 N.3     1  UNL1       -0.2250
     16  H         14.6980  -22.2910   -3.0510 H       1  UNL1        0.1360
     17  H         16.1060  -21.7170   -2.3130 H       1  UNL1        0.1360
     18  C         19.1270  -21.5810  -11.0740 C.ar    1  UNL1        0.1520
     19  N         19.4680  -20.8660  -12.1620 N.ar    1  UNL1       -0.1690
     20  N         20.8030  -20.9000  -12.1910 N.ar    1  UNL1       -0.2810
     21  C         21.3570  -21.6020  -11.1600 C.ar    1  UNL1        0.0360
     22  H         21.2770  -20.4170  -12.9470 H       1  UNL1        0.1890
     23  C         20.2970  -22.0900  -10.4180 C.ar    1  UNL1        0.0020
     24  C         22.8300  -21.7550  -10.9970 C.3     1  UNL1        0.0590
     25  C         20.3850  -22.9730   -9.2150 C.3     1  UNL1        0.0430
     26  C         21.5960  -23.9080   -9.2390 C.3     1  UNL1        0.0050
     27  C         22.9340  -23.2440   -8.8930 C.3     1  UNL1        0.0010
     28  C         23.2260  -21.8790   -9.5250 C.3     1  UNL1        0.0060
@<TRIPOS>BOND
     1    22    20    1
     2    20    19   ar
     3    20    21   ar
     4    19    18   ar
     5    21    24    1
     6    21    23   ar
     7    18     2    1
     8    18    23   ar
     9    24    28    1
    10     3     2    2
    11     2     1   am
    12    23    25    1
    13     1     4    1
    14     1     5    1
    15     5     6    1
    16    28    27    1
    17    26    25    1
    18    26    27    1
    19     6     7    2
    20     6    11    1
    21     7     8    1
    22    11    10    2
    23     8     9    2
    24    10     9    1
    25     9    12    1
    26    12    13    2
    27    12    14    2
    28    12    15    1
    29    15    16    1
    30    15    17    1
