@<TRIPOS>MOLECULE
36681_out_ligand_01.pdbqt
 33 36 0 0 0
SMALL
GASTEIGER

@<TRIPOS>ATOM
      1  C         22.5330  -22.0430  -10.0730 C.2     1  UNL1        0.2720
      2  O         23.1390  -21.1020   -9.5700 O.2     1  UNL1       -0.2660
      3  N         23.1330  -23.0140  -10.8420 N.am    1  UNL1       -0.3510
      4  H         22.4900  -23.6660  -11.2830 H       1  UNL1        0.1630
      5  C         21.0810  -22.2440   -9.9270 C.ar    1  UNL1        0.1530
      6  C         20.3250  -22.3040   -8.7300 C.ar    1  UNL1        0.0070
      7  C         20.6950  -22.2110   -7.2950 C.3     1  UNL1        0.0480
      8  C         19.0230  -22.5220   -9.1220 C.ar    1  UNL1        0.0700
      9  C         19.4960  -21.7330   -6.4430 C.3     1  UNL1        0.0470
     10  C         18.1340  -22.2990   -6.8520 C.2     1  UNL1       -0.0120
     11  C         17.8980  -22.6470   -8.2090 C.2     1  UNL1        0.0020
     12  C         17.0820  -22.3880   -5.9210 C.2     1  UNL1        0.0750
     13  C         16.6430  -23.1030   -8.6110 C.2     1  UNL1        0.0140
     14  C         15.6140  -23.2070   -7.6770 C.2     1  UNL1        0.0040
     15  C         15.8310  -22.8510   -6.3420 C.2     1  UNL1        0.0370
     16  N         19.0460  -22.5620  -10.4810 N.ar    1  UNL1       -0.2760
     17  N         20.2780  -22.4020  -11.0060 N.ar    1  UNL1       -0.1680
     18  H         18.2650  -22.6880  -11.1160 H       1  UNL1        0.1890
     19  O         17.3770  -21.9960   -4.6420 O.2     1  UNL1       -0.3550
     20  C         16.4780  -22.3830   -3.6110 C.3     1  UNL1        0.2100
     21  C         24.5030  -22.9390  -11.2680 C.3     1  UNL1        0.1610
     22  C         24.5970  -22.8010  -12.7670 C.2     1  UNL1       -0.0400
     23  C         25.1910  -23.8090  -13.5420 C.2     1  UNL1        0.0100
     24  C         25.2520  -23.6910  -14.9320 C.2     1  UNL1        0.0250
     25  C         24.7140  -22.5580  -15.5500 C.2     1  UNL1        0.0740
     26  C         24.0990  -21.5570  -14.7970 C.2     1  UNL1        0.0250
     27  C         24.0440  -21.6810  -13.4080 C.2     1  UNL1        0.0100
     28  S         24.7860  -22.4160  -17.3150 S.O2    1  UNL1        0.2390
     29  O         25.9960  -23.0520  -17.7830 O.2     1  UNL1       -0.2060
     30  O         24.4240  -21.0690  -17.6840 O.2     1  UNL1       -0.2060
     31  N         23.5290  -23.4370  -17.7820 N.3     1  UNL1       -0.2250
     32  H         23.7360  -23.9660  -18.6270 H       1  UNL1        0.1360
     33  H         22.6770  -22.8820  -17.8800 H       1  UNL1        0.1360
@<TRIPOS>BOND
     1    32    31    1
     2    33    31    1
     3    29    28    2
     4    31    28    1
     5    30    28    2
     6    28    25    1
     7    25    24    2
     8    25    26    1
     9    24    23    1
    10    26    27    2
    11    23    22    2
    12    27    22    1
    13    22    21    1
    14     4     3    1
    15    21     3    1
    16    18    16    1
    17    17    16   ar
    18    17     5   ar
    19     3     1   am
    20    16     8   ar
    21     1     5    1
    22     1     2    2
    23     5     6   ar
    24     8     6   ar
    25     8    11    1
    26     6     7    1
    27    13    11    1
    28    13    14    2
    29    11    10    2
    30    14    15    1
    31     7     9    1
    32    10     9    1
    33    10    12    1
    34    15    12    2
    35    12    19    1
    36    19    20    1
