@<TRIPOS>MOLECULE
36696_out_ligand_01.pdbqt
 40 46 0 0 0
SMALL
GASTEIGER

@<TRIPOS>ATOM
      1  O         24.8520  -23.1900   -9.7590 O.2     1  UNL1       -0.2450
      2  C         24.5630  -22.2110  -10.4380 C.2     1  UNL1        0.3410
      3  N         25.4680  -21.5400  -11.2590 N.am    1  UNL1       -0.2290
      4  N         23.3110  -21.6180  -10.5250 N.am    1  UNL1       -0.3080
      5  H         25.2550  -20.5930  -11.5550 H       1  UNL1        0.1940
      6  H         23.1880  -20.9750  -11.2910 H       1  UNL1        0.1700
      7  N         26.7670  -21.9550  -11.3520 N.2     1  UNL1       -0.1800
      8  C         27.1200  -22.6730  -12.3780 C.2     1  UNL1        0.1760
      9  C         26.3140  -23.1080  -13.4940 C.2     1  UNL1        0.0960
     10  C         25.2820  -24.0210  -13.5550 C.2     1  UNL1        0.0420
     11  C         24.8640  -24.0690  -14.9090 C.2     1  UNL1        0.0480
     12  C         25.6530  -23.1820  -15.6160 C.2     1  UNL1        0.1200
     13  O         26.5370  -22.6010  -14.7430 O.2     1  UNL1       -0.3020
     14  S         25.7010  -22.7350  -17.3050 S.3     1  UNL1       -0.0270
     15  C         26.0260  -21.0460  -17.1910 C.ar    1  UNL1        0.1740
     16  N         26.3620  -20.2210  -18.1530 N.ar    1  UNL1       -0.2220
     17  C         26.5730  -19.0150  -17.5240 C.ar    1  UNL1        0.0860
     18  C         26.9530  -17.7780  -18.0610 C.2     1  UNL1        0.0340
     19  C         26.3620  -19.1230  -16.1510 C.ar    1  UNL1        0.0630
     20  C         27.1100  -16.6890  -17.1940 C.2     1  UNL1        0.0020
     21  C         26.8910  -16.8290  -15.8210 C.2     1  UNL1        0.0020
     22  C         26.5080  -18.0550  -15.2660 C.2     1  UNL1        0.0320
     23  N         26.0220  -20.4400  -15.9690 N.ar    1  UNL1       -0.3330
     24  H         25.8140  -20.8900  -15.0910 H       1  UNL1        0.1680
     25  C         22.1560  -21.9380   -9.7860 C.2     1  UNL1        0.0360
     26  C         20.9480  -22.0110  -10.4820 C.2     1  UNL1        0.0300
     27  C         19.7560  -22.3140   -9.8140 C.2     1  UNL1        0.0100
     28  C         19.7240  -22.5410   -8.4270 C.2     1  UNL1       -0.0490
     29  C         20.9470  -22.4590   -7.7430 C.2     1  UNL1        0.0100
     30  C         22.1440  -22.1620   -8.4130 C.2     1  UNL1        0.0300
     31  C         18.3960  -22.8680   -7.7260 C.3     1  UNL1       -0.0120
     32  C         18.2580  -22.0180   -6.4290 C.3     1  UNL1        0.0190
     33  C         16.9650  -22.3680   -5.6710 C.3     1  UNL1       -0.0130
     34  C         16.9800  -23.8610   -5.3020 C.3     1  UNL1        0.0090
     35  C         15.7540  -22.0790   -6.5680 C.3     1  UNL1        0.0090
     36  C         17.0590  -24.7180   -6.5760 C.3     1  UNL1       -0.0130
     37  C         15.8470  -24.4160   -7.4690 C.3     1  UNL1        0.0090
     38  C         18.3510  -24.3770   -7.3380 C.3     1  UNL1        0.0190
     39  C         15.8360  -22.9270   -7.8450 C.3     1  UNL1       -0.0130
     40  C         17.1330  -22.5850   -8.5990 C.3     1  UNL1        0.0190
@<TRIPOS>BOND
     1    16    17   ar
     2    16    15   ar
     3    18    17    2
     4    18    20    1
     5    17    19   ar
     6    14    15    1
     7    14    12    1
     8    20    21    2
     9    15    23   ar
    10    19    23   ar
    11    19    22    2
    12    23    24    1
    13    21    22    1
    14    12    11    2
    15    12    13    1
    16    11    10    1
    17    13     9    1
    18    10     9    2
    19     9     8    1
    20     8     7    2
    21     5     3    1
    22     7     3    1
    23     6     4    1
    24     3     2   am
    25     4     2   am
    26     4    25    1
    27    26    27    1
    28    26    25    2
    29     2     1    2
    30    27    28    2
    31    25    30    1
    32    40    39    1
    33    40    31    1
    34    28    29    1
    35    28    31    1
    36    30    29    2
    37    39    37    1
    38    39    35    1
    39    31    38    1
    40    31    32    1
    41    37    36    1
    42    38    36    1
    43    36    34    1
    44    35    33    1
    45    32    33    1
    46    33    34    1
