@<TRIPOS>MOLECULE
3674_out_ligand_01.pdbqt
 40 44 0 0 0
SMALL
GASTEIGER

@<TRIPOS>ATOM
      1  C         19.9640  -21.8860  -11.2810 C.2     1  UNL1        0.0350
      2  C         20.0410  -22.8630  -10.2780 C.2     1  UNL1        0.0310
      3  C         18.8970  -23.2770   -9.5910 C.2     1  UNL1        0.0270
      4  C         17.6580  -22.7250   -9.9230 C.2     1  UNL1        0.0800
      5  C         17.5640  -21.7440  -10.9120 C.2     1  UNL1        0.0270
      6  C         18.7180  -21.3310  -11.5920 C.2     1  UNL1        0.0310
      7  N         21.1790  -21.5070  -11.8900 N.am    1  UNL1       -0.3230
      8  C         22.3730  -22.2010  -11.8950 C.2     1  UNL1        0.2560
      9  O         22.6300  -23.2290  -11.2820 O.2     1  UNL1       -0.2670
     10  H         21.1710  -20.6110  -12.3540 H       1  UNL1        0.1690
     11  C         23.4460  -21.5810  -12.7240 C.2     1  UNL1        0.0320
     12  C         24.7720  -21.5100  -12.2730 C.2     1  UNL1        0.0170
     13  C         25.7600  -20.9400  -13.0800 C.2     1  UNL1        0.0090
     14  C         25.4360  -20.4130  -14.3380 C.2     1  UNL1       -0.0490
     15  C         24.1020  -20.4670  -14.7710 C.2     1  UNL1        0.0090
     16  C         23.1100  -21.0410  -13.9690 C.2     1  UNL1        0.0170
     17  C         26.5070  -19.7960  -15.2080 C.3     1  UNL1        0.1120
     18  S         26.1840  -20.0050  -16.9890 S.3     1  UNL1       -0.1600
     19  C         26.9860  -21.6160  -17.2910 C.3     1  UNL1        0.1120
     20  C         26.3910  -22.7500  -16.4920 C.2     1  UNL1       -0.0490
     21  C         25.0840  -23.1930  -16.7480 C.2     1  UNL1        0.0080
     22  C         24.5320  -24.2440  -16.0130 C.2     1  UNL1        0.0010
     23  C         25.2760  -24.8620  -15.0090 C.2     1  UNL1        0.0000
     24  C         26.5680  -24.4230  -14.7340 C.2     1  UNL1        0.0010
     25  C         27.1210  -23.3710  -15.4670 C.2     1  UNL1        0.0080
     26  S         16.2110  -23.2360   -9.0190 S.O2    1  UNL1        0.2630
     27  O         15.4560  -24.1460   -9.8460 O.2     1  UNL1       -0.2000
     28  O         15.6070  -22.0330   -8.4840 O.2     1  UNL1       -0.2000
     29  N         16.8500  -24.0590   -7.6830 N.pl3   1  UNL1       -0.2800
     30  H         16.7670  -25.0670   -7.7880 H       1  UNL1        0.1790
     31  C         16.6080  -23.5280   -6.3750 C.2     1  UNL1        0.0530
     32  C         15.5060  -24.0300   -5.6740 C.2     1  UNL1        0.0310
     33  C         15.2230  -23.5810   -4.3880 C.2     1  UNL1        0.0030
     34  C         16.0540  -22.6410   -3.7850 C.2     1  UNL1        0.0120
     35  C         17.1760  -22.1330   -4.4630 C.2     1  UNL1       -0.0240
     36  C         18.0120  -21.1930   -3.8330 C.2     1  UNL1        0.0120
     37  C         17.4670  -22.5650   -5.7820 C.2     1  UNL1        0.0010
     38  C         19.1440  -20.6960   -4.4750 C.2     1  UNL1        0.0010
     39  C         19.4370  -21.1000   -5.7730 C.2     1  UNL1        0.0010
     40  C         18.6050  -22.0150   -6.4190 C.2     1  UNL1        0.0140
@<TRIPOS>BOND
     1    19    18    1
     2    19    20    1
     3    18    17    1
     4    21    20    2
     5    21    22    1
     6    20    25    1
     7    22    23    2
     8    25    24    2
     9    17    14    1
    10    23    24    1
    11    15    14    2
    12    15    16    1
    13    14    13    1
    14    16    11    2
    15    13    12    2
    16    11    12    1
    17    11     8    1
    18    10     7    1
    19     8     7   am
    20     8     9    2
    21     7     1    1
    22     6     1    2
    23     6     5    1
    24     1     2    1
    25     5     4    2
    26     2     3    2
    27     4     3    1
    28     4    26    1
    29    27    26    2
    30    26    28    2
    31    26    29    1
    32    30    29    1
    33    29    31    1
    34    40    37    1
    35    40    39    2
    36    31    37    2
    37    31    32    1
    38    37    35    1
    39    39    38    1
    40    32    33    2
    41    38    36    2
    42    35    36    1
    43    35    34    2
    44    33    34    1
