@<TRIPOS>MOLECULE
3675_out_ligand_01.pdbqt
 35 38 0 0 0
SMALL
GASTEIGER

@<TRIPOS>ATOM
      1  C         20.9200  -22.5980  -10.5240 C.2     1  UNL1        0.0340
      2  C         20.6300  -23.5390   -9.5270 C.2     1  UNL1        0.0310
      3  C         19.3290  -23.6940   -9.0450 C.2     1  UNL1        0.0270
      4  C         18.3070  -22.8940   -9.5610 C.2     1  UNL1        0.0800
      5  C         18.5760  -21.9650  -10.5670 C.2     1  UNL1        0.0270
      6  C         19.8840  -21.8140  -11.0410 C.2     1  UNL1        0.0310
      7  S         16.6480  -23.0970   -8.9640 S.O2    1  UNL1        0.2630
      8  O         15.9290  -23.8760   -9.9530 O.2     1  UNL1       -0.2000
      9  O         16.1480  -21.8130   -8.5270 O.2     1  UNL1       -0.2000
     10  N         16.8550  -24.1230   -7.6380 N.pl3   1  UNL1       -0.2800
     11  H         16.5890  -25.0790   -7.8650 H       1  UNL1        0.1790
     12  C         16.4890  -23.6330   -6.3460 C.2     1  UNL1        0.0530
     13  C         15.3050  -24.1210   -5.7850 C.2     1  UNL1        0.0310
     14  C         14.9030  -23.6960   -4.5230 C.2     1  UNL1        0.0030
     15  C         15.6820  -22.7800   -3.8200 C.2     1  UNL1        0.0120
     16  C         16.8770  -22.2790   -4.3620 C.2     1  UNL1       -0.0240
     17  C         17.6520  -21.3570   -3.6390 C.2     1  UNL1        0.0120
     18  C         17.3040  -22.7080   -5.6440 C.2     1  UNL1        0.0010
     19  C         18.8430  -20.8560   -4.1600 C.2     1  UNL1        0.0010
     20  C         19.2800  -21.2730   -5.4110 C.2     1  UNL1        0.0010
     21  C         18.5210  -22.1880   -6.1440 C.2     1  UNL1        0.0140
     22  N         22.2570  -22.5050  -10.9470 N.am    1  UNL1       -0.3250
     23  C         23.2920  -21.7900  -10.3670 C.2     1  UNL1        0.2460
     24  O         23.2380  -21.1210   -9.3400 O.2     1  UNL1       -0.2710
     25  H         22.4950  -22.9680  -11.8210 H       1  UNL1        0.1690
     26  C         24.6130  -21.9530  -11.1290 C.3     1  UNL1        0.2780
     27  O         24.5820  -21.4970  -12.4740 O.2     1  UNL1       -0.3390
     28  C         24.8130  -22.4040  -13.4810 C.2     1  UNL1        0.1020
     29  C         25.0990  -23.7580  -13.2830 C.2     1  UNL1        0.0390
     30  C         25.3130  -24.5970  -14.3770 C.2     1  UNL1        0.0030
     31  C         25.2440  -24.0910  -15.6720 C.2     1  UNL1        0.0030
     32  C         24.9590  -22.7400  -15.8810 C.2     1  UNL1        0.0390
     33  C         24.7410  -21.8900  -14.7930 C.2     1  UNL1        0.1010
     34  O         24.4910  -20.5430  -14.9000 O.2     1  UNL1       -0.3530
     35  C         25.6150  -19.6800  -15.0060 C.3     1  UNL1        0.2100
@<TRIPOS>BOND
     1    32    31    2
     2    32    33    1
     3    31    30    1
     4    35    34    1
     5    34    33    1
     6    33    28    2
     7    30    29    2
     8    28    29    1
     9    28    27    1
    10    27    26    1
    11    25    22    1
    12    26    23    1
    13     6     5    1
    14     6     1    2
    15    22     1    1
    16    22    23   am
    17     5     4    2
    18     1     2    1
    19    23    24    2
    20     8     7    2
    21     4     3    1
    22     4     7    1
    23     2     3    2
    24     7     9    2
    25     7    10    1
    26    11    10    1
    27    10    12    1
    28    12    13    2
    29    12    18    1
    30    21    18    1
    31    21    20    2
    32    13    14    1
    33    18    16    2
    34    20    19    1
    35    14    15    2
    36    16    15    1
    37    16    17    1
    38    19    17    2
