@<TRIPOS>MOLECULE
3679_out_ligand_01.pdbqt
 35 38 0 0 0
SMALL
GASTEIGER

@<TRIPOS>ATOM
      1  C         20.3560  -22.5830   -9.7410 C.2     1  UNL1        0.0340
      2  C         19.3220  -22.0000  -10.4880 C.2     1  UNL1        0.0310
      3  C         17.9840  -22.2620  -10.1850 C.2     1  UNL1        0.0270
      4  C         17.6780  -23.1190   -9.1270 C.2     1  UNL1        0.0800
      5  C         18.6940  -23.6930   -8.3620 C.2     1  UNL1        0.0270
      6  C         20.0310  -23.4270   -8.6740 C.2     1  UNL1        0.0310
      7  S         15.9820  -23.4580   -8.7240 S.O2    1  UNL1        0.2630
      8  O         15.8940  -24.7920   -8.1750 O.2     1  UNL1       -0.2000
      9  O         15.1830  -23.0700   -9.8680 O.2     1  UNL1       -0.2000
     10  N         15.6540  -22.3190   -7.5220 N.pl3   1  UNL1       -0.2800
     11  H         14.8570  -21.7350   -7.7670 H       1  UNL1        0.1790
     12  C         15.7790  -22.7210   -6.1560 C.2     1  UNL1        0.0530
     13  C         14.7990  -23.5770   -5.6480 C.2     1  UNL1        0.0310
     14  C         14.8580  -23.9970   -4.3230 C.2     1  UNL1        0.0030
     15  C         15.8960  -23.5600   -3.5030 C.2     1  UNL1        0.0120
     16  C         16.8900  -22.6960   -3.9930 C.2     1  UNL1       -0.0240
     17  C         17.9310  -22.2640   -3.1540 C.2     1  UNL1        0.0120
     18  C         16.8400  -22.2540   -5.3390 C.2     1  UNL1        0.0010
     19  C         18.9190  -21.4000   -3.6230 C.2     1  UNL1        0.0010
     20  C         18.8800  -20.9540   -4.9370 C.2     1  UNL1        0.0010
     21  C         17.8530  -21.3740   -5.7850 C.2     1  UNL1        0.0140
     22  N         21.6730  -22.2680  -10.1200 N.am    1  UNL1       -0.3250
     23  C         22.7130  -21.8360   -9.3120 C.2     1  UNL1        0.2460
     24  O         22.6730  -21.6360   -8.1020 O.2     1  UNL1       -0.2710
     25  H         21.9180  -22.4240  -11.0930 H       1  UNL1        0.1690
     26  C         23.9980  -21.5860  -10.1060 C.3     1  UNL1        0.2780
     27  O         24.3910  -22.6800  -10.9280 O.2     1  UNL1       -0.3400
     28  C         24.4540  -22.4990  -12.2860 C.2     1  UNL1        0.0910
     29  C         23.5610  -21.7230  -13.0330 C.2     1  UNL1        0.0400
     30  C         23.7210  -21.6020  -14.4190 C.2     1  UNL1        0.0260
     31  C         24.7700  -22.2530  -15.0630 C.2     1  UNL1        0.0350
     32 CL         24.9570  -22.0930  -16.7650 Cl      1  UNL1       -0.0840
     33  C         25.6680  -23.0270  -14.3380 C.2     1  UNL1        0.0500
     34  C         25.5090  -23.1470  -12.9550 C.2     1  UNL1        0.0690
     35 CL         26.6640  -24.1010  -12.0880 Cl      1  UNL1       -0.0810
@<TRIPOS>BOND
     1    32    31    1
     2    31    30    2
     3    31    33    1
     4    30    29    1
     5    33    34    2
     6    29    28    2
     7    34    28    1
     8    34    35    1
     9    28    27    1
    10    25    22    1
    11    27    26    1
    12     2     3    1
    13     2     1    2
    14     3     4    2
    15    22     1    1
    16    22    23   am
    17    26    23    1
    18     9     7    2
    19     1     6    1
    20    23    24    2
    21     4     7    1
    22     4     5    1
    23     7     8    2
    24     7    10    1
    25     6     5    2
    26    11    10    1
    27    10    12    1
    28    12    13    2
    29    12    18    1
    30    21    18    1
    31    21    20    2
    32    13    14    1
    33    18    16    2
    34    20    19    1
    35    14    15    2
    36    16    15    1
    37    16    17    1
    38    19    17    2
