@<TRIPOS>MOLECULE
367_out_ligand_01.pdbqt
 39 41 0 0 0
SMALL
GASTEIGER

@<TRIPOS>ATOM
      1  C         20.8720  -23.2140   -8.5540 C.2     1  UNL1        0.0320
      2  C         19.9920  -24.3050   -8.4820 C.2     1  UNL1        0.0180
      3  C         18.9700  -24.3170   -7.5280 C.2     1  UNL1        0.0260
      4  C         18.8270  -23.2350   -6.6520 C.2     1  UNL1        0.0740
      5  C         19.6780  -22.1310   -6.7360 C.2     1  UNL1        0.0260
      6  C         20.7000  -22.1230   -7.6880 C.2     1  UNL1        0.0180
      7  C         21.9760  -23.1550   -9.5570 C.2     1  UNL1        0.2560
      8  N         21.6460  -22.5570  -10.7590 N.am    1  UNL1       -0.3230
      9  H         20.6740  -22.3180  -10.9050 H       1  UNL1        0.1690
     10  O         23.0510  -23.6650   -9.2630 O.2     1  UNL1       -0.2670
     11  C         22.5010  -22.3190  -11.8580 C.2     1  UNL1        0.0350
     12  C         23.7660  -22.8940  -12.0000 C.2     1  UNL1        0.0310
     13  C         24.5580  -22.6030  -13.1170 C.2     1  UNL1        0.0270
     14  C         24.0780  -21.7350  -14.0980 C.2     1  UNL1        0.0790
     15  C         22.8230  -21.1400  -13.9640 C.2     1  UNL1        0.0270
     16  C         22.0400  -21.4350  -12.8450 C.2     1  UNL1        0.0310
     17  S         25.0910  -21.3710  -15.5090 S.O2    1  UNL1        0.2590
     18  O         26.3820  -21.9980  -15.3270 O.2     1  UNL1       -0.2010
     19  O         24.2920  -21.5980  -16.6910 O.2     1  UNL1       -0.2010
     20  N         25.2880  -19.7170  -15.3770 N.3     1  UNL1       -0.3110
     21  H         24.6460  -19.1570  -15.9340 H       1  UNL1        0.1720
     22  C         26.5400  -19.1430  -14.8850 C.3     1  UNL1        0.0850
     23  C         26.5150  -19.1760  -13.3610 C.3     1  UNL1        0.0320
     24  C         26.6720  -17.7140  -15.3980 C.3     1  UNL1        0.0320
     25  S         17.5060  -23.2560   -5.4610 S.O2    1  UNL1        0.2450
     26  O         17.0020  -24.6100   -5.3690 O.2     1  UNL1       -0.2060
     27  O         17.9580  -22.5170   -4.3030 O.2     1  UNL1       -0.2060
     28  N         16.3210  -22.3600   -6.3070 N.pl3   1  UNL1       -0.1810
     29  H         16.5620  -21.3750   -6.1760 H       1  UNL1        0.1460
     30  C         16.2580  -22.6700   -7.7050 C.2     1  UNL1        0.0230
     31  C         15.5040  -23.7540   -8.1540 C.2     1  UNL1        0.0240
     32  C         15.4120  -24.0130   -9.5220 C.2     1  UNL1        0.0030
     33  C         16.0610  -23.1820  -10.4350 C.2     1  UNL1        0.0160
     34  C         16.8040  -22.0750   -9.9930 C.2     1  UNL1        0.0490
     35  C         16.8900  -21.8230   -8.6160 C.2     1  UNL1        0.0400
     36  C         17.4860  -21.1750  -10.9920 C.3     1  UNL1        0.4170
     37  F         17.4480  -21.6480  -12.2690 F       1  UNL1       -0.1660
     38  F         18.8010  -20.9760  -10.7040 F       1  UNL1       -0.1660
     39  F         16.9230  -19.9360  -11.0400 F       1  UNL1       -0.1660
@<TRIPOS>BOND
     1    19    17    2
     2    21    20    1
     3    17    20    1
     4    17    18    2
     5    17    14    1
     6    24    22    1
     7    20    22    1
     8    22    23    1
     9    14    15    2
    10    14    13    1
    11    15    16    1
    12    13    12    2
    13    16    11    2
    14    37    36    1
    15    12    11    1
    16    11     8    1
    17    39    36    1
    18    36    38    1
    19    36    34    1
    20     9     8    1
    21     8     7   am
    22    33    34    2
    23    33    32    1
    24    34    35    1
    25     7    10    2
    26     7     1    1
    27    32    31    2
    28    35    30    2
    29     1     2    2
    30     1     6    1
    31     2     3    1
    32    31    30    1
    33    30    28    1
    34     6     5    2
    35     3     4    2
    36     5     4    1
    37     4    25    1
    38    28    29    1
    39    28    25    1
    40    25    26    2
    41    25    27    2
