@<TRIPOS>MOLECULE
3681_out_ligand_01.pdbqt
 33 36 0 0 0
SMALL
GASTEIGER

@<TRIPOS>ATOM
      1  C         20.8630  -22.5450  -10.6610 C.2     1  UNL1        0.0340
      2  C         19.8130  -21.7450  -11.1170 C.2     1  UNL1        0.0310
      3  C         18.5200  -21.9110  -10.6070 C.2     1  UNL1        0.0270
      4  C         18.2820  -22.8730   -9.6250 C.2     1  UNL1        0.0800
      5  C         19.3180  -23.6930   -9.1700 C.2     1  UNL1        0.0270
      6  C         20.6040  -23.5230   -9.6890 C.2     1  UNL1        0.0310
      7  S         16.6440  -23.0950   -8.9800 S.O2    1  UNL1        0.2630
      8  O         15.9090  -23.8950   -9.9390 O.2     1  UNL1       -0.2000
      9  O         16.1380  -21.8140   -8.5410 O.2     1  UNL1       -0.2000
     10  N         16.9040  -24.1020   -7.6490 N.pl3   1  UNL1       -0.2800
     11  H         16.6710  -25.0690   -7.8650 H       1  UNL1        0.1790
     12  C         16.5410  -23.6170   -6.3550 C.2     1  UNL1        0.0530
     13  C         15.3660  -24.1170   -5.7870 C.2     1  UNL1        0.0310
     14  C         14.9660  -23.6950   -4.5240 C.2     1  UNL1        0.0030
     15  C         15.7400  -22.7700   -3.8250 C.2     1  UNL1        0.0120
     16  C         16.9270  -22.2570   -4.3740 C.2     1  UNL1       -0.0240
     17  C         17.6950  -21.3260   -3.6570 C.2     1  UNL1        0.0120
     18  C         17.3510  -22.6830   -5.6580 C.2     1  UNL1        0.0010
     19  C         18.8800  -20.8130   -4.1860 C.2     1  UNL1        0.0010
     20  C         19.3140  -21.2280   -5.4380 C.2     1  UNL1        0.0010
     21  C         18.5590  -22.1510   -6.1660 C.2     1  UNL1        0.0140
     22  N         22.1870  -22.4410  -11.1240 N.am    1  UNL1       -0.3250
     23  C         23.2420  -21.7550  -10.5480 C.2     1  UNL1        0.2460
     24  O         23.2140  -21.1040   -9.5080 O.2     1  UNL1       -0.2710
     25  H         22.4280  -22.9760  -11.9530 H       1  UNL1        0.1690
     26  C         24.5310  -21.8520  -11.3760 C.3     1  UNL1        0.2780
     27  O         24.7490  -23.1140  -11.9970 O.2     1  UNL1       -0.3420
     28  C         24.7960  -23.1550  -13.3640 C.2     1  UNL1        0.0690
     29  C         24.4320  -22.1260  -14.2340 C.2     1  UNL1        0.0370
     30  C         24.5540  -22.3010  -15.6160 C.2     1  UNL1        0.0030
     31  C         25.0430  -23.4990  -16.1330 C.2     1  UNL1        0.0000
     32  C         25.4120  -24.5260  -15.2700 C.2     1  UNL1        0.0030
     33  C         25.2910  -24.3520  -13.8900 C.2     1  UNL1        0.0370
@<TRIPOS>BOND
     1    31    30    2
     2    31    32    1
     3    30    29    1
     4    32    33    2
     5    29    28    2
     6    33    28    1
     7    28    27    1
     8    27    26    1
     9    25    22    1
    10    26    23    1
    11    22     1    1
    12    22    23   am
    13     2     1    2
    14     2     3    1
    15     1     6    1
    16     3     4    2
    17    23    24    2
    18     8     7    2
    19     6     5    2
    20     4     5    1
    21     4     7    1
    22     7     9    2
    23     7    10    1
    24    11    10    1
    25    10    12    1
    26    12    13    2
    27    12    18    1
    28    21    18    1
    29    21    20    2
    30    13    14    1
    31    18    16    2
    32    20    19    1
    33    14    15    2
    34    16    15    1
    35    16    17    1
    36    19    17    2
