@<TRIPOS>MOLECULE
3682_out_ligand_01.pdbqt
 33 35 0 0 0
SMALL
GASTEIGER

@<TRIPOS>ATOM
      1  C         21.0980  -23.1110   -8.7610 C.2     1  UNL1        0.0350
      2  C         20.9220  -22.0730   -7.8390 C.2     1  UNL1        0.0310
      3  C         19.8910  -22.1310   -6.8970 C.2     1  UNL1        0.0270
      4  C         19.0430  -23.2430   -6.8680 C.2     1  UNL1        0.0750
      5  C         19.1970  -24.2810   -7.7900 C.2     1  UNL1        0.0270
      6  C         20.2180  -24.2060   -8.7400 C.2     1  UNL1        0.0310
      7  S         17.7680  -23.3290   -5.6330 S.O2    1  UNL1        0.2450
      8  O         18.2090  -22.5680   -4.4770 O.2     1  UNL1       -0.2060
      9  O         17.3490  -24.7070   -5.5370 O.2     1  UNL1       -0.2060
     10  N         16.5580  -22.3730   -6.3690 N.pl3   1  UNL1       -0.1810
     11  H         15.6960  -22.5570   -5.8470 H       1  UNL1        0.1460
     12  C         16.3650  -22.6330   -7.7620 C.2     1  UNL1        0.0230
     13  C         15.6320  -23.7450   -8.1850 C.2     1  UNL1        0.0240
     14  C         15.4810  -23.9910   -9.5500 C.2     1  UNL1        0.0030
     15  C         16.0660  -23.1340  -10.4840 C.2     1  UNL1        0.0160
     16  C         16.8170  -22.0240  -10.0650 C.2     1  UNL1        0.0490
     17  C         16.9740  -21.7870   -8.6920 C.2     1  UNL1        0.0400
     18  C         17.4600  -21.1100  -11.0770 C.3     1  UNL1        0.4170
     19  F         16.9190  -19.8650  -11.0770 F       1  UNL1       -0.1660
     20  F         17.3570  -21.5610  -12.3570 F       1  UNL1       -0.1660
     21  F         18.7870  -20.9410  -10.8510 F       1  UNL1       -0.1660
     22  N         22.1170  -23.1320   -9.7330 N.am    1  UNL1       -0.3230
     23  C         23.0410  -22.1380   -9.9880 C.2     1  UNL1        0.2570
     24  O         23.2010  -21.0780   -9.3910 O.2     1  UNL1       -0.2670
     25  H         22.1890  -23.9880  -10.2780 H       1  UNL1        0.1690
     26  C         24.0100  -22.4800  -11.0500 C.2     1  UNL1        0.0540
     27  C         25.2390  -23.0210  -10.6430 C.2     1  UNL1        0.0200
     28  C         26.1780  -23.4160  -11.5980 C.2     1  UNL1        0.0250
     29  C         25.8970  -23.2480  -12.9490 C.2     1  UNL1        0.0350
     30 CL         27.0440  -23.7540  -14.1260 Cl      1  UNL1       -0.0840
     31  C         24.6910  -22.6730  -13.3610 C.2     1  UNL1        0.0480
     32  C         23.7440  -22.2870  -12.4090 C.2     1  UNL1        0.0510
     33 CL         22.2760  -21.5680  -12.9720 Cl      1  UNL1       -0.0830
@<TRIPOS>BOND
     1    30    29    1
     2    31    29    2
     3    31    32    1
     4    33    32    1
     5    29    28    1
     6    32    26    2
     7    20    18    1
     8    28    27    2
     9    19    18    1
    10    18    21    1
    11    18    16    1
    12    26    27    1
    13    26    23    1
    14    15    16    2
    15    15    14    1
    16    25    22    1
    17    16    17    1
    18    23    22   am
    19    23    24    2
    20    22     1    1
    21    14    13    2
    22     1     6    2
    23     1     2    1
    24     6     5    1
    25    17    12    2
    26    13    12    1
    27     2     3    2
    28     5     4    2
    29    12    10    1
    30     3     4    1
    31     4     7    1
    32    10    11    1
    33    10     7    1
    34     7     9    2
    35     7     8    2
