@<TRIPOS>MOLECULE
3692_out_ligand_01.pdbqt
 34 37 0 0 0
SMALL
GASTEIGER

@<TRIPOS>ATOM
      1  C         20.9060  -22.3350  -10.7340 C.2     1  UNL1        0.0340
      2  C         20.6910  -23.3900   -9.8340 C.2     1  UNL1        0.0310
      3  C         19.4160  -23.6460   -9.3230 C.2     1  UNL1        0.0270
      4  C         18.3450  -22.8420   -9.7160 C.2     1  UNL1        0.0800
      5  C         18.5470  -21.7780  -10.5960 C.2     1  UNL1        0.0270
      6  C         19.8250  -21.5330  -11.1080 C.2     1  UNL1        0.0310
      7  S         16.7300  -23.1460   -9.0480 S.O2    1  UNL1        0.2630
      8  O         16.2350  -21.8870   -8.5310 O.2     1  UNL1       -0.2000
      9  O         15.9620  -23.9050  -10.0100 O.2     1  UNL1       -0.2000
     10  N         17.0640  -24.0970   -7.6920 N.pl3   1  UNL1       -0.2800
     11  H         17.9730  -24.5500   -7.7740 H       1  UNL1        0.1790
     12  C         16.7050  -23.5870   -6.4060 C.2     1  UNL1        0.0530
     13  C         15.5220  -24.0640   -5.8350 C.2     1  UNL1        0.0310
     14  C         15.1100  -23.5960   -4.5920 C.2     1  UNL1        0.0030
     15  C         15.8800  -22.6520   -3.9160 C.2     1  UNL1        0.0120
     16  C         17.0700  -22.1570   -4.4730 C.2     1  UNL1       -0.0240
     17  C         17.8350  -21.2050   -3.7780 C.2     1  UNL1        0.0120
     18  C         17.5010  -22.6180   -5.7420 C.2     1  UNL1        0.0010
     19  C         19.0150  -20.6990   -4.3210 C.2     1  UNL1        0.0010
     20  C         19.4460  -21.1340   -5.5670 C.2     1  UNL1        0.0010
     21  C         18.6980  -22.0820   -6.2700 C.2     1  UNL1        0.0140
     22  N         22.2220  -22.1480  -11.1940 N.am    1  UNL1       -0.3270
     23  C         23.2970  -21.6050  -10.5130 C.2     1  UNL1        0.2310
     24  O         23.2620  -21.1010   -9.3920 O.2     1  UNL1       -0.2720
     25  H         22.4390  -22.5270  -12.1100 H       1  UNL1        0.1690
     26  C         24.5900  -21.5790  -11.3200 C.3     1  UNL1        0.1820
     27  S         25.2380  -23.2470  -11.6980 S.3     1  UNL1       -0.1210
     28  C         25.0230  -23.2790  -13.4700 C.2     1  UNL1        0.0010
     29  C         24.5230  -22.1440  -14.1140 C.2     1  UNL1        0.0190
     30  C         24.3300  -22.1430  -15.4980 C.2     1  UNL1        0.0080
     31  C         24.6380  -23.2770  -16.2570 C.2     1  UNL1       -0.0620
     32  C         24.4580  -23.2650  -17.7460 C.3     1  UNL1        0.0480
     33  C         25.1710  -24.4000  -15.6150 C.2     1  UNL1        0.0080
     34  C         25.3610  -24.4020  -14.2290 C.2     1  UNL1        0.0190
@<TRIPOS>BOND
     1    32    31    1
     2    31    33    2
     3    31    30    1
     4    33    34    1
     5    30    29    2
     6    34    28    2
     7    29    28    1
     8    28    27    1
     9    25    22    1
    10    27    26    1
    11    26    23    1
    12    22     1    1
    13    22    23   am
    14     6     1    2
    15     6     5    1
    16     1     2    1
    17     5     4    2
    18    23    24    2
    19     9     7    2
    20     2     3    2
    21     4     3    1
    22     4     7    1
    23     7     8    2
    24     7    10    1
    25    11    10    1
    26    10    12    1
    27    12    13    2
    28    12    18    1
    29    21    18    1
    30    21    20    2
    31    13    14    1
    32    18    16    2
    33    20    19    1
    34    14    15    2
    35    16    15    1
    36    16    17    1
    37    19    17    2
