@<TRIPOS>MOLECULE
3695_out_ligand_01.pdbqt
 32 34 0 0 0
SMALL
GASTEIGER

@<TRIPOS>ATOM
      1  C         18.6030  -23.4360   -8.8660 C.2     1  UNL1        0.0800
      2  C         19.5840  -24.2670   -8.3220 C.2     1  UNL1        0.0270
      3  C         20.8970  -24.1770   -8.7900 C.2     1  UNL1        0.0310
      4  C         21.2400  -23.2590   -9.7930 C.2     1  UNL1        0.0340
      5  C         20.2490  -22.4230  -10.3160 C.2     1  UNL1        0.0310
      6  C         18.9320  -22.5030   -9.8490 C.2     1  UNL1        0.0270
      7  S         16.9410  -23.5170   -8.2480 S.O2    1  UNL1        0.2630
      8  O         16.0380  -23.5040   -9.3780 O.2     1  UNL1       -0.2000
      9  O         16.8950  -24.5930   -7.2770 O.2     1  UNL1       -0.2000
     10  N         16.7940  -22.0920   -7.3590 N.pl3   1  UNL1       -0.2800
     11  H         17.1660  -21.2820   -7.8520 H       1  UNL1        0.1790
     12  C         16.9280  -22.1250   -5.9410 C.2     1  UNL1        0.0540
     13  C         18.1610  -21.8220   -5.3310 C.2     1  UNL1       -0.0340
     14  C         18.2690  -21.9140   -3.9340 C.2     1  UNL1        0.0090
     15  C         19.3940  -21.4380   -6.1040 C.3     1  UNL1        0.0500
     16  C         17.1680  -22.2550   -3.1540 C.2     1  UNL1        0.0010
     17  C         15.9380  -22.4960   -3.7600 C.2     1  UNL1        0.0090
     18  C         15.7960  -22.4120   -5.1550 C.2     1  UNL1       -0.0340
     19  C         14.4290  -22.6510   -5.7360 C.3     1  UNL1        0.0500
     20  N         22.5860  -23.2370  -10.2050 N.am    1  UNL1       -0.3270
     21  C         23.5260  -22.2430   -9.9940 C.2     1  UNL1        0.2310
     22  O         23.3260  -21.1580   -9.4520 O.2     1  UNL1       -0.2720
     23  H         22.9380  -24.0810  -10.6430 H       1  UNL1        0.1690
     24  C         24.8940  -22.5570  -10.5880 C.3     1  UNL1        0.1820
     25  S         25.5720  -21.1850  -11.5880 S.3     1  UNL1       -0.1210
     26  C         25.2280  -21.7480  -13.2480 C.2     1  UNL1        0.0010
     27  C         24.7640  -20.8920  -14.2540 C.2     1  UNL1        0.0200
     28  C         24.5100  -21.3840  -15.5380 C.2     1  UNL1        0.0250
     29  C         24.7080  -22.7340  -15.8170 C.2     1  UNL1        0.0340
     30 CL         24.3920  -23.3380  -17.3960 Cl      1  UNL1       -0.0840
     31  C         25.1530  -23.5990  -14.8200 C.2     1  UNL1        0.0250
     32  C         25.4080  -23.1060  -13.5380 C.2     1  UNL1        0.0200
@<TRIPOS>BOND
     1    30    29    1
     2    29    28    2
     3    29    31    1
     4    28    27    1
     5    31    32    2
     6    27    26    2
     7    32    26    1
     8    26    25    1
     9    25    24    1
    10    23    20    1
    11    24    21    1
    12     5     6    1
    13     5     4    2
    14    20    21   am
    15    20     4    1
    16    21    22    2
    17     6     1    2
    18     4     3    1
    19     8     7    2
    20     1     2    1
    21     1     7    1
    22     3     2    2
    23     7    10    1
    24     7     9    2
    25    11    10    1
    26    10    12    1
    27    15    13    1
    28    12    13    2
    29    12    18    1
    30    19    18    1
    31    13    14    1
    32    18    17    2
    33    14    16    2
    34    17    16    1
