@<TRIPOS>MOLECULE
36973_out_ligand_01.pdbqt
 41 44 0 0 0
SMALL
GASTEIGER

@<TRIPOS>ATOM
      1  N         19.7580  -22.6730   -7.0210 N.am    1  UNL1       -0.3230
      2  C         19.3620  -21.7490   -6.0780 C.2     1  UNL1        0.2580
      3  O         19.8720  -20.6650   -5.8200 O.2     1  UNL1       -0.2670
      4  H         19.1230  -23.4490   -7.1950 H       1  UNL1        0.1690
      5  C         20.9250  -22.6480   -7.8120 C.2     1  UNL1        0.0350
      6  C         21.2330  -23.8160   -8.5270 C.2     1  UNL1        0.0310
      7  C         22.4090  -23.9090   -9.2800 C.2     1  UNL1        0.0270
      8  C         23.2780  -22.8180   -9.3280 C.2     1  UNL1        0.0800
      9  C         22.9520  -21.6270   -8.6720 C.2     1  UNL1        0.0270
     10  C         21.7850  -21.5530   -7.9000 C.2     1  UNL1        0.0310
     11  S         24.7700  -22.9200  -10.2900 S.O2    1  UNL1        0.2630
     12  O         25.6620  -23.8590   -9.6420 O.2     1  UNL1       -0.2000
     13  O         25.1890  -21.5620  -10.5790 O.2     1  UNL1       -0.2000
     14  N         24.2400  -23.5580  -11.7660 N.pl3   1  UNL1       -0.2810
     15  H         24.4680  -24.5480  -11.8550 H       1  UNL1        0.1790
     16  C         24.3060  -22.7540  -12.9380 C.2     1  UNL1        0.0420
     17  C         25.2830  -22.9740  -13.9030 C.2     1  UNL1        0.0330
     18  C         25.2840  -22.2130  -15.0750 C.2     1  UNL1        0.0390
     19  C         24.3090  -21.2380  -15.2940 C.2     1  UNL1        0.0680
     20  C         23.3380  -21.0120  -14.3160 C.2     1  UNL1        0.0390
     21  C         23.3380  -21.7720  -13.1390 C.2     1  UNL1        0.0330
     22  O         24.4160  -20.5780  -16.4860 O.2     1  UNL1       -0.3560
     23  C         25.1100  -21.2500  -17.5300 C.3     1  UNL1        0.2100
     24  C         18.2020  -22.1750   -5.2730 C.2     1  UNL1        0.0590
     25  C         18.1020  -21.5960   -3.9950 C.2     1  UNL1        0.0190
     26  C         17.0440  -21.9330   -3.1540 C.2     1  UNL1        0.0010
     27  C         16.0820  -22.8430   -3.5850 C.2     1  UNL1        0.0020
     28  C         16.1740  -23.4070   -4.8610 C.2     1  UNL1        0.0310
     29  C         17.2250  -23.0780   -5.7290 C.2     1  UNL1        0.0600
     30  N         17.2740  -23.8100   -6.9810 N.pl3   1  UNL1       -0.2750
     31  C         17.4950  -25.2730   -6.8840 C.3     1  UNL1        0.1700
     32  S         16.0880  -23.2780   -8.1080 S.O2    1  UNL1        0.2650
     33  O         15.3330  -22.2050   -7.4960 O.2     1  UNL1       -0.2000
     34  O         15.3900  -24.4390   -8.6190 O.2     1  UNL1       -0.2000
     35  C         17.0520  -22.5640   -9.4140 C.2     1  UNL1        0.0800
     36  C         18.2500  -23.1840   -9.7850 C.2     1  UNL1        0.0260
     37  C         19.0210  -22.6340  -10.8090 C.2     1  UNL1        0.0080
     38  C         18.5960  -21.4720  -11.4710 C.2     1  UNL1       -0.0620
     39  C         19.4380  -20.8740  -12.5650 C.3     1  UNL1        0.0480
     40  C         17.4080  -20.8430  -11.0660 C.2     1  UNL1        0.0080
     41  C         16.6360  -21.3820  -10.0330 C.2     1  UNL1        0.0260
@<TRIPOS>BOND
     1    23    22    1
     2    22    19    1
     3    19    18    2
     4    19    20    1
     5    18    17    1
     6    20    21    2
     7    17    16    2
     8    21    16    1
     9    16    14    1
    10    39    38    1
    11    15    14    1
    12    14    11    1
    13    38    40    2
    14    38    37    1
    15    40    41    1
    16    37    36    2
    17    13    11    2
    18    11    12    2
    19    11     8    1
    20    41    35    2
    21    36    35    1
    22    35    32    1
    23     8     7    2
    24     8     9    1
    25     7     6    1
    26     9    10    2
    27    34    32    2
    28     6     5    2
    29    32    33    2
    30    32    30    1
    31    10     5    1
    32     5     1    1
    33     4     1    1
    34     1     2   am
    35    30    31    1
    36    30    29    1
    37     2     3    2
    38     2    24    1
    39    29    24    2
    40    29    28    1
    41    24    25    1
    42    28    27    2
    43    25    26    2
    44    27    26    1
