@<TRIPOS>MOLECULE
37072_out_ligand_01.pdbqt
 35 39 0 0 0
SMALL
GASTEIGER

@<TRIPOS>ATOM
      1  N         20.2170  -20.4120   -5.6990 N.1     1  UNL1       -0.1910
      2  C         19.6030  -21.3650   -5.9490 C.1     1  UNL1        0.1000
      3  C         18.8370  -22.5300   -6.2560 C.2     1  UNL1        0.0560
      4  C         19.0080  -23.2750   -7.3680 C.2     1  UNL1        0.0370
      5  C         17.8110  -22.9690   -5.2850 C.2     1  UNL1       -0.0040
      6  C         18.2580  -23.6250   -4.1250 C.2     1  UNL1        0.0140
      7  C         17.3510  -24.0450   -3.1590 C.2     1  UNL1        0.0020
      8  C         15.9900  -23.8110   -3.3370 C.2     1  UNL1        0.0120
      9  C         15.5130  -23.1580   -4.4840 C.2     1  UNL1       -0.0250
     10  C         14.1360  -22.9310   -4.6440 C.2     1  UNL1        0.0120
     11  C         16.4220  -22.7270   -5.4830 C.2     1  UNL1       -0.0140
     12  C         13.6400  -22.2870   -5.7760 C.2     1  UNL1        0.0010
     13  C         14.5150  -21.8630   -6.7670 C.2     1  UNL1        0.0010
     14  C         15.8880  -22.0800   -6.6240 C.2     1  UNL1        0.0130
     15  C         19.9290  -23.0730   -8.4430 C.2     1  UNL1       -0.0070
     16  C         21.2530  -23.4500   -8.4670 C.2     1  UNL1        0.1040
     17  N         21.7890  -23.0510   -9.6660 N.pl3   1  UNL1       -0.3460
     18  C         20.8300  -22.4150  -10.4310 C.2     1  UNL1        0.0450
     19  C         20.8980  -21.8380  -11.7110 C.2     1  UNL1        0.0300
     20  C         19.6530  -22.3990   -9.6720 C.2     1  UNL1        0.0020
     21  C         19.7470  -21.2340  -12.2250 C.2     1  UNL1        0.0020
     22  C         18.5660  -21.2040  -11.4910 C.2     1  UNL1        0.0010
     23  C         18.5060  -21.7820  -10.2200 C.2     1  UNL1        0.0140
     24  C         23.1830  -23.2480  -10.0380 C.3     1  UNL1        0.2310
     25  C         23.8770  -21.9870  -10.5340 C.2     1  UNL1        0.2400
     26  O         23.9420  -21.0050   -9.7970 O.2     1  UNL1       -0.2710
     27  N         24.4610  -22.0870  -11.7870 N.am    1  UNL1       -0.3260
     28  H         24.3280  -22.9570  -12.2920 H       1  UNL1        0.1690
     29  C         25.1850  -21.1000  -12.4860 C.2     1  UNL1        0.0350
     30  C         24.6910  -20.7270  -13.7470 C.2     1  UNL1        0.0320
     31  C         25.3440  -19.7560  -14.5080 C.2     1  UNL1        0.0440
     32  C         26.4930  -19.1560  -14.0110 C.2     1  UNL1        0.1160
     33  F         27.1200  -18.2240  -14.7380 F       1  UNL1       -0.2060
     34  C         26.9960  -19.5110  -12.7660 C.2     1  UNL1        0.0440
     35  C         26.3420  -20.4840  -12.0030 C.2     1  UNL1        0.0320
@<TRIPOS>BOND
     1    33    32    1
     2    31    32    2
     3    31    30    1
     4    32    34    1
     5    30    29    2
     6    34    35    2
     7    29    35    1
     8    29    27    1
     9    28    27    1
    10    21    19    1
    11    21    22    2
    12    27    25   am
    13    19    18    2
    14    22    23    1
    15    25    24    1
    16    25    26    2
    17    18    20    1
    18    18    17    1
    19    23    20    2
    20    24    17    1
    21    20    15    1
    22    17    16    1
    23    16    15    2
    24    15     4    1
    25     4     3    2
    26    13    14    2
    27    13    12    1
    28    14    11    1
    29     3     2    1
    30     3     5    1
    31     2     1    3
    32    12    10    2
    33    11     5    2
    34    11     9    1
    35     5     6    1
    36    10     9    1
    37     9     8    2
    38     6     7    2
    39     8     7    1
