@<TRIPOS>MOLECULE
3713_out_ligand_01.pdbqt
 35 38 0 0 0
SMALL
GASTEIGER

@<TRIPOS>ATOM
      1  C         21.1800  -22.2730  -10.9660 C.2     1  UNL1        0.0340
      2  C         20.1070  -21.4620  -11.3450 C.2     1  UNL1        0.0310
      3  C         18.8250  -21.6950  -10.8330 C.2     1  UNL1        0.0270
      4  C         18.6210  -22.7400   -9.9310 C.2     1  UNL1        0.0800
      5  C         19.6750  -23.5830   -9.5740 C.2     1  UNL1        0.0270
      6  C         20.9510  -23.3430  -10.0880 C.2     1  UNL1        0.0310
      7  S         17.0010  -23.0160   -9.2530 S.O2    1  UNL1        0.2630
      8  O         16.5210  -21.7510   -8.7390 O.2     1  UNL1       -0.2000
      9  O         16.2340  -23.7670  -10.2250 O.2     1  UNL1       -0.2000
     10  N         17.3010  -23.9830   -7.9020 N.pl3   1  UNL1       -0.2800
     11  H         17.2890  -24.9770   -8.1180 H       1  UNL1        0.1790
     12  C         16.8170  -23.5630   -6.6230 C.2     1  UNL1        0.0530
     13  C         15.6420  -24.1500   -6.1450 C.2     1  UNL1        0.0310
     14  C         15.1510  -23.8130   -4.8890 C.2     1  UNL1        0.0030
     15  C         15.8370  -22.8920   -4.1020 C.2     1  UNL1        0.0120
     16  C         17.0220  -22.2930   -4.5570 C.2     1  UNL1       -0.0240
     17  C         17.7030  -21.3700   -3.7450 C.2     1  UNL1        0.0120
     18  C         17.5350  -22.6220   -5.8370 C.2     1  UNL1        0.0010
     19  C         18.8840  -20.7680   -4.1770 C.2     1  UNL1        0.0010
     20  C         19.4010  -21.0820   -5.4250 C.2     1  UNL1        0.0010
     21  C         18.7370  -21.9950   -6.2460 C.2     1  UNL1        0.0140
     22  N         22.5030  -22.0870  -11.4120 N.am    1  UNL1       -0.3260
     23  C         23.5860  -21.6010  -10.6900 C.2     1  UNL1        0.2360
     24  O         23.5530  -21.2070   -9.5290 O.2     1  UNL1       -0.2720
     25  H         22.7180  -22.4460  -12.3360 H       1  UNL1        0.1690
     26  C         24.8750  -21.5650  -11.5230 C.3     1  UNL1        0.1400
     27  C         25.9810  -20.7460  -10.8680 C.3     1  UNL1        0.0310
     28  S         25.4310  -23.2760  -11.9500 S.3     1  UNL1       -0.1160
     29  C         25.1390  -23.3220  -13.7080 C.2     1  UNL1        0.0010
     30  C         25.2960  -24.5010  -14.4450 C.2     1  UNL1        0.0200
     31  C         25.0550  -24.5090  -15.8210 C.2     1  UNL1        0.0250
     32  C         24.6390  -23.3440  -16.4590 C.2     1  UNL1        0.0340
     33 CL         24.3360  -23.3590  -18.1530 Cl      1  UNL1       -0.0840
     34  C         24.4570  -22.1690  -15.7330 C.2     1  UNL1        0.0250
     35  C         24.7050  -22.1610  -14.3570 C.2     1  UNL1        0.0200
@<TRIPOS>BOND
     1    33    32    1
     2    32    31    2
     3    32    34    1
     4    31    30    1
     5    34    35    2
     6    30    29    2
     7    35    29    1
     8    29    28    1
     9    25    22    1
    10    28    26    1
    11    26    27    1
    12    26    23    1
    13    22     1    1
    14    22    23   am
    15     2     1    2
    16     2     3    1
    17     1     6    1
    18     3     4    2
    19    23    24    2
    20     9     7    2
    21     6     5    2
    22     4     5    1
    23     4     7    1
    24     7     8    2
    25     7    10    1
    26    11    10    1
    27    10    12    1
    28    12    13    2
    29    12    18    1
    30    21    18    1
    31    21    20    2
    32    13    14    1
    33    18    16    2
    34    20    19    1
    35    14    15    2
    36    16    15    1
    37    16    17    1
    38    19    17    2
