@<TRIPOS>MOLECULE
37148_out_ligand_01.pdbqt
 41 44 0 0 0
SMALL
GASTEIGER

@<TRIPOS>ATOM
      1  C         18.9850  -22.0860   -6.3360 C.2     1  UNL1        0.2580
      2  O         19.4930  -21.0010   -6.0780 O.2     1  UNL1       -0.2670
      3  N         19.4610  -23.0510   -7.1940 N.am    1  UNL1       -0.3230
      4  H         18.8580  -23.8540   -7.3740 H       1  UNL1        0.1690
      5  C         20.7030  -23.0630   -7.8630 C.2     1  UNL1        0.0350
      6  C         21.1650  -24.1360   -8.6260 C.2     1  UNL1        0.0310
      7  C         22.3660  -24.0390   -9.3330 C.2     1  UNL1        0.0270
      8  C         23.0910  -22.8460   -9.3020 C.2     1  UNL1        0.0750
      9  C         22.6780  -21.7880   -8.4940 C.2     1  UNL1        0.0270
     10  C         21.4840  -21.9020   -7.7750 C.2     1  UNL1        0.0310
     11  S         24.5370  -22.6740  -10.3240 S.O2    1  UNL1        0.2450
     12  O         25.5740  -23.5140   -9.7740 O.2     1  UNL1       -0.2060
     13  O         24.7510  -21.2640  -10.5480 O.2     1  UNL1       -0.2060
     14  N         24.0290  -23.3240  -11.8130 N.pl3   1  UNL1       -0.1800
     15  H         24.3280  -24.2990  -11.8890 H       1  UNL1        0.1460
     16  C         24.2380  -22.5240  -12.9880 C.2     1  UNL1        0.0460
     17  C         23.2660  -21.5880  -13.3570 C.2     1  UNL1        0.0260
     18  C         23.4940  -20.7180  -14.4200 C.2     1  UNL1        0.0040
     19  C         24.6940  -20.7810  -15.1240 C.2     1  UNL1        0.0260
     20  C         25.6610  -21.7380  -14.7850 C.2     1  UNL1        0.0570
     21 CL         27.1200  -21.7590  -15.7080 Cl      1  UNL1       -0.0820
     22  C         25.4350  -22.6180  -13.7210 C.2     1  UNL1        0.0770
     23 CL         26.6030  -23.8270  -13.2790 Cl      1  UNL1       -0.0810
     24  C         17.7410  -22.4430   -5.6200 C.2     1  UNL1        0.0590
     25  C         17.6050  -21.8670   -4.3450 C.2     1  UNL1        0.0190
     26  C         16.4560  -22.0890   -3.5860 C.2     1  UNL1        0.0010
     27  C         15.4370  -22.8790   -4.0990 C.2     1  UNL1        0.0020
     28  C         15.5610  -23.4410   -5.3720 C.2     1  UNL1        0.0310
     29  C         16.7030  -23.2200   -6.1590 C.2     1  UNL1        0.0600
     30  N         16.7240  -23.8990   -7.4420 N.pl3   1  UNL1       -0.2750
     31  C         16.6650  -25.3790   -7.4130 C.3     1  UNL1        0.1700
     32  S         15.7670  -23.1150   -8.6370 S.O2    1  UNL1        0.2650
     33  O         15.0300  -24.1440   -9.3490 O.2     1  UNL1       -0.2000
     34  O         15.0590  -22.0060   -8.0310 O.2     1  UNL1       -0.2000
     35  C         16.9840  -22.4310   -9.7340 C.2     1  UNL1        0.0800
     36  C         16.7990  -21.1400  -10.2330 C.2     1  UNL1        0.0260
     37  C         17.7640  -20.5870  -11.0760 C.2     1  UNL1        0.0080
     38  C         18.9000  -21.3230  -11.4360 C.2     1  UNL1       -0.0620
     39  C         19.9490  -20.7010  -12.3100 C.3     1  UNL1        0.0480
     40  C         19.0650  -22.6210  -10.9350 C.2     1  UNL1        0.0080
     41  C         18.1050  -23.1820  -10.0920 C.2     1  UNL1        0.0260
@<TRIPOS>BOND
     1    21    20    1
     2    19    20    2
     3    19    18    1
     4    20    22    1
     5    18    17    2
     6    22    23    1
     7    22    16    2
     8    17    16    1
     9    16    14    1
    10    39    38    1
    11    15    14    1
    12    14    11    1
    13    38    37    2
    14    38    40    1
    15    37    36    1
    16    40    41    2
    17    13    11    2
    18    11    12    2
    19    11     8    1
    20    36    35    2
    21    41    35    1
    22    35    32    1
    23    33    32    2
    24     7     8    2
    25     7     6    1
    26     8     9    1
    27    32    34    2
    28    32    30    1
    29     6     5    2
    30     9    10    2
    31     5    10    1
    32     5     3    1
    33    30    31    1
    34    30    29    1
    35     4     3    1
    36     3     1   am
    37     1     2    2
    38     1    24    1
    39    29    24    2
    40    29    28    1
    41    24    25    1
    42    28    27    2
    43    25    26    2
    44    27    26    1
