@<TRIPOS>MOLECULE
371_out_ligand_01.pdbqt
 28 30 0 0 0
SMALL
GASTEIGER

@<TRIPOS>ATOM
      1  N         17.6070  -23.4210   -8.4560 N.am    1  UNL1       -0.3490
      2  C         17.9760  -22.7640   -9.6120 C.2     1  UNL1        0.2520
      3  O         17.1860  -22.2170  -10.3720 O.2     1  UNL1       -0.2680
      4  H         18.3230  -23.6350   -7.7780 H       1  UNL1        0.1630
      5  C         16.2240  -23.4030   -7.9890 C.3     1  UNL1        0.1140
      6  C         15.4870  -24.6460   -8.4930 C.3     1  UNL1        0.0370
      7  C         16.1360  -23.3140   -6.4650 C.2     1  UNL1       -0.0250
      8  C         15.0800  -23.9860   -5.8110 C.2     1  UNL1        0.0100
      9  C         14.9260  -23.9200   -4.4310 C.2     1  UNL1        0.0020
     10  C         15.8180  -23.1700   -3.6730 C.2     1  UNL1        0.0120
     11  C         16.8730  -22.4770   -4.2800 C.2     1  UNL1       -0.0250
     12  C         17.7480  -21.7200   -3.4800 C.2     1  UNL1        0.0120
     13  C         17.0550  -22.5360   -5.6880 C.2     1  UNL1       -0.0180
     14  C         18.8090  -21.0140   -4.0400 C.2     1  UNL1        0.0010
     15  C         19.0100  -21.0580   -5.4120 C.2     1  UNL1        0.0010
     16  C         18.1460  -21.8040   -6.2210 C.2     1  UNL1        0.0130
     17  C         19.4350  -22.7200   -9.9020 C.2     1  UNL1        0.0320
     18  C         19.9500  -22.0150  -10.9990 C.2     1  UNL1        0.0180
     19  C         21.3290  -21.9850  -11.2270 C.2     1  UNL1        0.0260
     20  C         22.1890  -22.6600  -10.3550 C.2     1  UNL1        0.0740
     21  C         21.6870  -23.3440   -9.2440 C.2     1  UNL1        0.0260
     22  C         20.3090  -23.3710   -9.0200 C.2     1  UNL1        0.0180
     23  S         23.9390  -22.5850  -10.6110 S.O2    1  UNL1        0.2390
     24  O         24.4150  -21.2730  -10.2440 O.2     1  UNL1       -0.2060
     25  O         24.2600  -23.2020  -11.8770 O.2     1  UNL1       -0.2060
     26  N         24.5070  -23.6390   -9.4320 N.3     1  UNL1       -0.2250
     27  H         24.5230  -24.5920   -9.7990 H       1  UNL1        0.1360
     28  H         23.9490  -23.5360   -8.5840 H       1  UNL1        0.1360
@<TRIPOS>BOND
     1    25    23    2
     2    19    18    1
     3    19    20    2
     4    18    17    2
     5    23    20    1
     6    23    24    2
     7    23    26    1
     8     3     2    2
     9    20    21    1
    10    17     2    1
    11    17    22    1
    12    27    26    1
    13     2     1   am
    14    26    28    1
    15    21    22    2
    16     6     5    1
    17     1     5    1
    18     1     4    1
    19     5     7    1
    20     7     8    2
    21     7    13    1
    22    16    13    1
    23    16    15    2
    24     8     9    1
    25    13    11    2
    26    15    14    1
    27     9    10    2
    28    11    10    1
    29    11    12    1
    30    14    12    2
