@<TRIPOS>MOLECULE
3736_out_ligand_01.pdbqt
 33 36 0 0 0
SMALL
GASTEIGER

@<TRIPOS>ATOM
      1  N         20.5450  -23.2700   -8.9570 N.pl3   1  UNL1       -0.3460
      2  C         21.8870  -23.0790   -8.7560 C.2     1  UNL1        0.1050
      3  C         22.3640  -22.2290   -9.7360 C.2     1  UNL1        0.0110
      4  C         21.2370  -21.8470  -10.5330 C.2     1  UNL1        0.0040
      5  C         21.0560  -20.9620  -11.6180 C.2     1  UNL1        0.0140
      6  C         19.7930  -20.8140  -12.2000 C.2     1  UNL1        0.0010
      7  C         18.7050  -21.5270  -11.7110 C.2     1  UNL1        0.0020
      8  C         18.8460  -22.3950  -10.6260 C.2     1  UNL1        0.0300
      9  C         20.1180  -22.5350  -10.0450 C.2     1  UNL1        0.0450
     10  C         23.7520  -21.8120   -9.8140 C.2     1  UNL1        0.1520
     11  N         24.6620  -22.2700  -10.6220 N.2     1  UNL1       -0.1850
     12  N         24.3440  -23.3040  -11.4430 N.pl3   1  UNL1       -0.2610
     13  H         24.5010  -24.2720  -11.1640 H       1  UNL1        0.1910
     14  C         24.5040  -23.1700  -12.8270 C.2     1  UNL1        0.1430
     15  C         24.0190  -22.0570  -13.5170 C.2     1  UNL1        0.0540
     16  C         24.1830  -21.9740  -14.9000 C.2     1  UNL1        0.0410
     17  C         24.8270  -23.0190  -15.5570 C.2     1  UNL1        0.1200
     18  C         25.2770  -24.0970  -14.8140 C.2     1  UNL1        0.1550
     19  N         25.1220  -24.1900  -13.4680 N.2     1  UNL1       -0.2390
     20  N         25.0290  -22.9940  -16.9970 N.pl3   1  UNL1       -0.1140
     21  O         24.0620  -22.6940  -17.7100 O.2     1  UNL1       -0.5320
     22  O         26.1590  -23.2730  -17.4250 O.2     1  UNL1       -0.5320
     23  C         19.7060  -24.1050   -8.1100 C.3     1  UNL1        0.2310
     24  C         18.8490  -23.3110   -7.1360 C.2     1  UNL1        0.2400
     25  O         19.3230  -22.3190   -6.5830 O.2     1  UNL1       -0.2710
     26  N         17.5910  -23.8440   -6.9060 N.am    1  UNL1       -0.3260
     27  H         17.3190  -24.6490   -7.4590 H       1  UNL1        0.1690
     28  C         16.5960  -23.3610   -6.0310 C.2     1  UNL1        0.0340
     29  C         16.5810  -23.5890   -4.6550 C.2     1  UNL1        0.0290
     30  C         15.5500  -23.0720   -3.8620 C.2     1  UNL1        0.0020
     31  C         14.5260  -22.3260   -4.4390 C.2     1  UNL1        0.0000
     32  C         14.5300  -22.0930   -5.8110 C.2     1  UNL1        0.0020
     33  C         15.5600  -22.6080   -6.6030 C.2     1  UNL1        0.0290
@<TRIPOS>BOND
     1    21    20    2
     2    22    20    2
     3    20    17    1
     4    17    16    2
     5    17    18    1
     6    16    15    1
     7    18    19    2
     8    15    14    2
     9    19    14    1
    10    14    12    1
    11     6     7    2
    12     6     5    1
    13     7     8    1
    14     5     4    2
    15    12    13    1
    16    12    11    1
    17     8     9    2
    18    11    10    2
    19     4     9    1
    20     4     3    1
    21     9     1    1
    22    10     3    1
    23     3     2    2
    24     1     2    1
    25     1    23    1
    26    23    24    1
    27    27    26    1
    28    24    26   am
    29    24    25    2
    30    26    28    1
    31    33    28    2
    32    33    32    1
    33    28    29    1
    34    32    31    2
    35    29    30    2
    36    31    30    1
