@<TRIPOS>MOLECULE
3745_out_ligand_01.pdbqt
 36 38 0 0 0
SMALL
GASTEIGER

@<TRIPOS>ATOM
      1  N         23.3090  -22.5720  -10.4670 N.3     1  UNL1       -0.2980
      2  S         24.8760  -22.1340  -10.9910 S.O2    1  UNL1        0.2610
      3  O         25.8080  -23.1070  -10.4650 O.2     1  UNL1       -0.2000
      4  O         25.0550  -20.7180  -10.7620 O.2     1  UNL1       -0.2000
      5  C         24.7630  -22.4100  -12.7440 C.2     1  UNL1        0.0790
      6  C         25.1530  -23.6440  -13.2680 C.2     1  UNL1        0.0260
      7  C         25.0760  -23.8660  -14.6440 C.2     1  UNL1        0.0080
      8  C         24.6120  -22.8570  -15.4990 C.2     1  UNL1       -0.0620
      9  C         24.5620  -23.0820  -16.9830 C.3     1  UNL1        0.0480
     10  C         24.2610  -21.6090  -14.9630 C.2     1  UNL1        0.0080
     11  C         24.3390  -21.3810  -13.5890 C.2     1  UNL1        0.0260
     12  C         22.2030  -21.6040  -10.7080 C.3     1  UNL1        0.1400
     13  C         21.2600  -22.0040  -11.8500 C.3     1  UNL1        0.0590
     14  C         19.8160  -21.8250  -11.4480 C.2     1  UNL1       -0.0570
     15  C         19.1000  -22.8800  -10.8680 C.2     1  UNL1        0.0070
     16  C         17.7570  -22.7140  -10.5220 C.2     1  UNL1        0.0010
     17  C         17.1220  -21.4970  -10.7540 C.2     1  UNL1        0.0000
     18  C         17.8250  -20.4420  -11.3330 C.2     1  UNL1        0.0010
     19  C         19.1670  -20.6060  -11.6810 C.2     1  UNL1        0.0070
     20  C         23.2670  -23.2710   -9.1460 C.3     1  UNL1        0.2380
     21  C         21.8490  -23.7150   -8.7880 C.2     1  UNL1        0.2400
     22  O         21.3950  -24.7790   -9.1960 O.2     1  UNL1       -0.2710
     23  N         21.2350  -22.8450   -7.9000 N.am    1  UNL1       -0.3260
     24  H         21.8000  -22.0380   -7.6540 H       1  UNL1        0.1690
     25  C         19.9460  -22.9240   -7.3480 C.2     1  UNL1        0.0340
     26  C         19.4890  -21.8090   -6.6310 C.2     1  UNL1        0.0310
     27  C         18.2180  -21.8030   -6.0530 C.2     1  UNL1        0.0270
     28  C         17.3960  -22.9230   -6.1940 C.2     1  UNL1        0.0740
     29  C         17.8290  -24.0330   -6.9200 C.2     1  UNL1        0.0270
     30  C         19.1060  -24.0330   -7.4890 C.2     1  UNL1        0.0310
     31  S         15.7750  -22.9170   -5.4750 S.O2    1  UNL1        0.2390
     32  O         15.4510  -24.2630   -5.0630 O.2     1  UNL1       -0.2060
     33  O         14.9040  -22.1280   -6.3130 O.2     1  UNL1       -0.2060
     34  N         16.0420  -22.0530   -4.0540 N.3     1  UNL1       -0.2250
     35  H         16.5380  -22.6540   -3.3940 H       1  UNL1        0.1360
     36  H         16.5320  -21.1710   -4.2040 H       1  UNL1        0.1360
@<TRIPOS>BOND
     1     9     8    1
     2     8    10    2
     3     8     7    1
     4    10    11    1
     5     7     6    2
     6    11     5    2
     7     6     5    1
     8     5     2    1
     9    13    14    1
    10    13    12    1
    11    19    14    2
    12    19    18    1
    13    14    15    1
    14    18    17    2
    15     2     4    2
    16     2     1    1
    17     2     3    2
    18    15    16    2
    19    17    16    1
    20    12     1    1
    21     1    20    1
    22    22    21    2
    23    20    21    1
    24    21    23   am
    25    23    24    1
    26    23    25    1
    27    30    25    2
    28    30    29    1
    29    25    26    1
    30    29    28    2
    31    26    27    2
    32    33    31    2
    33    28    27    1
    34    28    31    1
    35    31    32    2
    36    31    34    1
    37    36    34    1
    38    34    35    1
