@<TRIPOS>MOLECULE
3748_out_ligand_01.pdbqt
 31 34 0 0 0
SMALL
GASTEIGER

@<TRIPOS>ATOM
      1  C         19.3980  -22.2490  -10.0800 C.2     1  UNL1        0.0340
      2  C         18.5660  -21.3450  -10.7470 C.2     1  UNL1        0.0170
      3  C         19.0280  -20.7060  -11.8970 C.2     1  UNL1        0.0030
      4  C         20.3120  -20.9730  -12.3850 C.2     1  UNL1        0.0290
      5  C         21.1430  -21.8900  -11.7390 C.2     1  UNL1        0.0350
      6  C         20.6750  -22.5310  -10.5850 C.2     1  UNL1        0.0460
      7  C         18.9550  -22.9570   -8.8450 C.2     1  UNL1        0.2560
      8  O         19.6230  -23.9090   -8.4590 O.2     1  UNL1       -0.2670
      9  N         17.8420  -22.4090   -8.2320 N.am    1  UNL1       -0.3220
     10  H         17.5260  -21.5290   -8.6040 H       1  UNL1        0.1690
     11  C         17.1490  -22.8850   -7.0860 C.2     1  UNL1        0.0460
     12  C         16.0990  -23.8060   -7.2080 C.2     1  UNL1        0.0300
     13  C         15.4090  -24.2580   -6.0870 C.2     1  UNL1        0.0030
     14  C         15.7540  -23.7950   -4.8230 C.2     1  UNL1        0.0120
     15  C         16.7930  -22.8720   -4.6590 C.2     1  UNL1       -0.0240
     16  C         17.1130  -22.4240   -3.3660 C.2     1  UNL1        0.0120
     17  C         17.5140  -22.3970   -5.7880 C.2     1  UNL1        0.0010
     18  C         18.1400  -21.5090   -3.1530 C.2     1  UNL1        0.0010
     19  C         18.8630  -21.0310   -4.2340 C.2     1  UNL1        0.0010
     20  C         18.5580  -21.4670   -5.5270 C.2     1  UNL1        0.0140
     21  N         22.4400  -22.2260  -12.1780 N.am    1  UNL1       -0.3230
     22  C         23.6290  -22.0650  -11.4950 C.2     1  UNL1        0.2570
     23  O         23.7730  -21.6540  -10.3490 O.2     1  UNL1       -0.2670
     24  H         22.5020  -22.6110  -13.1140 H       1  UNL1        0.1690
     25  C         24.8400  -22.5200  -12.2260 C.2     1  UNL1        0.0490
     26  C         24.7430  -23.7630  -12.8740 C.2     1  UNL1        0.0180
     27  C         25.8210  -24.2710  -13.6000 C.2     1  UNL1        0.0010
     28  C         27.0070  -23.5450  -13.6770 C.2     1  UNL1        0.0010
     29  C         27.1210  -22.3190  -13.0190 C.2     1  UNL1        0.0200
     30  C         26.0430  -21.8040  -12.2880 C.2     1  UNL1        0.0260
     31 BR         26.3330  -20.1630  -11.3770 Br      1  UNL1       -0.0500
@<TRIPOS>BOND
     1    28    27    2
     2    28    29    1
     3    27    26    1
     4    24    21    1
     5    29    30    2
     6    26    25    2
     7     4     3    2
     8     4     5    1
     9    30    25    1
    10    30    31    1
    11    25    22    1
    12    21     5    1
    13    21    22   am
    14     3     2    1
    15     5     6    2
    16    22    23    2
    17     2     1    2
    18     6     1    1
    19     1     7    1
    20     7     8    2
    21     7     9   am
    22    10     9    1
    23     9    11    1
    24    12    11    2
    25    12    13    1
    26    11    17    1
    27    13    14    2
    28    17    20    1
    29    17    15    2
    30    20    19    2
    31    14    15    1
    32    15    16    1
    33    19    18    1
    34    16    18    2
