@<TRIPOS>MOLECULE
3749_out_ligand_01.pdbqt
 32 35 0 0 0
SMALL
GASTEIGER

@<TRIPOS>ATOM
      1  C         21.1960  -22.0620  -11.5290 C.2     1  UNL1        0.0350
      2  C         20.4090  -21.1120  -12.1950 C.2     1  UNL1        0.0290
      3  C         19.1210  -20.8040  -11.7510 C.2     1  UNL1        0.0030
      4  C         18.6020  -21.4490  -10.6320 C.2     1  UNL1        0.0170
      5  C         19.3790  -22.4020   -9.9620 C.2     1  UNL1        0.0340
      6  C         20.6760  -22.6990  -10.4010 C.2     1  UNL1        0.0460
      7  C         18.8500  -23.0930   -8.7570 C.2     1  UNL1        0.2560
      8  O         19.4160  -24.1060   -8.3740 O.2     1  UNL1       -0.2670
      9  N         17.7280  -22.4900   -8.2140 N.am    1  UNL1       -0.3220
     10  H         17.3400  -21.7330   -8.7540 H       1  UNL1        0.1690
     11  C         17.0140  -22.8570   -7.0430 C.2     1  UNL1        0.0460
     12  C         15.9110  -23.7180   -7.1090 C.2     1  UNL1        0.0300
     13  C         15.2200  -24.0910   -5.9590 C.2     1  UNL1        0.0030
     14  C         15.6240  -23.6100   -4.7200 C.2     1  UNL1        0.0120
     15  C         16.7220  -22.7490   -4.6090 C.2     1  UNL1       -0.0240
     16  C         17.1020  -22.2840   -3.3380 C.2     1  UNL1        0.0120
     17  C         17.4410  -22.3530   -5.7700 C.2     1  UNL1        0.0010
     18  C         18.1860  -21.4250   -3.1800 C.2     1  UNL1        0.0010
     19  C         18.9030  -21.0190   -4.2930 C.2     1  UNL1        0.0010
     20  C         18.5390  -21.4730   -5.5650 C.2     1  UNL1        0.0140
     21  N         22.4820  -22.3030  -12.0530 N.am    1  UNL1       -0.3230
     22  C         23.7040  -21.9190  -11.5370 C.2     1  UNL1        0.2590
     23  O         23.8600  -21.3120  -10.4810 O.2     1  UNL1       -0.2670
     24  H         22.5240  -22.8480  -12.9080 H       1  UNL1        0.1690
     25  C         24.9250  -22.2900  -12.3400 C.2     1  UNL1        0.0650
     26  C         25.0660  -23.6570  -12.6510 C.2     1  UNL1        0.0200
     27  C         26.1540  -24.1240  -13.3870 C.2     1  UNL1        0.0010
     28  C         27.1210  -23.2300  -13.8240 C.2     1  UNL1        0.0030
     29  C         27.0020  -21.8700  -13.5280 C.2     1  UNL1        0.0380
     30  C         25.9110  -21.3820  -12.7890 C.2     1  UNL1        0.0840
     31  O         25.7510  -20.0530  -12.4780 O.2     1  UNL1       -0.3550
     32  C         26.7140  -19.4470  -11.6210 C.3     1  UNL1        0.2100
@<TRIPOS>BOND
     1    28    29    2
     2    28    27    1
     3    29    30    1
     4    27    26    2
     5    24    21    1
     6    30    31    1
     7    30    25    2
     8    26    25    1
     9    31    32    1
    10    25    22    1
    11     2     3    1
    12     2     1    2
    13    21    22   am
    14    21     1    1
    15     3     4    2
    16    22    23    2
    17     1     6    1
    18     4     5    1
    19     6     5    2
    20     5     7    1
    21     7     8    2
    22     7     9   am
    23    10     9    1
    24     9    11    1
    25    12    11    2
    26    12    13    1
    27    11    17    1
    28    13    14    2
    29    17    20    1
    30    17    15    2
    31    20    19    2
    32    14    15    1
    33    15    16    1
    34    19    18    1
    35    16    18    2
