@<TRIPOS>MOLECULE
374_out_ligand_01.pdbqt
 39 41 0 0 0
SMALL
GASTEIGER

@<TRIPOS>ATOM
      1  C         23.5700  -21.9910  -12.0650 C.2     1  UNL1        0.0860
      2  C         22.2810  -21.8340  -11.5240 C.2     1  UNL1        0.0420
      3  C         21.2510  -21.3010  -12.3070 C.2     1  UNL1        0.0330
      4  C         21.5210  -20.9100  -13.6230 C.2     1  UNL1        0.0170
      5  C         22.7980  -21.0740  -14.1620 C.2     1  UNL1        0.0090
      6  C         23.8370  -21.6300  -13.4010 C.2     1  UNL1       -0.0390
      7  C         25.1880  -21.7880  -14.0420 C.3     1  UNL1        0.0500
      8  C         19.8660  -21.1030  -11.7870 C.2     1  UNL1        0.2510
      9  O         19.1250  -20.2800  -12.3130 O.2     1  UNL1       -0.2680
     10  N         19.4730  -21.9030  -10.7350 N.am    1  UNL1       -0.3570
     11  H         20.0130  -22.7270  -10.5100 H       1  UNL1        0.1620
     12  C         18.1030  -21.8820  -10.2500 C.3     1  UNL1        0.1270
     13  C         17.5680  -23.2830   -9.9280 C.3     1  UNL1        0.0580
     14  C         17.0430  -23.3880   -8.5130 C.2     1  UNL1       -0.0570
     15  C         17.5030  -24.4050   -7.6630 C.2     1  UNL1        0.0090
     16  C         17.0520  -24.4820   -6.3440 C.2     1  UNL1        0.0250
     17  C         16.1290  -23.5430   -5.8760 C.2     1  UNL1        0.0740
     18  C         15.6710  -22.5200   -6.7070 C.2     1  UNL1        0.0250
     19  C         16.1260  -22.4470   -8.0250 C.2     1  UNL1        0.0090
     20  S         15.5880  -23.6070   -4.1930 S.O2    1  UNL1        0.2390
     21  O         15.1900  -22.2840   -3.7700 O.2     1  UNL1       -0.2060
     22  O         14.7430  -24.7650   -4.0130 O.2     1  UNL1       -0.2060
     23  N         17.0180  -23.9440   -3.3770 N.3     1  UNL1       -0.2250
     24  H         17.2590  -23.1660   -2.7620 H       1  UNL1        0.1360
     25  H         17.7510  -24.1850   -4.0450 H       1  UNL1        0.1360
     26  S         24.8700  -22.6550  -11.0300 S.O2    1  UNL1        0.2630
     27  O         25.6360  -23.5400  -11.8810 O.2     1  UNL1       -0.2000
     28  O         25.4930  -21.5680  -10.3080 O.2     1  UNL1       -0.2000
     29  N         24.0950  -23.6550   -9.9290 N.pl3   1  UNL1       -0.2810
     30  H         24.7110  -24.3980   -9.5990 H       1  UNL1        0.1790
     31  C         23.0160  -23.2480   -9.0910 C.2     1  UNL1        0.0420
     32  C         22.9720  -22.0360   -8.4050 C.2     1  UNL1        0.0330
     33  C         21.8310  -21.6810   -7.6740 C.2     1  UNL1        0.0390
     34  C         20.7130  -22.5120   -7.6400 C.2     1  UNL1        0.0680
     35  C         20.7420  -23.7120   -8.3480 C.2     1  UNL1        0.0390
     36  C         21.8830  -24.0690   -9.0780 C.2     1  UNL1        0.0330
     37  O         19.6720  -22.0430   -6.8930 O.2     1  UNL1       -0.3520
     38  C         19.9660  -21.0300   -5.9290 C.3     1  UNL1        0.1710
     39  C         18.8540  -21.0300   -4.8960 C.3     1  UNL1        0.0340
@<TRIPOS>BOND
     1     5     4    2
     2     5     6    1
     3     7     6    1
     4     4     3    1
     5     6     1    2
     6     9     8    2
     7     3     8    1
     8     3     2    2
     9     1     2    1
    10     1    26    1
    11    27    26    2
    12     8    10   am
    13    26    28    2
    14    26    29    1
    15    10    11    1
    16    10    12    1
    17    12    13    1
    18    29    30    1
    19    29    31    1
    20    13    14    1
    21    31    36    2
    22    31    32    1
    23    36    35    1
    24    14    19    2
    25    14    15    1
    26    32    33    2
    27    35    34    2
    28    19    18    1
    29    33    34    1
    30    15    16    2
    31    34    37    1
    32    37    38    1
    33    18    17    2
    34    16    17    1
    35    38    39    1
    36    17    20    1
    37    20    22    2
    38    20    21    2
    39    20    23    1
    40    25    23    1
    41    23    24    1
