@<TRIPOS>MOLECULE
3750_out_ligand_01.pdbqt
 31 34 0 0 0
SMALL
GASTEIGER

@<TRIPOS>ATOM
      1  C         26.1820  -21.3960  -12.4860 C.2     1  UNL1        0.0350
      2  C         27.1210  -22.3800  -12.1740 C.2     1  UNL1        0.0290
      3  C         26.8700  -23.3110  -11.1590 C.2     1  UNL1        0.0030
      4  C         25.6780  -23.2600  -10.4380 C.2     1  UNL1        0.0170
      5  C         24.7370  -22.2670  -10.7300 C.2     1  UNL1        0.0340
      6  C         24.9850  -21.3510  -11.7620 C.2     1  UNL1        0.0460
      7  C         23.4450  -22.1670   -9.9920 C.2     1  UNL1        0.2560
      8  O         23.3240  -21.2650   -9.1740 O.2     1  UNL1       -0.2670
      9  N         22.5300  -23.1600  -10.2920 N.am    1  UNL1       -0.3220
     10  H         22.8710  -23.9100  -10.8710 H       1  UNL1        0.1690
     11  C         21.2030  -23.3040   -9.8050 C.2     1  UNL1        0.0460
     12  C         20.9120  -24.1810   -8.7510 C.2     1  UNL1        0.0300
     13  C         19.6150  -24.3090   -8.2610 C.2     1  UNL1        0.0030
     14  C         18.5860  -23.5590   -8.8160 C.2     1  UNL1        0.0120
     15  C         18.8350  -22.6680   -9.8670 C.2     1  UNL1       -0.0240
     16  C         17.7690  -21.9230  -10.4000 C.2     1  UNL1        0.0120
     17  C         20.1500  -22.5220  -10.3850 C.2     1  UNL1        0.0010
     18  C         17.9680  -21.0290  -11.4470 C.2     1  UNL1        0.0010
     19  C         19.2390  -20.8670  -11.9760 C.2     1  UNL1        0.0010
     20  C         20.3100  -21.6010  -11.4560 C.2     1  UNL1        0.0140
     21  N         26.3520  -20.4390  -13.5090 N.am    1  UNL1       -0.3230
     22  C         25.8770  -20.5060  -14.8060 C.2     1  UNL1        0.2560
     23  O         25.2930  -21.4490  -15.3270 O.2     1  UNL1       -0.2670
     24  H         26.9400  -19.6500  -13.2740 H       1  UNL1        0.1690
     25  C         26.1620  -19.3050  -15.6420 C.2     1  UNL1        0.0320
     26  C         26.5800  -18.1300  -15.0030 C.2     1  UNL1        0.0180
     27  C         26.8590  -16.9840  -15.7510 C.2     1  UNL1        0.0200
     28  C         26.7290  -17.0170  -17.1390 C.2     1  UNL1        0.0110
     29 BR         27.1090  -15.4680  -18.1530 Br      1  UNL1       -0.0510
     30  C         26.3310  -18.1860  -17.7870 C.2     1  UNL1        0.0200
     31  C         26.0510  -19.3350  -17.0400 C.2     1  UNL1        0.0180
@<TRIPOS>BOND
     1    29    28    1
     2    30    28    2
     3    30    31    1
     4    28    27    1
     5    31    25    2
     6    27    26    2
     7    25    26    1
     8    25    22    1
     9    23    22    2
    10    22    21   am
    11    21    24    1
    12    21     1    1
    13     1     2    2
    14     1     6    1
    15     2     3    1
    16    19    20    2
    17    19    18    1
    18     6     5    2
    19    20    17    1
    20    18    16    2
    21     3     4    2
    22    10     9    1
    23     5     4    1
    24     5     7    1
    25    16    15    1
    26    17    15    1
    27    17    11    2
    28     9     7   am
    29     9    11    1
    30     7     8    2
    31    15    14    2
    32    11    12    1
    33    14    13    1
    34    12    13    2
