@<TRIPOS>MOLECULE
37500_out_ligand_01.pdbqt
 35 39 0 0 0
SMALL
GASTEIGER

@<TRIPOS>ATOM
      1  O         19.7010  -21.4140   -6.5140 O.2     1  UNL1       -0.2670
      2  C         19.7990  -22.4040   -7.2290 C.2     1  UNL1        0.2560
      3  N         18.8440  -23.3810   -7.4190 N.am    1  UNL1       -0.3200
      4  H         19.0250  -24.0720   -8.1370 H       1  UNL1        0.1690
      5  C         21.0490  -22.5940   -8.0200 C.2     1  UNL1        0.0320
      6  C         22.0670  -21.6320   -8.0350 C.2     1  UNL1        0.0170
      7  C         23.2250  -21.8540   -8.7840 C.2     1  UNL1        0.0100
      8  C         23.3750  -23.0290   -9.5380 C.2     1  UNL1       -0.0300
      9  C         22.3420  -23.9770   -9.5330 C.2     1  UNL1        0.0100
     10  C         21.1840  -23.7580   -8.7840 C.2     1  UNL1        0.0170
     11  C         24.6380  -23.2710  -10.3430 C.3     1  UNL1        0.3110
     12  N         25.2950  -22.0250  -10.7690 N.3     1  UNL1        0.0970
     13  C         26.7300  -22.2200  -11.0340 C.3     1  UNL1        0.2770
     14  C         27.0390  -23.1540  -12.2150 C.3     1  UNL1        0.0690
     15  C         26.1470  -22.9070  -13.4050 C.2     1  UNL1       -0.0490
     16  C         26.4400  -23.5080  -14.6360 C.2     1  UNL1        0.0070
     17  C         24.9840  -22.1260  -13.2690 C.2     1  UNL1       -0.0240
     18  C         25.5980  -23.3200  -15.7320 C.2     1  UNL1        0.0010
     19  C         24.4550  -22.5340  -15.6050 C.2     1  UNL1        0.0010
     20  C         24.1510  -21.9360  -14.3820 C.2     1  UNL1        0.0090
     21  C         24.6610  -21.4310  -11.9620 C.3     1  UNL1        0.3110
     22  C         17.5960  -23.5220   -6.7710 C.2     1  UNL1        0.0700
     23  C         17.4080  -23.3130   -5.4030 C.2     1  UNL1        0.0560
     24  C         16.1350  -23.4560   -4.8420 C.2     1  UNL1        0.0360
     25 CL         15.9120  -23.1930   -3.1530 Cl      1  UNL1       -0.0840
     26  C         15.0380  -23.8050   -5.6280 C.2     1  UNL1        0.0260
     27  C         15.2120  -24.0240   -6.9920 C.2     1  UNL1        0.0410
     28  C         16.4870  -23.9040   -7.5510 C.2     1  UNL1        0.1020
     29  O         16.5950  -24.1020   -8.9110 O.2     1  UNL1       -0.3090
     30  C         16.9360  -23.0220   -9.7010 C.2     1  UNL1        0.0760
     31  C         18.1220  -23.1700  -10.4260 C.2     1  UNL1        0.0370
     32  C         18.5580  -22.1550  -11.2780 C.2     1  UNL1        0.0030
     33  C         17.8130  -20.9830  -11.4020 C.2     1  UNL1        0.0000
     34  C         16.6370  -20.8260  -10.6700 C.2     1  UNL1        0.0030
     35  C         16.1980  -21.8400   -9.8150 C.2     1  UNL1        0.0370
@<TRIPOS>BOND
     1    18    19    2
     2    18    16    1
     3    19    20    1
     4    16    15    2
     5    20    17    2
     6    15    17    1
     7    15    14    1
     8    17    21    1
     9    14    13    1
    10    21    12    1
    11    33    32    2
    12    33    34    1
    13    32    31    1
    14    13    12    1
    15    12    11    1
    16    34    35    2
    17    31    30    2
    18    11     8    1
    19    35    30    1
    20    30    29    1
    21     8     9    2
    22     8     7    1
    23     9    10    1
    24    29    28    1
    25    10     5    2
    26     7     6    2
    27     4     3    1
    28     6     5    1
    29     5     2    1
    30    28    27    1
    31    28    22    2
    32     3     2   am
    33     3    22    1
    34     2     1    2
    35    27    26    2
    36    22    23    1
    37    26    24    1
    38    23    24    2
    39    24    25    1
