@<TRIPOS>MOLECULE
3758_out_ligand_01.pdbqt
 35 38 0 0 0
SMALL
GASTEIGER

@<TRIPOS>ATOM
      1  C         19.9410  -21.9900  -11.4560 C.2     1  UNL1        0.0220
      2  C         18.6960  -21.4170  -11.7210 C.2     1  UNL1        0.0260
      3  C         17.5820  -21.7860  -10.9650 C.2     1  UNL1        0.0270
      4  C         17.7330  -22.7140   -9.9300 C.2     1  UNL1        0.0800
      5  C         18.9770  -23.2930   -9.6630 C.2     1  UNL1        0.0270
      6  C         20.0860  -22.9210  -10.4240 C.2     1  UNL1        0.0260
      7  S         16.3230  -23.1540   -8.9460 S.O2    1  UNL1        0.2630
      8  O         15.4760  -24.0350   -9.7190 O.2     1  UNL1       -0.2000
      9  O         15.7970  -21.9290   -8.3810 O.2     1  UNL1       -0.2000
     10  N         17.0160  -24.0020   -7.6640 N.pl3   1  UNL1       -0.2800
     11  H         17.9520  -24.3350   -7.8840 H       1  UNL1        0.1790
     12  C         16.7750  -23.5420   -6.3330 C.2     1  UNL1        0.0530
     13  C         15.6750  -24.0810   -5.6580 C.2     1  UNL1        0.0310
     14  C         15.3790  -23.6670   -4.3640 C.2     1  UNL1        0.0030
     15  C         16.1820  -22.7120   -3.7410 C.2     1  UNL1        0.0120
     16  C         17.2900  -22.1570   -4.4010 C.2     1  UNL1       -0.0240
     17  C         18.0910  -21.1980   -3.7580 C.2     1  UNL1        0.0120
     18  C         17.6020  -22.5650   -5.7220 C.2     1  UNL1        0.0010
     19  C         19.1910  -20.6330   -4.4030 C.2     1  UNL1        0.0010
     20  C         19.5050  -21.0180   -5.7000 C.2     1  UNL1        0.0010
     21  C         18.7200  -21.9720   -6.3530 C.2     1  UNL1        0.0140
     22  N         21.0890  -21.5420  -12.1920 N.pl3   1  UNL1       -0.1810
     23  H         21.1050  -21.9900  -13.1110 H       1  UNL1        0.1460
     24  S         22.5650  -21.9100  -11.4270 S.O2    1  UNL1        0.2480
     25  O         22.7950  -21.0450  -10.2940 O.2     1  UNL1       -0.2050
     26  O         22.5900  -23.3510  -11.2840 O.2     1  UNL1       -0.2050
     27  C         23.7380  -21.4830  -12.6810 C.2     1  UNL1        0.1070
     28  C         23.2810  -21.2950  -13.9950 C.2     1  UNL1        0.0270
     29  C         24.1900  -21.0340  -15.0250 C.2     1  UNL1        0.0020
     30  C         25.5590  -20.9720  -14.7580 C.2     1  UNL1        0.0030
     31  C         26.0250  -21.1680  -13.4590 C.2     1  UNL1        0.0380
     32  C         25.1080  -21.4240  -12.4280 C.2     1  UNL1        0.1250
     33  N         25.6510  -21.5750  -11.0950 N.pl3   1  UNL1       -0.1140
     34  O         25.9050  -20.5350  -10.4760 O.2     1  UNL1       -0.5320
     35  O         25.8960  -22.7280  -10.7170 O.2     1  UNL1       -0.5320
@<TRIPOS>BOND
     1    29    30    2
     2    29    28    1
     3    30    31    1
     4    28    27    2
     5    31    32    2
     6    23    22    1
     7    27    32    1
     8    27    24    1
     9    32    33    1
    10    22     1    1
    11    22    24    1
    12     2     1    2
    13     2     3    1
    14     1     6    1
    15    24    26    2
    16    24    25    2
    17    33    35    2
    18    33    34    2
    19     3     4    2
    20     6     5    2
    21     4     5    1
    22     4     7    1
    23     8     7    2
    24     7     9    2
    25     7    10    1
    26    11    10    1
    27    10    12    1
    28    21    18    1
    29    21    20    2
    30    12    18    2
    31    12    13    1
    32    18    16    1
    33    20    19    1
    34    13    14    2
    35    19    17    2
    36    16    17    1
    37    16    15    2
    38    14    15    1
