@<TRIPOS>MOLECULE
37621_out_ligand_01.pdbqt
 35 39 0 0 0
SMALL
GASTEIGER

@<TRIPOS>ATOM
      1  O         19.6830  -20.6930  -11.5420 O.2     1  UNL1       -0.2670
      2  C         20.0200  -21.7520  -11.0260 C.2     1  UNL1        0.2560
      3  N         21.2260  -22.4100  -11.1950 N.am    1  UNL1       -0.3230
      4  H         21.3940  -23.2120  -10.6020 H       1  UNL1        0.1690
      5  C         19.0730  -22.4130  -10.0840 C.2     1  UNL1        0.0320
      6  C         17.7060  -22.3800  -10.3800 C.2     1  UNL1        0.0170
      7  C         16.7840  -22.9900   -9.5240 C.2     1  UNL1        0.0100
      8  C         17.2210  -23.6510   -8.3680 C.2     1  UNL1       -0.0300
      9  C         18.5950  -23.6930   -8.0840 C.2     1  UNL1        0.0100
     10  C         19.5180  -23.0850   -8.9390 C.2     1  UNL1        0.0170
     11  C         16.2220  -24.3140   -7.4370 C.3     1  UNL1        0.3110
     12  N         15.3180  -23.3510   -6.7900 N.3     1  UNL1        0.0970
     13  C         14.7650  -23.8720   -5.5290 C.3     1  UNL1        0.2770
     14  C         15.8060  -24.1070   -4.4230 C.3     1  UNL1        0.0690
     15  C         16.8160  -22.9910   -4.3250 C.2     1  UNL1       -0.0490
     16  C         17.6920  -22.9360   -3.2320 C.2     1  UNL1        0.0070
     17  C         16.9260  -22.0410   -5.3570 C.2     1  UNL1       -0.0240
     18  C         18.6570  -21.9310   -3.1530 C.2     1  UNL1        0.0010
     19  C         18.7570  -20.9790   -4.1640 C.2     1  UNL1        0.0010
     20  C         17.8930  -21.0310   -5.2600 C.2     1  UNL1        0.0090
     21  C         15.9670  -22.0520   -6.5300 C.3     1  UNL1        0.3110
     22  C         22.2930  -22.0400  -12.0380 C.2     1  UNL1        0.0350
     23  C         23.5910  -22.3270  -11.5860 C.2     1  UNL1        0.0310
     24  C         24.7060  -22.0010  -12.3620 C.2     1  UNL1        0.0270
     25  C         24.5230  -21.3870  -13.6030 C.2     1  UNL1        0.0740
     26  C         23.2410  -21.0860  -14.0620 C.2     1  UNL1        0.0270
     27  C         22.1300  -21.4190  -13.2800 C.2     1  UNL1        0.0310
     28  S         25.9470  -20.9700  -14.5750 S.O2    1  UNL1        0.2430
     29  O         27.1210  -21.2940  -13.7920 O.2     1  UNL1       -0.2060
     30  O         25.7600  -19.6470  -15.1350 O.2     1  UNL1       -0.2060
     31  N         25.8470  -22.0850  -15.8520 N.3     1  UNL1       -0.2060
     32  C         25.1990  -23.3940  -15.5670 C.3     1  UNL1        0.1070
     33  C         24.1480  -23.5720  -16.6550 C.3     1  UNL1        0.0170
     34  C         24.7070  -22.7680  -17.8120 C.3     1  UNL1        0.0170
     35  C         25.2680  -21.5430  -17.1070 C.3     1  UNL1        0.1070
@<TRIPOS>BOND
     1    34    35    1
     2    34    33    1
     3    35    31    1
     4    33    32    1
     5    31    32    1
     6    31    28    1
     7    30    28    2
     8    28    29    2
     9    28    25    1
    10    26    25    2
    11    26    27    1
    12    25    24    1
    13    27    22    2
    14    24    23    2
    15    22    23    1
    16    22     3    1
    17     1     2    2
    18     3     2   am
    19     3     4    1
    20     2     5    1
    21     6     5    2
    22     6     7    1
    23     5    10    1
    24     7     8    2
    25    10     9    2
    26     8     9    1
    27     8    11    1
    28    11    12    1
    29    12    21    1
    30    12    13    1
    31    21    17    1
    32    13    14    1
    33    17    20    1
    34    17    15    2
    35    20    19    2
    36    14    15    1
    37    15    16    1
    38    19    18    1
    39    16    18    2
