@<TRIPOS>MOLECULE
3771_out_ligand_01.pdbqt
 34 36 0 0 0
SMALL
GASTEIGER

@<TRIPOS>ATOM
      1  C         22.6060  -23.3350   -8.8830 C.2     1  UNL1        0.0340
      2  C         21.7510  -24.4310   -9.0690 C.2     1  UNL1        0.0310
      3  C         20.4520  -24.4210   -8.5510 C.2     1  UNL1        0.0270
      4  C         20.0040  -23.3020   -7.8470 C.2     1  UNL1        0.0800
      5  C         20.8490  -22.2120   -7.6360 C.2     1  UNL1        0.0270
      6  C         22.1460  -22.2300   -8.1630 C.2     1  UNL1        0.0310
      7  S         18.3620  -23.2920   -7.1750 S.O2    1  UNL1        0.2630
      8  O         18.1790  -24.5400   -6.4630 O.2     1  UNL1       -0.2000
      9  O         18.1250  -22.0220   -6.5240 O.2     1  UNL1       -0.2000
     10  N         17.3950  -23.4060   -8.5600 N.pl3   1  UNL1       -0.2810
     11  H         16.4210  -23.5620   -8.3000 H       1  UNL1        0.1790
     12  C         17.6550  -22.5020   -9.6260 C.2     1  UNL1        0.0430
     13  C         16.6110  -21.7590  -10.1720 C.2     1  UNL1        0.0300
     14  C         16.8540  -20.9030  -11.2440 C.2     1  UNL1        0.0030
     15  C         18.1420  -20.7940  -11.7720 C.2     1  UNL1        0.0160
     16  C         19.1970  -21.5500  -11.2400 C.2     1  UNL1        0.0500
     17  C         18.9410  -22.4070  -10.1560 C.2     1  UNL1        0.0460
     18  C         20.5940  -21.4390  -11.7970 C.3     1  UNL1        0.4170
     19  F         21.3900  -20.6420  -11.0320 F       1  UNL1       -0.1660
     20  F         20.6370  -20.9140  -13.0530 F       1  UNL1       -0.1660
     21  F         21.2320  -22.6410  -11.8730 F       1  UNL1       -0.1660
     22  N         23.8920  -23.4250   -9.4510 N.am    1  UNL1       -0.3270
     23  C         24.6020  -22.4430  -10.1180 C.2     1  UNL1        0.2310
     24  O         24.2090  -21.3030  -10.3560 O.2     1  UNL1       -0.2720
     25  H         24.3990  -24.2900   -9.2890 H       1  UNL1        0.1690
     26  C         25.9470  -22.9080  -10.6610 C.3     1  UNL1        0.1820
     27  S         26.7020  -21.7520  -11.8580 S.3     1  UNL1       -0.1210
     28  C         25.9070  -22.1920  -13.4000 C.2     1  UNL1        0.0010
     29  C         26.5350  -23.1630  -14.1900 C.2     1  UNL1        0.0190
     30  C         25.9780  -23.5620  -15.4090 C.2     1  UNL1        0.0080
     31  C         24.7720  -23.0110  -15.8500 C.2     1  UNL1       -0.0620
     32  C         24.1890  -23.4090  -17.1740 C.3     1  UNL1        0.0480
     33  C         24.1430  -22.0420  -15.0620 C.2     1  UNL1        0.0080
     34  C         24.7000  -21.6450  -13.8410 C.2     1  UNL1        0.0190
@<TRIPOS>BOND
     1    32    31    1
     2    31    30    2
     3    31    33    1
     4    30    29    1
     5    33    34    2
     6    29    28    2
     7    34    28    1
     8    28    27    1
     9    20    18    1
    10    21    18    1
    11    27    26    1
    12    18    16    1
    13    18    19    1
    14    15    14    2
    15    15    16    1
    16    14    13    1
    17    16    17    2
    18    26    23    1
    19    24    23    2
    20    13    12    2
    21    17    12    1
    22    23    22   am
    23    12    10    1
    24    22    25    1
    25    22     1    1
    26     2     1    2
    27     2     3    1
    28     1     6    1
    29    10    11    1
    30    10     7    1
    31     3     4    2
    32     6     5    2
    33     4     5    1
    34     4     7    1
    35     7     9    2
    36     7     8    2
