@<TRIPOS>MOLECULE
377_out_ligand_01.pdbqt
 30 32 0 0 0
SMALL
GASTEIGER

@<TRIPOS>ATOM
      1  C         19.2720  -22.2350  -10.7280 C.2     1  UNL1        0.0330
      2  C         18.6470  -21.3010  -11.5670 C.2     1  UNL1        0.0170
      3  C         17.2870  -21.0260  -11.4150 C.2     1  UNL1        0.0030
      4  C         16.5430  -21.6900  -10.4390 C.2     1  UNL1        0.0250
      5  C         17.1670  -22.6390   -9.6210 C.2     1  UNL1        0.0800
      6  C         18.5330  -22.9070   -9.7510 C.2     1  UNL1        0.0420
      7  C         20.7120  -22.5710  -10.8850 C.2     1  UNL1        0.2560
      8  N         21.3310  -21.9670  -11.9630 N.am    1  UNL1       -0.3230
      9  H         20.7910  -21.2850  -12.4780 H       1  UNL1        0.1690
     10  O         21.2160  -23.3180  -10.0570 O.2     1  UNL1       -0.2670
     11  C         22.6700  -22.1260  -12.3780 C.2     1  UNL1        0.0350
     12  C         23.0630  -21.4560  -13.5460 C.2     1  UNL1        0.0370
     13  C         24.3740  -21.5550  -14.0470 C.2     1  UNL1       -0.0430
     14  C         24.7400  -20.8110  -15.3010 C.3     1  UNL1        0.0490
     15  C         25.2960  -22.3480  -13.3500 C.2     1  UNL1        0.0170
     16  C         24.9120  -23.0200  -12.1890 C.2     1  UNL1        0.0220
     17 BR         27.0920  -22.5550  -13.9330 Br      1  UNL1       -0.0510
     18  C         23.6050  -22.9110  -11.7050 C.2     1  UNL1        0.0310
     19  S         16.2270  -23.4720   -8.3660 S.O2    1  UNL1        0.2630
     20  O         15.3710  -22.5070   -7.7120 O.2     1  UNL1       -0.2000
     21  O         15.6750  -24.6690   -8.9670 O.2     1  UNL1       -0.2000
     22  N         17.4250  -24.0050   -7.2970 N.pl3   1  UNL1       -0.2810
     23  H         17.2860  -24.9910   -7.0760 H       1  UNL1        0.1790
     24  C         17.7880  -23.1460   -6.2250 C.2     1  UNL1        0.0420
     25  C         18.6250  -22.0560   -6.4670 C.2     1  UNL1        0.0330
     26  C         18.9470  -21.1850   -5.4240 C.2     1  UNL1        0.0440
     27  C         18.4290  -21.4140   -4.1550 C.2     1  UNL1        0.1160
     28  F         18.7410  -20.5810   -3.1540 F       1  UNL1       -0.2060
     29  C         17.5900  -22.4960   -3.9070 C.2     1  UNL1        0.0440
     30  C         17.2640  -23.3660   -4.9480 C.2     1  UNL1        0.0330
@<TRIPOS>BOND
     1    14    13    1
     2    13    12    1
     3    13    15    2
     4    17    15    1
     5    12    11    2
     6    15    16    1
     7     9     8    1
     8    11     8    1
     9    11    18    1
    10    16    18    2
    11     8     7   am
    12     2     3    1
    13     2     1    2
    14     3     4    2
    15     7     1    1
    16     7    10    2
    17     1     6    1
    18     4     5    1
    19     6     5    2
    20     5    19    1
    21    21    19    2
    22    19    20    2
    23    19    22    1
    24    22    23    1
    25    22    24    1
    26    25    24    2
    27    25    26    1
    28    24    30    1
    29    26    27    2
    30    30    29    2
    31    27    29    1
    32    27    28    1
