@<TRIPOS>MOLECULE
3784_out_ligand_01.pdbqt
 34 37 0 0 0
SMALL
GASTEIGER

@<TRIPOS>ATOM
      1  C         21.0010  -22.2410  -10.8030 C.2     1  UNL1        0.0340
      2  C         20.7710  -23.2920   -9.9020 C.2     1  UNL1        0.0310
      3  C         19.4910  -23.5350   -9.3980 C.2     1  UNL1        0.0270
      4  C         18.4310  -22.7160   -9.7940 C.2     1  UNL1        0.0800
      5  C         18.6410  -21.6780  -10.7030 C.2     1  UNL1        0.0270
      6  C         19.9270  -21.4400  -11.1990 C.2     1  UNL1        0.0310
      7  S         16.7990  -23.0340   -9.1720 S.O2    1  UNL1        0.2630
      8  O         16.1240  -23.8610  -10.1520 O.2     1  UNL1       -0.2000
      9  O         16.2180  -21.7880   -8.7250 O.2     1  UNL1       -0.2000
     10  N         17.0990  -24.0440   -7.8510 N.pl3   1  UNL1       -0.2800
     11  H         16.9240  -25.0200   -8.0850 H       1  UNL1        0.1790
     12  C         16.6810  -23.6010   -6.5580 C.2     1  UNL1        0.0530
     13  C         15.5010  -24.1460   -6.0430 C.2     1  UNL1        0.0310
     14  C         15.0470  -23.7660   -4.7850 C.2     1  UNL1        0.0030
     15  C         15.7730  -22.8400   -4.0370 C.2     1  UNL1        0.0120
     16  C         16.9640  -22.2850   -4.5320 C.2     1  UNL1       -0.0240
     17  C         17.6850  -21.3550   -3.7650 C.2     1  UNL1        0.0120
     18  C         17.4430  -22.6670   -5.8100 C.2     1  UNL1        0.0010
     19  C         18.8720  -20.8000   -4.2380 C.2     1  UNL1        0.0010
     20  C         19.3590  -21.1720   -5.4840 C.2     1  UNL1        0.0010
     21  C         18.6540  -22.0930   -6.2620 C.2     1  UNL1        0.0140
     22  N         22.3210  -22.0700  -11.2600 N.am    1  UNL1       -0.3270
     23  C         23.4060  -21.5590  -10.5660 C.2     1  UNL1        0.2310
     24  O         23.4160  -21.2190   -9.3850 O.2     1  UNL1       -0.2720
     25  H         22.4920  -22.2820  -12.2370 H       1  UNL1        0.1690
     26  C         24.6900  -21.5210  -11.3850 C.3     1  UNL1        0.1820
     27  S         25.3470  -23.1880  -11.7440 S.3     1  UNL1       -0.1210
     28  C         25.0870  -23.2720  -13.5080 C.2     1  UNL1        0.0010
     29  C         24.5820  -22.1470  -14.1710 C.2     1  UNL1        0.0200
     30  C         24.3660  -22.1770  -15.5500 C.2     1  UNL1        0.0250
     31  C         24.6440  -23.3380  -16.2700 C.2     1  UNL1        0.0340
     32 CL         24.3730  -23.3780  -17.9670 Cl      1  UNL1       -0.0840
     33  C         25.1320  -24.4690  -15.6180 C.2     1  UNL1        0.0250
     34  C         25.3500  -24.4360  -14.2380 C.2     1  UNL1        0.0200
@<TRIPOS>BOND
     1    32    31    1
     2    31    33    2
     3    31    30    1
     4    33    34    1
     5    30    29    2
     6    34    28    2
     7    29    28    1
     8    28    27    1
     9    25    22    1
    10    27    26    1
    11    26    23    1
    12    22     1    1
    13    22    23   am
    14     6     1    2
    15     6     5    1
    16     1     2    1
    17     5     4    2
    18    23    24    2
    19     8     7    2
    20     2     3    2
    21     4     3    1
    22     4     7    1
    23     7     9    2
    24     7    10    1
    25    11    10    1
    26    10    12    1
    27    12    13    2
    28    12    18    1
    29    21    18    1
    30    21    20    2
    31    13    14    1
    32    18    16    2
    33    20    19    1
    34    14    15    2
    35    16    15    1
    36    16    17    1
    37    19    17    2
