@<TRIPOS>MOLECULE
3787_out_ligand_01.pdbqt
 32 35 0 0 0
SMALL
GASTEIGER

@<TRIPOS>ATOM
      1  C         21.1250  -22.8110  -10.5280 C.2     1  UNL1        0.0340
      2  C         20.7800  -23.7300   -9.5270 C.2     1  UNL1        0.0310
      3  C         19.4630  -23.8290   -9.0710 C.2     1  UNL1        0.0270
      4  C         18.4850  -22.9910   -9.6110 C.2     1  UNL1        0.0800
      5  C         18.8070  -22.0960  -10.6320 C.2     1  UNL1        0.0270
      6  C         20.1280  -22.0040  -11.0840 C.2     1  UNL1        0.0310
      7  S         16.8120  -23.0950   -9.0200 S.O2    1  UNL1        0.2630
      8  O         16.4400  -21.7840   -8.5300 O.2     1  UNL1       -0.2000
      9  O         16.0230  -23.7650  -10.0310 O.2     1  UNL1       -0.2000
     10  N         16.9370  -24.0830   -7.6560 N.pl3   1  UNL1       -0.2800
     11  H         16.7480  -25.0610   -7.8610 H       1  UNL1        0.1790
     12  C         16.5270  -23.5700   -6.3870 C.2     1  UNL1        0.0530
     13  C         15.3250  -24.0440   -5.8490 C.2     1  UNL1        0.0310
     14  C         14.9010  -23.6170   -4.5950 C.2     1  UNL1        0.0030
     15  C         15.6790  -22.7160   -3.8710 C.2     1  UNL1        0.0120
     16  C         16.8910  -22.2300   -4.3870 C.2     1  UNL1       -0.0240
     17  C         17.6650  -21.3280   -3.6360 C.2     1  UNL1        0.0120
     18  C         17.3370  -22.6540   -5.6640 C.2     1  UNL1        0.0010
     19  C         18.8760  -20.8410   -4.1240 C.2     1  UNL1        0.0010
     20  C         19.3300  -21.2480   -5.3720 C.2     1  UNL1        0.0010
     21  C         18.5710  -22.1400   -6.1350 C.2     1  UNL1        0.0140
     22  N         22.4790  -22.7700  -10.9170 N.am    1  UNL1       -0.3270
     23  C         23.4800  -21.9520  -10.4180 C.2     1  UNL1        0.2260
     24  O         23.3530  -21.0980   -9.5450 O.2     1  UNL1       -0.2730
     25  H         22.7700  -23.4810  -11.5770 H       1  UNL1        0.1690
     26  C         24.8270  -22.1570  -11.1040 C.3     1  UNL1        0.1410
     27  C         24.7420  -22.2770  -12.6080 C.2     1  UNL1       -0.0500
     28  C         25.2210  -23.4270  -13.2540 C.2     1  UNL1        0.0070
     29  C         25.1320  -23.5500  -14.6400 C.2     1  UNL1        0.0010
     30  C         24.5680  -22.5240  -15.3950 C.2     1  UNL1        0.0000
     31  C         24.0930  -21.3740  -14.7640 C.2     1  UNL1        0.0010
     32  C         24.1800  -21.2480  -13.3770 C.2     1  UNL1        0.0070
@<TRIPOS>BOND
     1    30    31    2
     2    30    29    1
     3    31    32    1
     4    29    28    2
     5    32    27    2
     6    28    27    1
     7    27    26    1
     8    25    22    1
     9    26    23    1
    10     6     5    1
    11     6     1    2
    12    22     1    1
    13    22    23   am
    14     5     4    2
    15     1     2    1
    16    23    24    2
    17     9     7    2
    18     4     3    1
    19     4     7    1
    20     2     3    2
    21     7     8    2
    22     7    10    1
    23    11    10    1
    24    10    12    1
    25    12    13    2
    26    12    18    1
    27    21    18    1
    28    21    20    2
    29    13    14    1
    30    18    16    2
    31    20    19    1
    32    14    15    2
    33    16    15    1
    34    16    17    1
    35    19    17    2
