@<TRIPOS>MOLECULE
3791_out_ligand_01.pdbqt
 41 45 0 0 0
SMALL
GASTEIGER

@<TRIPOS>ATOM
      1  C         21.6650  -22.7250   -9.7070 C.2     1  UNL1        0.0340
      2  C         21.4840  -22.4680  -11.0730 C.2     1  UNL1        0.0310
      3  C         22.5580  -22.0730  -11.8730 C.2     1  UNL1        0.0270
      4  C         23.8230  -21.9310  -11.3000 C.2     1  UNL1        0.0800
      5  C         24.0250  -22.2140   -9.9490 C.2     1  UNL1        0.0270
      6  C         22.9430  -22.6040   -9.1530 C.2     1  UNL1        0.0310
      7  N         20.5250  -23.1080   -8.9780 N.am    1  UNL1       -0.3260
      8  C         20.1610  -24.3840   -8.5760 C.2     1  UNL1        0.2410
      9  O         20.7960  -25.4150   -8.7740 O.2     1  UNL1       -0.2710
     10  H         19.9380  -22.3440   -8.6360 H       1  UNL1        0.1690
     11  C         18.8490  -24.4120   -7.7970 C.3     1  UNL1        0.2440
     12  N         18.2740  -23.0360   -7.7660 N.pl3   1  UNL1       -0.2670
     13  S         16.8520  -22.8400   -8.6610 S.O2    1  UNL1        0.2290
     14  C         17.4430  -22.5780  -10.3240 C.3     1  UNL1        0.1860
     15  O         16.1650  -21.6520   -8.2030 O.2     1  UNL1       -0.2060
     16  O         16.1830  -24.1280   -8.6300 O.2     1  UNL1       -0.2060
     17  C         18.3410  -22.3680   -6.4870 C.2     1  UNL1        0.0560
     18  C         19.2730  -21.3440   -6.2740 C.2     1  UNL1        0.0310
     19  C         19.3520  -20.7190   -5.0350 C.2     1  UNL1        0.0030
     20  C         18.4980  -21.1070   -4.0040 C.2     1  UNL1        0.0120
     21  C         17.5450  -22.1210   -4.1980 C.2     1  UNL1       -0.0240
     22  C         16.6870  -22.5030   -3.1530 C.2     1  UNL1        0.0120
     23  C         17.4470  -22.7600   -5.4570 C.2     1  UNL1        0.0020
     24  C         15.7310  -23.5030   -3.3380 C.2     1  UNL1        0.0010
     25  C         15.6130  -24.1270   -4.5730 C.2     1  UNL1        0.0010
     26  C         16.4620  -23.7610   -5.6200 C.2     1  UNL1        0.0140
     27  S         25.1990  -21.4370  -12.3120 S.O2    1  UNL1        0.2630
     28  O         25.9450  -20.4370  -11.5750 O.2     1  UNL1       -0.2000
     29  O         25.8450  -22.6330  -12.8090 O.2     1  UNL1       -0.2000
     30  N         24.4680  -20.6210  -13.5970 N.pl3   1  UNL1       -0.2800
     31  H         23.4740  -20.8230  -13.6740 H       1  UNL1        0.1790
     32  C         25.2090  -20.4070  -14.8030 C.2     1  UNL1        0.0530
     33  C         26.0720  -19.3090  -14.8560 C.2     1  UNL1        0.0310
     34  C         26.8420  -19.0750  -15.9900 C.2     1  UNL1        0.0030
     35  C         26.7550  -19.9410  -17.0770 C.2     1  UNL1        0.0120
     36  C         25.8970  -21.0520  -17.0480 C.2     1  UNL1       -0.0240
     37  C         25.8260  -21.9150  -18.1530 C.2     1  UNL1        0.0120
     38  C         25.1050  -21.3030  -15.8990 C.2     1  UNL1        0.0010
     39  C         24.9850  -23.0260  -18.1420 C.2     1  UNL1        0.0010
     40  C         24.2040  -23.2910  -17.0270 C.2     1  UNL1        0.0010
     41  C         24.2640  -22.4420  -15.9180 C.2     1  UNL1        0.0140
@<TRIPOS>BOND
     1    37    39    2
     2    37    36    1
     3    39    40    1
     4    35    36    2
     5    35    34    1
     6    36    38    1
     7    40    41    2
     8    34    33    2
     9    41    38    1
    10    38    32    2
    11    33    32    1
    12    32    30    1
    13    31    30    1
    14    30    27    1
    15    29    27    2
    16    27    28    2
    17    27     4    1
    18     3     4    2
    19     3     2    1
    20     4     5    1
    21     2     1    2
    22    14    13    1
    23     5     6    2
    24     1     6    1
    25     1     7    1
    26     7    10    1
    27     7     8   am
    28     9     8    2
    29    13    16    2
    30    13    15    2
    31    13    12    1
    32     8    11    1
    33    11    12    1
    34    12    17    1
    35    17    18    2
    36    17    23    1
    37    18    19    1
    38    26    23    1
    39    26    25    2
    40    23    21    2
    41    19    20    2
    42    25    24    1
    43    21    20    1
    44    21    22    1
    45    24    22    2
