@<TRIPOS>MOLECULE
37_out_ligand_01.pdbqt
 30 33 0 0 0
SMALL
GASTEIGER

@<TRIPOS>ATOM
      1  C         22.0260  -21.5560  -12.6290 C.2     1  UNL1       -0.0270
      2  C         22.4670  -22.2350  -11.4890 C.2     1  UNL1        0.0120
      3  C         21.6130  -22.4780  -10.4060 C.2     1  UNL1        0.0310
      4  C         20.2820  -22.0420  -10.4070 C.2     1  UNL1        0.0430
      5  C         19.8190  -21.3960  -11.5710 C.2     1  UNL1       -0.0300
      6  C         20.6920  -21.1370  -12.6510 C.2     1  UNL1        0.0190
      7  C         18.3930  -20.9320  -11.6910 C.3     1  UNL1        0.0420
      8  C         17.4960  -21.8410  -10.8800 C.3     1  UNL1        0.0250
      9  C         17.9890  -21.8720   -9.4450 C.3     1  UNL1        0.1330
     10  N         19.3960  -22.2730   -9.2880 N.am    1  UNL1       -0.3130
     11  C         19.8920  -22.5850   -8.0040 C.2     1  UNL1        0.2610
     12  O         21.0650  -22.5490   -7.6360 O.2     1  UNL1       -0.2670
     13  C         23.0150  -21.2810  -13.7470 C.3     1  UNL1        0.1790
     14  C         24.5000  -21.0890  -13.3350 C.3     1  UNL1        0.3080
     15  N         25.3620  -22.2110  -13.7870 N.3     1  UNL1        0.0910
     16  C         25.5040  -23.2220  -12.7360 C.3     1  UNL1        0.2730
     17  C         26.6010  -24.2310  -13.1030 C.3     1  UNL1        0.0340
     18  C         26.6590  -24.5450  -14.6080 C.3     1  UNL1       -0.0150
     19  C         27.1200  -25.9780  -14.8570 C.3     1  UNL1        0.0100
     20  C         25.3000  -24.2710  -15.2530 C.3     1  UNL1        0.0340
     21  C         24.8690  -22.8110  -15.0430 C.3     1  UNL1        0.2730
     22  O         22.6000  -20.0990  -14.4480 O.3     1  UNL1       -0.3890
     23  H         22.0320  -19.6230  -13.8080 H       1  UNL1        0.2100
     24  C         18.9330  -22.9330   -6.9400 C.2     1  UNL1        0.0710
     25  C         18.2340  -24.1430   -7.0190 C.2     1  UNL1        0.0200
     26  C         17.2930  -24.4600   -6.0370 C.2     1  UNL1        0.0010
     27  C         17.0410  -23.5660   -4.9920 C.2     1  UNL1        0.0030
     28  C         17.7240  -22.3500   -4.9310 C.2     1  UNL1        0.0430
     29  C         18.6620  -22.0340   -5.9110 C.2     1  UNL1        0.1320
     30  F         19.3090  -20.8630   -5.8340 F       1  UNL1       -0.2050
@<TRIPOS>BOND
     1    20    21    1
     2    20    18    1
     3    21    15    1
     4    19    18    1
     5    18    17    1
     6    22    23    1
     7    22    13    1
     8    15    14    1
     9    15    16    1
    10    13    14    1
    11    13     1    1
    12    17    16    1
    13     6     1    2
    14     6     5    1
    15     1     2    1
    16     7     5    1
    17     7     8    1
    18     5     4    2
    19     2     3    2
    20     8     9    1
    21     4     3    1
    22     4    10    1
    23     9    10    1
    24    10    11   am
    25    11    12    2
    26    11    24    1
    27    25    24    2
    28    25    26    1
    29    24    29    1
    30    26    27    2
    31    29    30    1
    32    29    28    2
    33    27    28    1
