@<TRIPOS>MOLECULE
38041_out_ligand_01.pdbqt
 36 38 0 0 0
SMALL
GASTEIGER

@<TRIPOS>ATOM
      1  N         23.0070  -21.1810   -9.2070 N.1     1  UNL1       -0.1910
      2  C         22.8210  -21.4540  -10.3190 C.1     1  UNL1        0.1020
      3  C         22.6200  -21.7880  -11.6950 C.2     1  UNL1        0.0770
      4  C         21.3920  -22.0780  -12.1760 C.2     1  UNL1        0.0360
      5  C         23.7710  -21.7240  -12.5650 C.ar    1  UNL1        0.1220
      6  N         23.7220  -21.1610  -13.7860 N.ar    1  UNL1       -0.1680
      7  N         24.9730  -21.2790  -14.2710 N.ar    1  UNL1       -0.2500
      8  C         25.8290  -21.9410  -13.4220 C.ar    1  UNL1        0.1410
      9  C         25.0710  -22.2510  -12.3110 C.ar    1  UNL1        0.1210
     10  C         25.5280  -22.9890  -11.1790 C.1     1  UNL1        0.1060
     11  N         25.9060  -23.6070  -10.2740 N.1     1  UNL1       -0.1910
     12  C         25.2640  -20.7560  -15.5970 C.3     1  UNL1        0.1790
     13  C         24.9190  -21.7560  -16.6930 C.3     1  UNL1        0.1860
     14  O         23.8210  -22.5850  -16.3180 O.3     1  UNL1       -0.3990
     15  H         24.1150  -23.1330  -15.5610 H       1  UNL1        0.2090
     16  N         27.1210  -22.2100  -13.7370 N.pl3   1  UNL1       -0.3830
     17  H         27.3320  -22.7180  -14.5990 H       1  UNL1        0.1570
     18  H         27.8060  -22.4370  -13.0120 H       1  UNL1        0.1570
     19  C         20.1460  -22.1380  -11.4040 C.2     1  UNL1       -0.0320
     20  C         19.0380  -21.3510  -11.7400 C.2     1  UNL1        0.0110
     21  C         17.8660  -21.4180  -10.9830 C.2     1  UNL1        0.0040
     22  C         17.7980  -22.2590   -9.8730 C.2     1  UNL1        0.0370
     23  C         18.9130  -23.0200   -9.5190 C.2     1  UNL1        0.0770
     24  C         20.0760  -22.9780  -10.2890 C.2     1  UNL1        0.0480
     25  O         18.8820  -23.8870   -8.4510 O.3     1  UNL1       -0.3040
     26  C         18.3020  -23.3910   -7.3080 C.ar    1  UNL1        0.1590
     27  C         18.9250  -22.4210   -6.5200 C.ar    1  UNL1        0.1950
     28  F         20.1170  -21.9180   -6.8750 F       1  UNL1       -0.2000
     29  C         18.3260  -21.9830   -5.3430 C.ar    1  UNL1        0.1990
     30  F         18.9290  -21.0530   -4.5910 F       1  UNL1       -0.1990
     31  C         17.1100  -22.5200   -4.9400 C.ar    1  UNL1        0.1990
     32  F         16.5370  -22.0990   -3.8030 F       1  UNL1       -0.1990
     33  C         16.4940  -23.4980   -5.7090 C.ar    1  UNL1        0.1990
     34  F         15.3250  -24.0220   -5.3150 F       1  UNL1       -0.1990
     35  C         17.0920  -23.9380   -6.8860 C.ar    1  UNL1        0.1950
     36  F         16.4920  -24.8840   -7.6200 F       1  UNL1       -0.2000
@<TRIPOS>BOND
     1    13    14    1
     2    13    12    1
     3    14    15    1
     4    12     7    1
     5    17    16    1
     6     7     6   ar
     7     7     8   ar
     8     6     5   ar
     9    16     8    1
    10    16    18    1
    11     8     9   ar
    12     5     9   ar
    13     5     3    1
    14     9    10    1
    15     4     3    2
    16     4    19    1
    17    20    19    2
    18    20    21    1
    19     3     2    1
    20    19    24    1
    21    10    11    3
    22    21    22    2
    23     2     1    3
    24    24    23    2
    25    22    23    1
    26    23    25    1
    27    25    26    1
    28    36    35    1
    29    26    35   ar
    30    26    27   ar
    31    35    33   ar
    32    28    27    1
    33    27    29   ar
    34    33    34    1
    35    33    31   ar
    36    29    31   ar
    37    29    30    1
    38    31    32    1
