@<TRIPOS>MOLECULE
38047_out_ligand_01.pdbqt
 35 38 0 0 0
SMALL
GASTEIGER

@<TRIPOS>ATOM
      1  N         24.4990  -23.1790  -10.3140 N.1     1  UNL1       -0.1910
      2  C         23.9180  -22.6340  -11.1570 C.1     1  UNL1        0.1020
      3  C         23.2420  -21.9810  -12.2340 C.2     1  UNL1        0.0770
      4  C         21.9010  -21.8130  -12.2520 C.2     1  UNL1        0.0390
      5  C         24.0670  -21.5450  -13.3340 C.ar    1  UNL1        0.1220
      6  N         23.7640  -21.8120  -14.6140 N.ar    1  UNL1       -0.1680
      7  N         24.7830  -21.2880  -15.3240 N.ar    1  UNL1       -0.2500
      8  C         25.7110  -20.6340  -14.5470 C.ar    1  UNL1        0.1410
      9  C         25.2600  -20.7770  -13.2500 C.ar    1  UNL1        0.1210
     10  C         25.8750  -20.2240  -12.0890 C.1     1  UNL1        0.1060
     11  N         26.3680  -19.7530  -11.1500 N.1     1  UNL1       -0.1910
     12  C         24.7720  -21.4270  -16.7730 C.3     1  UNL1        0.1790
     13  C         24.6770  -22.8850  -17.2050 C.3     1  UNL1        0.1860
     14  O         23.3200  -23.2880  -17.3830 O.3     1  UNL1       -0.3990
     15  H         23.3200  -24.2540  -17.5420 H       1  UNL1        0.2090
     16  N         26.7850  -19.9880  -15.0660 N.pl3   1  UNL1       -0.3830
     17  H         27.6330  -20.5160  -15.2800 H       1  UNL1        0.1570
     18  H         26.6670  -19.2190  -15.7300 H       1  UNL1        0.1570
     19  C         20.9450  -22.2090  -11.2670 C.2     1  UNL1       -0.0060
     20  C         21.1850  -23.0350  -10.1940 C.2     1  UNL1        0.1040
     21  N         20.0040  -23.2000   -9.5110 N.pl3   1  UNL1       -0.3510
     22  C         19.0000  -22.4670  -10.1150 C.2     1  UNL1        0.0450
     23  C         17.6480  -22.2960   -9.7700 C.2     1  UNL1        0.0300
     24  C         19.5640  -21.8560  -11.2400 C.2     1  UNL1        0.0020
     25  C         16.8560  -21.4890  -10.5900 C.2     1  UNL1        0.0020
     26  C         17.3900  -20.8790  -11.7190 C.2     1  UNL1        0.0010
     27  C         18.7400  -21.0540  -12.0540 C.2     1  UNL1        0.0140
     28  C         19.8660  -23.9930   -8.2920 C.3     1  UNL1        0.1700
     29  C         19.3180  -23.1990   -7.1340 C.2     1  UNL1       -0.0010
     30  C         19.8180  -21.9350   -6.7880 C.2     1  UNL1        0.0120
     31  C         19.2520  -21.2070   -5.7380 C.2     1  UNL1        0.0010
     32  C         18.1730  -21.7250   -5.0270 C.2     1  UNL1        0.0030
     33  C         17.6670  -22.9810   -5.3590 C.2     1  UNL1        0.0430
     34  C         18.2350  -23.7000   -6.4060 C.2     1  UNL1        0.1240
     35  F         17.7220  -24.8990   -6.7150 F       1  UNL1       -0.2050
@<TRIPOS>BOND
     1    15    14    1
     2    14    13    1
     3    13    12    1
     4    12     7    1
     5    18    16    1
     6     7     6   ar
     7     7     8   ar
     8    17    16    1
     9    16     8    1
    10     6     5   ar
    11     8     9   ar
    12     5     9   ar
    13     5     3    1
    14     9    10    1
    15     4     3    2
    16     4    19    1
    17     3     2    1
    18    10    11    3
    19    27    26    2
    20    27    24    1
    21    26    25    1
    22    19    24    1
    23    19    20    2
    24    24    22    2
    25     2     1    3
    26    25    23    2
    27    20    21    1
    28    22    23    1
    29    22    21    1
    30    21    28    1
    31    28    29    1
    32    29    30    2
    33    29    34    1
    34    30    31    1
    35    35    34    1
    36    34    33    2
    37    31    32    2
    38    33    32    1
