@<TRIPOS>MOLECULE
38054_out_ligand_01.pdbqt
 32 36 0 0 0
SMALL
GASTEIGER

@<TRIPOS>ATOM
      1  C         19.3960  -22.1680   -9.9980 C.2     1  UNL1        0.0340
      2  C         18.9740  -21.4110  -11.0910 C.2     1  UNL1        0.0190
      3  C         19.8790  -21.1180  -12.1140 C.2     1  UNL1        0.0350
      4  C         21.1950  -21.5590  -12.0640 C.ar    1  UNL1        0.0860
      5  N         22.0320  -21.2510  -13.0700 N.ar    1  UNL1       -0.2420
      6  C         23.3200  -21.6800  -12.9570 C.ar    1  UNL1        0.1150
      7  C         23.7370  -22.4610  -11.8740 C.ar    1  UNL1        0.1150
      8  N         22.8860  -22.7700  -10.8590 N.ar    1  UNL1       -0.2420
      9  C         21.6260  -22.3150  -10.9470 C.ar    1  UNL1        0.0870
     10  C         20.7240  -22.6020   -9.9320 C.2     1  UNL1        0.0510
     11  C         18.4810  -22.5030   -8.8730 C.2     1  UNL1        0.2560
     12  O         17.2980  -22.6860   -9.1230 O.2     1  UNL1       -0.2670
     13  N         19.0760  -22.5460   -7.6260 N.am    1  UNL1       -0.3220
     14  H         20.0410  -22.2530   -7.5550 H       1  UNL1        0.1690
     15  C         18.4430  -22.8740   -6.4070 C.2     1  UNL1        0.0520
     16  C         18.3530  -21.8760   -5.4340 C.2     1  UNL1        0.0320
     17  C         17.7430  -22.1480   -4.2090 C.2     1  UNL1        0.0210
     18  C         17.2410  -23.4190   -3.9930 C.2     1  UNL1        0.1160
     19  N         17.3110  -24.4110   -4.9030 N.2     1  UNL1       -0.2710
     20  C         17.9070  -24.1190   -6.0890 C.2     1  UNL1        0.1450
     21  C         25.0490  -23.0890  -11.7080 C.2     1  UNL1        0.0630
     22  C         25.8190  -23.7910  -12.6220 C.2     1  UNL1        0.0330
     23  C         27.0300  -24.1630  -11.9910 C.2     1  UNL1        0.0190
     24  C         26.9930  -23.6580  -10.7130 C.2     1  UNL1        0.0880
     25  N         25.8070  -22.9870  -10.5590 N.pl3   1  UNL1       -0.3640
     26  H         25.5220  -22.5070   -9.7150 H       1  UNL1        0.1650
     27  C         24.1550  -21.2120  -14.0650 C.2     1  UNL1        0.0630
     28  C         25.1370  -20.2390  -14.1560 C.2     1  UNL1        0.0330
     29  C         25.6070  -20.2060  -15.4920 C.2     1  UNL1        0.0190
     30  C         24.8770  -21.1290  -16.2020 C.2     1  UNL1        0.0880
     31  N         23.9810  -21.7030  -15.3430 N.pl3   1  UNL1       -0.3640
     32  H         23.2720  -22.3840  -15.5850 H       1  UNL1        0.1650
@<TRIPOS>BOND
     1    30    29    2
     2    30    31    1
     3    32    31    1
     4    29    28    1
     5    31    27    1
     6    28    27    2
     7    27     6    1
     8     5     6   ar
     9     5     4   ar
    10     6     7   ar
    11    22    23    1
    12    22    21    2
    13     3     4    2
    14     3     2    1
    15     4     9   ar
    16    23    24    2
    17     7    21    1
    18     7     8   ar
    19    21    25    1
    20     2     1    2
    21     9     8   ar
    22     9    10    2
    23    24    25    1
    24    25    26    1
    25     1    10    1
    26     1    11    1
    27    12    11    2
    28    11    13   am
    29    13    14    1
    30    13    15    1
    31    15    20    2
    32    15    16    1
    33    20    19    1
    34    16    17    2
    35    19    18    2
    36    17    18    1
