@<TRIPOS>MOLECULE
38064_out_ligand_01.pdbqt
 30 33 0 0 0
SMALL
GASTEIGER

@<TRIPOS>ATOM
      1  C         21.2520  -22.5120  -10.2470 C.2     1  UNL1        0.0320
      2  C         21.7290  -22.8180   -8.9730 C.2     1  UNL1        0.0190
      3  C         20.8480  -22.9000   -7.8850 C.2     1  UNL1        0.0310
      4  C         19.4660  -22.6910   -8.0340 C.2     1  UNL1        0.0460
      5  C         19.0070  -22.4060   -9.3330 C.2     1  UNL1        0.0310
      6  C         19.8820  -22.3210  -10.4280 C.2     1  UNL1        0.0190
      7  C         22.2210  -22.4350  -11.3780 C.2     1  UNL1        0.2560
      8  O         21.8790  -21.8460  -12.3950 O.2     1  UNL1       -0.2670
      9  N         23.4200  -23.0930  -11.1700 N.am    1  UNL1       -0.3230
     10  H         23.4900  -23.6620  -10.3360 H       1  UNL1        0.1690
     11  C         24.5270  -23.1470  -12.0430 C.2     1  UNL1        0.0370
     12  C         25.6360  -22.3530  -11.7100 C.2     1  UNL1        0.0290
     13  C         26.7800  -22.3390  -12.5140 C.2     1  UNL1        0.0050
     14  C         26.8280  -23.1180  -13.6670 C.2     1  UNL1        0.0360
     15  C         25.7220  -23.9070  -14.0080 C.2     1  UNL1        0.1050
     16  C         24.5710  -23.9240  -13.2040 C.2     1  UNL1        0.0650
     17  N         25.7690  -24.7200  -15.2280 N.pl3   1  UNL1       -0.1160
     18  O         25.8930  -25.9450  -15.1070 O.2     1  UNL1       -0.5320
     19  O         25.6750  -24.1290  -16.3150 O.2     1  UNL1       -0.5320
     20  N         18.5690  -22.7740   -6.9210 N.am    1  UNL1       -0.2420
     21  C         18.5420  -21.8950   -5.8560 C.2     1  UNL1        0.2690
     22  O         19.1970  -20.9060   -5.5850 O.2     1  UNL1       -0.2660
     23  C         17.5010  -22.3400   -4.9620 C.2     1  UNL1        0.0840
     24  C         17.0220  -21.8890   -3.7750 C.2     1  UNL1        0.1370
     25  C         16.9180  -23.4470   -5.4840 C.2     1  UNL1        0.1430
     26  N         16.0040  -22.5310   -3.1540 N.2     1  UNL1       -0.2530
     27  C         15.4970  -23.6290   -3.7680 C.2     1  UNL1        0.2330
     28  N         15.9090  -24.1410   -4.9380 N.2     1  UNL1       -0.2350
     29  C         17.5890  -23.7420   -6.7540 C.2     1  UNL1        0.2850
     30  O         17.2590  -24.6770   -7.4620 O.2     1  UNL1       -0.2650
@<TRIPOS>BOND
     1    19    17    2
     2    17    18    2
     3    17    15    1
     4    15    14    2
     5    15    16    1
     6    14    13    1
     7    16    11    2
     8    13    12    2
     9     8     7    2
    10    11    12    1
    11    11     9    1
    12     7     9   am
    13     7     1    1
    14     9    10    1
    15     6     1    2
    16     6     5    1
    17     1     2    1
    18     5     4    2
    19     2     3    2
    20     4     3    1
    21     4    20    1
    22    30    29    2
    23    20    29   am
    24    20    21   am
    25    29    25    1
    26    21    22    2
    27    21    23    1
    28    25    23    2
    29    25    28    1
    30    23    24    1
    31    28    27    2
    32    24    26    2
    33    27    26    1
