@<TRIPOS>MOLECULE
38102_out_ligand_01.pdbqt
 35 38 0 0 0
SMALL
GASTEIGER

@<TRIPOS>ATOM
      1  C         24.4620  -22.6350  -14.4250 C.2     1  UNL1        0.0400
      2  C         25.0610  -21.8860  -15.3740 C.2     1  UNL1        0.1130
      3  C         25.3340  -22.4570  -16.6500 C.1     1  UNL1        0.1050
      4  N         25.5590  -22.9910  -17.6560 N.1     1  UNL1       -0.1910
      5  C         25.4250  -20.4460  -15.2030 C.2     1  UNL1        0.2660
      6  O         25.3880  -19.9500  -14.0830 O.2     1  UNL1       -0.2670
      7  N         25.7540  -19.8110  -16.3850 N.am    1  UNL1       -0.3220
      8  H         25.7520  -20.3670  -17.2290 H       1  UNL1        0.1690
      9  C         26.1720  -18.4740  -16.5530 C.2     1  UNL1        0.0350
     10  C         26.1460  -17.7920  -17.7690 C.2     1  UNL1        0.0290
     11  C         26.5710  -16.4620  -17.8450 C.2     1  UNL1        0.0020
     12  C         27.0280  -15.8030  -16.7060 C.2     1  UNL1        0.0000
     13  C         27.0610  -16.4760  -15.4880 C.2     1  UNL1        0.0020
     14  C         26.6360  -17.8040  -15.4120 C.2     1  UNL1        0.0290
     15  C         24.0450  -22.2090  -13.0820 C.2     1  UNL1       -0.0320
     16  C         22.7180  -21.7940  -12.8800 C.2     1  UNL1        0.0510
     17  C         22.2740  -21.3880  -11.6170 C.2     1  UNL1        0.1020
     18  C         23.1920  -21.3830  -10.5520 C.2     1  UNL1        0.1020
     19  C         24.5100  -21.8020  -10.7480 C.2     1  UNL1        0.0400
     20  C         24.9420  -22.1950  -12.0110 C.2     1  UNL1        0.0140
     21  O         20.9910  -21.0220  -11.3170 O.2     1  UNL1       -0.3490
     22  C         19.8950  -21.6130  -12.0140 C.3     1  UNL1        0.1710
     23  C         18.6500  -21.6270  -11.1460 C.3     1  UNL1        0.0340
     24  O         22.8770  -21.0410   -9.2620 O.2     1  UNL1       -0.3440
     25  C         22.9910  -22.1260   -8.3380 C.3     1  UNL1        0.2150
     26  C         21.6610  -22.8500   -8.2880 C.2     1  UNL1       -0.0230
     27  C         21.4910  -23.9750   -9.1160 C.2     1  UNL1        0.0100
     28  C         20.2990  -24.6890   -9.1100 C.2     1  UNL1        0.0020
     29  C         19.2550  -24.2880   -8.2820 C.2     1  UNL1        0.0120
     30  C         19.3830  -23.1630   -7.4560 C.2     1  UNL1       -0.0250
     31  C         18.3150  -22.7710   -6.6340 C.2     1  UNL1        0.0120
     32  C         20.5900  -22.4190   -7.4560 C.2     1  UNL1       -0.0180
     33  C         18.4150  -21.6500   -5.8150 C.2     1  UNL1        0.0010
     34  C         19.5830  -20.9010   -5.8110 C.2     1  UNL1        0.0010
     35  C         20.6550  -21.2800   -6.6210 C.2     1  UNL1        0.0130
@<TRIPOS>BOND
     1    11    10    1
     2    11    12    2
     3    10     9    2
     4     4     3    3
     5     8     7    1
     6    12    13    1
     7     3     2    1
     8     9     7    1
     9     9    14    1
    10     7     5   am
    11    13    14    2
    12     2     5    1
    13     2     1    2
    14     5     6    2
    15     1    15    1
    16    15    16    2
    17    15    20    1
    18    16    17    1
    19    22    21    1
    20    22    23    1
    21    20    19    2
    22    17    21    1
    23    17    18    2
    24    19    18    1
    25    18    24    1
    26    24    25    1
    27    27    28    1
    28    27    26    2
    29    28    29    2
    30    25    26    1
    31    26    32    1
    32    29    30    1
    33    30    32    2
    34    30    31    1
    35    32    35    1
    36    31    33    2
    37    35    34    2
    38    33    34    1
