@<TRIPOS>MOLECULE
38162_out_ligand_01.pdbqt
 31 33 0 0 0
SMALL
GASTEIGER

@<TRIPOS>ATOM
      1  N         25.8560  -20.7490  -10.8470 N.1     1  UNL1       -0.1910
      2  C         24.8190  -21.2320  -10.6520 C.1     1  UNL1        0.1050
      3  C         23.5750  -21.8580  -10.3490 C.2     1  UNL1        0.1130
      4  C         23.3070  -22.2440   -9.0860 C.2     1  UNL1        0.0390
      5  C         22.6120  -21.9960  -11.4760 C.2     1  UNL1        0.2620
      6  O         22.7300  -22.8950  -12.2990 O.2     1  UNL1       -0.2670
      7  N         21.5930  -21.0760  -11.4840 N.am    1  UNL1       -0.3520
      8  H         21.4980  -20.4230  -10.7170 H       1  UNL1        0.1630
      9  C         20.4990  -21.1480  -12.4240 C.3     1  UNL1        0.1610
     10  C         19.2020  -21.3910  -11.7000 C.2     1  UNL1       -0.0410
     11  C         18.2160  -20.3950  -11.6680 C.2     1  UNL1        0.0090
     12  C         16.9990  -20.6230  -11.0210 C.2     1  UNL1        0.0010
     13  C         16.7560  -21.8480  -10.4050 C.2     1  UNL1        0.0000
     14  C         17.7270  -22.8490  -10.4360 C.2     1  UNL1        0.0010
     15  C         18.9430  -22.6250  -11.0830 C.2     1  UNL1        0.0090
     16  C         22.0500  -22.8170   -8.5900 C.2     1  UNL1       -0.0330
     17  C         21.6110  -24.0800   -9.0000 C.2     1  UNL1        0.0140
     18  C         20.4090  -24.6090   -8.5170 C.2     1  UNL1        0.0390
     19  C         19.6200  -23.8810   -7.6220 C.2     1  UNL1        0.0860
     20  C         20.0570  -22.6060   -7.2290 C.2     1  UNL1        0.0450
     21 BR         19.0450  -21.5400   -6.0210 Br      1  UNL1       -0.0480
     22  C         21.2580  -22.0750   -7.7110 C.2     1  UNL1        0.0330
     23  O         18.4370  -24.3190   -7.0920 O.2     1  UNL1       -0.3450
     24  C         17.2260  -23.8500   -7.6750 C.3     1  UNL1        0.2140
     25  C         16.3120  -23.4180   -6.5560 C.2     1  UNL1       -0.0310
     26  C         16.4290  -23.9950   -5.2810 C.2     1  UNL1        0.0090
     27  C         15.5750  -23.6100   -4.2430 C.2     1  UNL1        0.0040
     28  C         14.5910  -22.6520   -4.4730 C.2     1  UNL1        0.0420
     29  C         14.4650  -22.0910   -5.7380 C.2     1  UNL1        0.1170
     30  F         13.5140  -21.1740   -5.9610 F       1  UNL1       -0.2060
     31  C         15.3100  -22.4650   -6.7780 C.2     1  UNL1        0.0510
@<TRIPOS>BOND
     1     9    10    1
     2     9     7    1
     3     6     5    2
     4    10    11    2
     5    10    15    1
     6    11    12    1
     7     7     5   am
     8     7     8    1
     9     5     3    1
    10    15    14    2
    11    12    13    2
    12     1     2    3
    13     2     3    1
    14    14    13    1
    15     3     4    2
    16     4    16    1
    17    17    16    2
    18    17    18    1
    19    16    22    1
    20    18    19    2
    21    22    20    2
    22    24    23    1
    23    24    25    1
    24    19    20    1
    25    19    23    1
    26    20    21    1
    27    31    25    2
    28    31    29    1
    29    25    26    1
    30    30    29    1
    31    29    28    2
    32    26    27    2
    33    28    27    1
