@<TRIPOS>MOLECULE
3818_out_ligand_01.pdbqt
 34 36 0 0 0
SMALL
GASTEIGER

@<TRIPOS>ATOM
      1  C         22.8370  -23.2840   -8.9650 C.2     1  UNL1        0.0340
      2  C         21.9190  -24.3290   -9.1570 C.2     1  UNL1        0.0310
      3  C         20.6440  -24.2730   -8.5870 C.2     1  UNL1        0.0270
      4  C         20.2790  -23.1590   -7.8250 C.2     1  UNL1        0.0800
      5  C         21.1710  -22.0970   -7.6480 C.2     1  UNL1        0.0270
      6  C         22.4490  -22.1680   -8.2140 C.2     1  UNL1        0.0310
      7  S         18.6670  -23.0800   -7.0810 S.O2    1  UNL1        0.2630
      8  O         18.4450  -24.3470   -6.4180 O.2     1  UNL1       -0.2000
      9  O         18.5580  -21.8300   -6.3590 O.2     1  UNL1       -0.2000
     10  N         17.6260  -23.0470   -8.3900 N.pl3   1  UNL1       -0.2810
     11  H         17.0100  -23.8580   -8.4270 H       1  UNL1        0.1790
     12  C         17.8130  -22.2640   -9.5630 C.2     1  UNL1        0.0430
     13  C         16.7690  -21.6780  -10.2800 C.2     1  UNL1        0.0300
     14  C         17.0280  -20.9640  -11.4550 C.2     1  UNL1        0.0030
     15  C         18.3320  -20.8550  -11.9370 C.2     1  UNL1        0.0160
     16  C         19.3920  -21.4620  -11.2500 C.2     1  UNL1        0.0500
     17  C         19.1180  -22.1730  -10.0670 C.2     1  UNL1        0.0460
     18  C         20.8010  -21.4050  -11.7970 C.3     1  UNL1        0.4170
     19  F         21.3530  -22.6450  -11.9120 F       1  UNL1       -0.1660
     20  F         20.8730  -20.8390  -13.0380 F       1  UNL1       -0.1660
     21  F         21.6540  -20.6860  -11.0120 F       1  UNL1       -0.1660
     22  N         24.1060  -23.4350   -9.5560 N.am    1  UNL1       -0.3260
     23  C         24.8740  -22.4600  -10.1810 C.2     1  UNL1        0.2360
     24  O         24.5540  -21.2830  -10.3250 O.2     1  UNL1       -0.2720
     25  H         24.5530  -24.3340   -9.4170 H       1  UNL1        0.1690
     26  C         26.2090  -23.0070  -10.7120 C.3     1  UNL1        0.1400
     27  C         26.7330  -24.1450   -9.8410 C.3     1  UNL1        0.0310
     28  S         25.9630  -23.6560  -12.4230 S.3     1  UNL1       -0.1160
     29  C         25.5330  -22.1620  -13.2980 C.2     1  UNL1        0.0010
     30  C         26.5070  -21.1770  -13.4900 C.2     1  UNL1        0.0180
     31  C         26.1960  -20.0050  -14.1830 C.2     1  UNL1        0.0010
     32  C         24.9040  -19.8110  -14.6770 C.2     1  UNL1        0.0000
     33  C         23.9230  -20.7790  -14.4700 C.2     1  UNL1        0.0010
     34  C         24.2340  -21.9500  -13.7790 C.2     1  UNL1        0.0180
@<TRIPOS>BOND
     1    32    33    2
     2    32    31    1
     3    33    34    1
     4    31    30    2
     5    34    29    2
     6    30    29    1
     7    29    28    1
     8    20    18    1
     9    28    26    1
    10    15    14    2
    11    15    16    1
    12    19    18    1
    13    18    16    1
    14    18    21    1
    15    14    13    1
    16    16    17    2
    17    26    23    1
    18    26    27    1
    19    24    23    2
    20    13    12    2
    21    23    22   am
    22    17    12    1
    23    12    10    1
    24    22    25    1
    25    22     1    1
    26     2     1    2
    27     2     3    1
    28     1     6    1
    29     3     4    2
    30    11    10    1
    31    10     7    1
    32     6     5    2
    33     4     5    1
    34     4     7    1
    35     7     8    2
    36     7     9    2
