@<TRIPOS>MOLECULE
3820_out_ligand_01.pdbqt
 35 39 0 0 0
SMALL
GASTEIGER

@<TRIPOS>ATOM
      1  C         21.3140  -22.8890  -10.4170 C.2     1  UNL1        0.0340
      2  C         20.9010  -23.7920   -9.4280 C.2     1  UNL1        0.0310
      3  C         19.5680  -23.8320   -9.0070 C.2     1  UNL1        0.0270
      4  C         18.6420  -22.9630   -9.5840 C.2     1  UNL1        0.0800
      5  C         19.0410  -22.0470  -10.5580 C.2     1  UNL1        0.0270
      6  C         20.3760  -22.0160  -10.9750 C.2     1  UNL1        0.0310
      7  S         16.9470  -22.9990   -9.0600 S.O2    1  UNL1        0.2630
      8  O         16.1910  -23.6710  -10.0980 O.2     1  UNL1       -0.2000
      9  O         16.5720  -21.6780   -8.6070 O.2     1  UNL1       -0.2000
     10  N         16.9870  -24.0640   -7.7510 N.pl3   1  UNL1       -0.2800
     11  H         16.7200  -25.0080   -8.0250 H       1  UNL1        0.1790
     12  C         16.5330  -23.5950   -6.4810 C.2     1  UNL1        0.0530
     13  C         15.3010  -24.0720   -6.0240 C.2     1  UNL1        0.0310
     14  C         14.8080  -23.6610   -4.7900 C.2     1  UNL1        0.0030
     15  C         15.5440  -22.7710   -4.0110 C.2     1  UNL1        0.0120
     16  C         16.7870  -22.2820   -4.4490 C.2     1  UNL1       -0.0240
     17  C         17.5170  -21.3860   -3.6510 C.2     1  UNL1        0.0120
     18  C         17.3050  -22.6970   -5.7000 C.2     1  UNL1        0.0010
     19  C         18.7540  -20.8970   -4.0700 C.2     1  UNL1        0.0010
     20  C         19.2790  -21.2990   -5.2900 C.2     1  UNL1        0.0010
     21  C         18.5650  -22.1880   -6.0970 C.2     1  UNL1        0.0140
     22  N         22.6720  -22.9220  -10.7830 N.am    1  UNL1       -0.3250
     23  C         23.6840  -22.0550  -10.4010 C.2     1  UNL1        0.2540
     24  O         23.5700  -21.1060   -9.6300 O.2     1  UNL1       -0.2700
     25  H         22.9450  -23.6250  -11.4640 H       1  UNL1        0.1690
     26  C         25.0520  -22.4620  -10.9840 C.3     1  UNL1        0.2450
     27  C         26.0280  -21.2910  -10.9970 C.3     1  UNL1        0.2180
     28  O         25.6630  -20.3000  -11.9660 O.2     1  UNL1       -0.3450
     29  C         25.3090  -20.8640  -13.1610 C.2     1  UNL1        0.1020
     30  C         25.2610  -20.0150  -14.2640 C.2     1  UNL1        0.0390
     31  C         24.9920  -22.2160  -13.3060 C.2     1  UNL1        0.1030
     32  C         24.9250  -20.5210  -15.5200 C.2     1  UNL1        0.0030
     33  C         24.6360  -21.8790  -15.6700 C.2     1  UNL1        0.0030
     34  C         24.6700  -22.7270  -14.5630 C.2     1  UNL1        0.0400
     35  O         24.9660  -23.1030  -12.2610 O.2     1  UNL1       -0.3310
@<TRIPOS>BOND
     1    33    32    2
     2    33    34    1
     3    32    30    1
     4    34    31    2
     5    30    29    2
     6    31    29    1
     7    31    35    1
     8    29    28    1
     9    35    26    1
    10    28    27    1
    11    25    22    1
    12    27    26    1
    13    26    23    1
    14     6     5    1
    15     6     1    2
    16    22     1    1
    17    22    23   am
    18     5     4    2
    19     1     2    1
    20    23    24    2
    21     8     7    2
    22     4     7    1
    23     4     3    1
    24     2     3    2
    25     7     9    2
    26     7    10    1
    27    11    10    1
    28    10    12    1
    29    12    13    2
    30    12    18    1
    31    21    18    1
    32    21    20    2
    33    13    14    1
    34    18    16    2
    35    20    19    1
    36    14    15    2
    37    16    15    1
    38    16    17    1
    39    19    17    2
