@<TRIPOS>MOLECULE
38207_out_ligand_01.pdbqt
 33 35 0 0 0
SMALL
GASTEIGER

@<TRIPOS>ATOM
      1  C         23.3660  -22.9030   -9.1910 C.2     1  UNL1        0.0400
      2  C         23.7340  -22.4140  -10.3950 C.2     1  UNL1        0.1130
      3  C         25.1220  -22.1770  -10.6300 C.1     1  UNL1        0.1050
      4  N         26.2660  -22.0350  -10.7670 N.1     1  UNL1       -0.1910
      5  C         22.8210  -22.0580  -11.5250 C.2     1  UNL1        0.2620
      6  O         23.1450  -22.2950  -12.6920 O.2     1  UNL1       -0.2670
      7  N         21.5930  -21.5360  -11.1780 N.am    1  UNL1       -0.3520
      8  H         21.3470  -21.3670  -10.2110 H       1  UNL1        0.1630
      9  C         20.6110  -21.1660  -12.1730 C.3     1  UNL1        0.1610
     10  C         19.2220  -21.3920  -11.6260 C.2     1  UNL1       -0.0410
     11  C         18.8680  -22.6440  -11.0950 C.2     1  UNL1        0.0090
     12  C         17.6040  -22.8420  -10.5300 C.2     1  UNL1        0.0010
     13  C         16.6850  -21.7920  -10.4890 C.2     1  UNL1        0.0000
     14  C         17.0310  -20.5420  -11.0080 C.2     1  UNL1        0.0010
     15  C         18.2950  -20.3390  -11.5700 C.2     1  UNL1        0.0090
     16  C         22.0130  -23.2010   -8.7090 C.2     1  UNL1       -0.0320
     17  C         21.2830  -22.2690   -7.9550 C.2     1  UNL1        0.0510
     18  C         19.9900  -22.5740   -7.5130 C.2     1  UNL1        0.1020
     19  C         19.4450  -23.8260   -7.8370 C.2     1  UNL1        0.1020
     20  C         20.1560  -24.7450   -8.6060 C.2     1  UNL1        0.0400
     21  C         21.4480  -24.4410   -9.0270 C.2     1  UNL1        0.0140
     22  O         19.1870  -21.7350   -6.7890 O.2     1  UNL1       -0.3490
     23  C         19.7980  -20.9140   -5.7990 C.3     1  UNL1        0.1710
     24  C         18.7610  -20.6400   -4.7220 C.3     1  UNL1        0.0340
     25  O         18.1790  -24.2010   -7.4590 O.2     1  UNL1       -0.3440
     26  C         18.1400  -24.5430   -6.0660 C.3     1  UNL1        0.2170
     27  C         17.0220  -23.7610   -5.4300 C.2     1  UNL1        0.0040
     28  C         16.0240  -23.1680   -6.2180 C.2     1  UNL1        0.0120
     29  C         14.9740  -22.4660   -5.6170 C.2     1  UNL1        0.0010
     30  C         14.9090  -22.3550   -4.2240 C.2     1  UNL1        0.0030
     31  C         15.8960  -22.9460   -3.4310 C.2     1  UNL1        0.0430
     32  C         16.9390  -23.6420   -4.0380 C.2     1  UNL1        0.1240
     33  F         17.8800  -24.1900   -3.2570 F       1  UNL1       -0.2050
@<TRIPOS>BOND
     1     6     5    2
     2     9    10    1
     3     9     7    1
     4    10    15    2
     5    10    11    1
     6    15    14    1
     7     5     7   am
     8     5     2    1
     9     7     8    1
    10    11    12    2
    11    14    13    2
    12     4     3    3
    13     3     2    1
    14    12    13    1
    15     2     1    2
    16     1    16    1
    17    21    16    2
    18    21    20    1
    19    16    17    1
    20    20    19    2
    21    17    18    2
    22    19    18    1
    23    19    25    1
    24    18    22    1
    25    25    26    1
    26    22    23    1
    27    28    29    1
    28    28    27    2
    29    26    27    1
    30    23    24    1
    31    29    30    2
    32    27    32    1
    33    30    31    1
    34    32    31    2
    35    32    33    1
