@<TRIPOS>MOLECULE
38206_out_ligand_01.pdbqt
 33 35 0 0 0
SMALL
GASTEIGER

@<TRIPOS>ATOM
      1  C         22.9880  -22.2030   -8.9030 C.2     1  UNL1        0.0400
      2  C         23.2870  -21.8460  -10.1680 C.2     1  UNL1        0.1130
      3  C         24.5960  -21.3890  -10.4920 C.1     1  UNL1        0.1050
      4  N         25.6700  -20.9990  -10.6980 N.1     1  UNL1       -0.1910
      5  C         22.3230  -21.9310  -11.2970 C.2     1  UNL1        0.2620
      6  O         22.5050  -22.7100  -12.2250 O.2     1  UNL1       -0.2670
      7  N         21.2680  -21.0590  -11.2140 N.am    1  UNL1       -0.3520
      8  H         21.1550  -20.4690  -10.4000 H       1  UNL1        0.1630
      9  C         20.2330  -21.0030  -12.2200 C.3     1  UNL1        0.1610
     10  C         18.9040  -21.3570  -11.6060 C.2     1  UNL1       -0.0410
     11  C         18.7010  -22.6010  -10.9920 C.2     1  UNL1        0.0090
     12  C         17.4750  -22.9000  -10.3920 C.2     1  UNL1        0.0010
     13  C         16.4460  -21.9570  -10.3960 C.2     1  UNL1        0.0000
     14  C         16.6390  -20.7160  -10.9990 C.2     1  UNL1        0.0010
     15  C         17.8620  -20.4170  -11.6020 C.2     1  UNL1        0.0090
     16  C         21.7290  -22.7720   -8.3990 C.2     1  UNL1       -0.0320
     17  C         20.8150  -22.0190   -7.6550 C.2     1  UNL1        0.0510
     18  C         19.5940  -22.5730   -7.2400 C.2     1  UNL1        0.1020
     19  C         19.2910  -23.9070   -7.5270 C.2     1  UNL1        0.1020
     20  C         20.1960  -24.6500   -8.2940 C.2     1  UNL1        0.0400
     21  C         21.3990  -24.0890   -8.7340 C.2     1  UNL1        0.0140
     22  O         18.7450  -21.7770   -6.5200 O.2     1  UNL1       -0.3490
     23  C         19.4550  -20.9760   -5.5630 C.3     1  UNL1        0.1710
     24  C         18.6640  -20.9800   -4.2670 C.3     1  UNL1        0.0340
     25  O         18.1660  -24.6020   -7.1840 O.2     1  UNL1       -0.3440
     26  C         16.9180  -24.0980   -7.6590 C.3     1  UNL1        0.2140
     27  C         16.1870  -23.5140   -6.4730 C.2     1  UNL1       -0.0310
     28  C         16.4710  -23.9590   -5.1710 C.2     1  UNL1        0.0090
     29  C         15.7840  -23.4350   -4.0740 C.2     1  UNL1        0.0040
     30  C         14.8010  -22.4660   -4.2660 C.2     1  UNL1        0.0420
     31  C         14.5120  -22.0330   -5.5540 C.2     1  UNL1        0.1170
     32  F         13.5640  -21.1040   -5.7410 F       1  UNL1       -0.2060
     33  C         15.1890  -22.5480   -6.6550 C.2     1  UNL1        0.0510
@<TRIPOS>BOND
     1     6     5    2
     2     9    10    1
     3     9     7    1
     4    10    15    2
     5    10    11    1
     6    15    14    1
     7     5     7   am
     8     5     2    1
     9     7     8    1
    10    14    13    2
    11    11    12    2
    12     4     3    3
    13     3     2    1
    14    13    12    1
    15     2     1    2
    16     1    16    1
    17    21    16    2
    18    21    20    1
    19    16    17    1
    20    20    19    2
    21    26    25    1
    22    26    27    1
    23    17    18    2
    24    19    18    1
    25    19    25    1
    26    18    22    1
    27    33    27    2
    28    33    31    1
    29    22    23    1
    30    27    28    1
    31    32    31    1
    32    23    24    1
    33    31    30    2
    34    28    29    2
    35    30    29    1
