@<TRIPOS>MOLECULE
3821_out_ligand_01.pdbqt
 42 46 0 0 0
SMALL
GASTEIGER

@<TRIPOS>ATOM
      1  N         21.2470  -22.2750  -10.1190 N.am    1  UNL1       -0.3230
      2  C         21.2410  -23.2450   -9.1340 C.2     1  UNL1        0.2560
      3  O         21.9440  -24.2450   -9.0730 O.2     1  UNL1       -0.2670
      4  H         20.6850  -21.4510   -9.9460 H       1  UNL1        0.1690
      5  C         22.0610  -22.2340  -11.2700 C.2     1  UNL1        0.0350
      6  C         23.1570  -23.1070  -11.3090 C.2     1  UNL1        0.0310
      7  C         23.9890  -23.1600  -12.4310 C.2     1  UNL1        0.0270
      8  C         23.7350  -22.3190  -13.5160 C.2     1  UNL1        0.0800
      9  C         22.6580  -21.4330  -13.4850 C.2     1  UNL1        0.0270
     10  C         21.8270  -21.3900  -12.3600 C.2     1  UNL1        0.0310
     11  S         24.7440  -22.4490  -14.9700 S.O2    1  UNL1        0.2630
     12  O         24.7740  -23.8500  -15.3380 O.2     1  UNL1       -0.2000
     13  O         24.3290  -21.4420  -15.9210 O.2     1  UNL1       -0.2000
     14  N         26.2940  -22.0950  -14.3940 N.pl3   1  UNL1       -0.2800
     15  H         27.0020  -22.5330  -14.9830 H       1  UNL1        0.1790
     16  C         26.5530  -20.7730  -13.9310 C.2     1  UNL1        0.0490
     17  C         26.8340  -20.5190  -12.5790 C.2     1  UNL1       -0.0350
     18  C         27.1200  -19.2010  -12.1920 C.2     1  UNL1        0.0090
     19  C         26.8760  -21.6120  -11.5490 C.3     1  UNL1        0.0500
     20  C         27.1190  -18.1630  -13.1270 C.2     1  UNL1        0.0070
     21  C         26.8340  -18.4190  -14.4720 C.2     1  UNL1       -0.0600
     22  C         26.8380  -17.2960  -15.4680 C.3     1  UNL1        0.0480
     23  C         26.5600  -19.7340  -14.8670 C.2     1  UNL1        0.0370
     24  C         20.2930  -22.9840   -8.0180 C.2     1  UNL1        0.0320
     25  C         20.3030  -21.7740   -7.3180 C.2     1  UNL1        0.0170
     26  C         19.3870  -21.5630   -6.2810 C.2     1  UNL1        0.0110
     27  C         18.4510  -22.5520   -5.9300 C.2     1  UNL1       -0.0250
     28  C         18.4610  -23.7640   -6.6430 C.2     1  UNL1        0.0110
     29  C         19.3650  -23.9730   -7.6880 C.2     1  UNL1        0.0170
     30  C         17.4840  -22.2880   -4.7860 C.3     1  UNL1        0.1830
     31  S         18.1370  -22.9620   -3.2350 S.3     1  UNL1       -0.1300
     32  C         16.9040  -24.2760   -3.1530 C.3     1  UNL1        0.1790
     33  C         15.8140  -23.9130   -4.1330 C.2     1  UNL1        0.2300
     34  O         14.7420  -24.5090   -4.1850 O.2     1  UNL1       -0.2720
     35  N         16.1720  -22.8730   -4.9700 N.am    1  UNL1       -0.3300
     36  C         15.2470  -22.3180   -5.9470 C.3     1  UNL1        0.1660
     37  C         15.5440  -22.7910   -7.3490 C.2     1  UNL1       -0.0400
     38  C         15.2720  -24.1170   -7.7190 C.2     1  UNL1        0.0090
     39  C         15.5320  -24.5600   -9.0180 C.2     1  UNL1        0.0010
     40  C         16.0680  -23.6810   -9.9580 C.2     1  UNL1        0.0000
     41  C         16.3430  -22.3610   -9.6010 C.2     1  UNL1        0.0010
     42  C         16.0810  -21.9150   -8.3040 C.2     1  UNL1        0.0090
@<TRIPOS>BOND
     1    13    11    2
     2    22    21    1
     3    12    11    2
     4    15    14    1
     5    11    14    1
     6    11     8    1
     7    23    21    1
     8    23    16    2
     9    21    20    2
    10    14    16    1
    11    16    17    1
    12     8     9    2
    13     8     7    1
    14     9    10    1
    15    20    18    1
    16    17    18    2
    17    17    19    1
    18     7     6    2
    19    10     5    2
    20     6     5    1
    21     5     1    1
    22     1     4    1
    23     1     2   am
    24    40    41    2
    25    40    39    1
    26    41    42    1
    27     2     3    2
    28     2    24    1
    29    39    38    2
    30    42    37    2
    31    24    29    2
    32    24    25    1
    33    38    37    1
    34    29    28    1
    35    37    36    1
    36    25    26    2
    37    28    27    2
    38    26    27    1
    39    36    35    1
    40    27    30    1
    41    35    30    1
    42    35    33   am
    43    30    31    1
    44    34    33    2
    45    33    32    1
    46    31    32    1
