@<TRIPOS>MOLECULE
38253_out_ligand_01.pdbqt
 35 38 0 0 0
SMALL
GASTEIGER

@<TRIPOS>ATOM
      1  C         21.2920  -22.0690  -10.7360 C.2     1  UNL1       -0.0140
      2  C         20.9640  -21.9570   -9.3830 C.2     1  UNL1        0.0130
      3  C         21.9100  -22.2940   -8.4150 C.2     1  UNL1        0.0040
      4  C         23.1840  -22.7200   -8.8010 C.2     1  UNL1        0.0380
      5  C         23.5170  -22.7880  -10.1550 C.2     1  UNL1        0.0900
      6  C         22.5690  -22.4720  -11.1290 C.2     1  UNL1        0.0510
      7  C         20.3170  -21.7150  -11.7810 C.2     1  UNL1        0.1500
      8  N         19.0250  -21.8580  -11.7580 N.2     1  UNL1       -0.1830
      9  N         18.4490  -22.5030  -10.7070 N.am    1  UNL1       -0.2430
     10  C         17.2780  -22.0160  -10.1490 C.2     1  UNL1        0.2720
     11  O         16.6720  -20.9990  -10.4660 O.2     1  UNL1       -0.2660
     12  H         18.7830  -23.4220  -10.4400 H       1  UNL1        0.1920
     13  C         16.7210  -22.8950   -9.0960 C.2     1  UNL1        0.0440
     14  C         15.7410  -23.8080   -9.5070 C.2     1  UNL1        0.0180
     15  C         15.2330  -24.7290   -8.5980 C.2     1  UNL1        0.0020
     16  C         15.7040  -24.7380   -7.2850 C.2     1  UNL1        0.0120
     17  C         16.6710  -23.8130   -6.8510 C.2     1  UNL1       -0.0250
     18  C         17.1200  -23.8280   -5.5200 C.2     1  UNL1        0.0120
     19  C         17.1880  -22.8560   -7.7570 C.2     1  UNL1       -0.0100
     20  C         18.0590  -22.9000   -5.0670 C.2     1  UNL1        0.0010
     21  C         18.5520  -21.9360   -5.9360 C.2     1  UNL1        0.0010
     22  C         18.1200  -21.9110   -7.2640 C.2     1  UNL1        0.0130
     23  O         24.7380  -23.2180  -10.6070 O.2     1  UNL1       -0.2290
     24  S         25.7490  -22.1730  -11.3530 S.3     1  UNL1        0.3030
     25  O         25.3320  -20.8130  -11.0670 O.3     1  UNL1       -0.1930
     26  O         27.1190  -22.5990  -11.1330 O.3     1  UNL1       -0.1930
     27  C         25.3870  -22.4590  -13.0780 C.2     1  UNL1        0.0860
     28  C         25.6000  -23.7350  -13.6160 C.2     1  UNL1        0.0280
     29  C         25.3090  -23.9750  -14.9610 C.2     1  UNL1        0.0370
     30  C         24.8010  -22.9370  -15.7570 C.2     1  UNL1        0.1020
     31  C         24.5790  -21.6610  -15.2130 C.2     1  UNL1        0.0370
     32  C         24.8710  -21.4240  -13.8670 C.2     1  UNL1        0.0280
     33  N         24.4950  -23.1870  -17.1720 N.pl3   1  UNL1       -0.1160
     34  O         25.4410  -23.1980  -17.9710 O.2     1  UNL1       -0.5320
     35  O         23.3080  -23.3670  -17.4810 O.2     1  UNL1       -0.5320
@<TRIPOS>BOND
     1    34    33    2
     2    35    33    2
     3    33    30    1
     4    30    31    2
     5    30    29    1
     6    31    32    1
     7    29    28    2
     8    32    27    2
     9    28    27    1
    10    27    24    1
    11     7     8    2
    12     7     1    1
    13     8     9    1
    14    24    26    1
    15    24    25    1
    16    24    23    1
    17     6     1    2
    18     6     5    1
    19     1     2    1
    20     9    12    1
    21     9    10   am
    22    23     5    1
    23    11    10    2
    24     5     4    2
    25    10    13    1
    26    14    13    2
    27    14    15    1
    28     2     3    2
    29    13    19    1
    30     4     3    1
    31    15    16    2
    32    19    22    1
    33    19    17    2
    34    16    17    1
    35    22    21    2
    36    17    18    1
    37    21    20    1
    38    18    20    2
