@<TRIPOS>MOLECULE
38281_out_ligand_01.pdbqt
 36 39 0 0 0
SMALL
GASTEIGER

@<TRIPOS>ATOM
      1  C         17.6600  -22.9360   -9.5110 C.2     1  UNL1        0.1130
      2  C         16.2670  -23.2240   -9.5920 C.1     1  UNL1        0.1050
      3  N         15.1260  -23.4150   -9.7080 N.1     1  UNL1       -0.1910
      4  C         18.3480  -22.7380  -10.6530 C.2     1  UNL1        0.0390
      5  C         18.2400  -22.9380   -8.1310 C.2     1  UNL1        0.2660
      6  N         17.6560  -22.0450   -7.2600 N.am    1  UNL1       -0.3210
      7  H         16.9100  -21.4410   -7.6240 H       1  UNL1        0.1690
      8  O         19.1480  -23.7220   -7.8700 O.2     1  UNL1       -0.2670
      9  C         17.9520  -21.8380   -5.8890 C.2     1  UNL1        0.0490
     10  C         18.8930  -20.8950   -5.4690 C.2     1  UNL1        0.0300
     11  C         19.1870  -20.7280   -4.1130 C.2     1  UNL1        0.0020
     12  C         18.5460  -21.5010   -3.1530 C.2     1  UNL1        0.0010
     13  C         17.6020  -22.4420   -3.5450 C.2     1  UNL1        0.0170
     14  C         17.2870  -22.6100   -4.9040 C.2     1  UNL1        0.0360
     15  C         16.2220  -23.5840   -5.2880 C.2     1  UNL1        0.1580
     16  C         14.7800  -23.2170   -5.0560 C.3     1  UNL1        0.0970
     17  O         16.5240  -24.6630   -5.8010 O.2     1  UNL1       -0.2930
     18  C         19.7810  -22.4780  -10.8420 C.2     1  UNL1       -0.0330
     19  C         20.1650  -21.6430  -11.8990 C.2     1  UNL1        0.0140
     20  C         21.5130  -21.3690  -12.1440 C.2     1  UNL1        0.0390
     21  C         22.5060  -21.9250  -11.3340 C.2     1  UNL1        0.0860
     22  C         22.1290  -22.7930  -10.3030 C.2     1  UNL1        0.0450
     23 BR         23.4330  -23.6230   -9.1930 Br      1  UNL1       -0.0480
     24  C         20.7770  -23.0740  -10.0580 C.2     1  UNL1        0.0330
     25  O         23.8440  -21.7010  -11.5560 O.2     1  UNL1       -0.3450
     26  C         24.4010  -22.3950  -12.6850 C.3     1  UNL1        0.2150
     27  C         24.9510  -21.4610  -13.7510 C.2     1  UNL1       -0.0230
     28  C         25.4950  -20.2260  -13.3430 C.2     1  UNL1        0.0100
     29  C         25.9990  -19.3250  -14.2700 C.2     1  UNL1        0.0020
     30  C         25.9650  -19.6350  -15.6250 C.2     1  UNL1        0.0120
     31  C         25.4260  -20.8480  -16.0730 C.2     1  UNL1       -0.0250
     32  C         25.4080  -21.1370  -17.4490 C.2     1  UNL1        0.0120
     33  C         24.8980  -21.7810  -15.1420 C.2     1  UNL1       -0.0180
     34  C         24.8690  -22.3280  -17.9300 C.2     1  UNL1        0.0010
     35  C         24.3460  -23.2490  -17.0380 C.2     1  UNL1        0.0010
     36  C         24.3570  -22.9800  -15.6670 C.2     1  UNL1        0.0130
@<TRIPOS>BOND
     1    34    32    2
     2    34    35    1
     3    32    31    1
     4    35    36    2
     5    31    30    2
     6    31    33    1
     7    36    33    1
     8    30    29    1
     9    33    27    2
    10    29    28    2
    11    27    28    1
    12    27    26    1
    13    26    25    1
    14    20    19    1
    15    20    21    2
    16    19    18    2
    17    25    21    1
    18    21    22    1
    19    18     4    1
    20    18    24    1
    21     4     1    2
    22    22    24    2
    23    22    23    1
    24     3     2    3
    25     2     1    1
    26     1     5    1
    27     5     8    2
    28     5     6   am
    29     7     6    1
    30     6     9    1
    31     9    10    2
    32     9    14    1
    33    17    15    2
    34    10    11    1
    35    15    16    1
    36    15    14    1
    37    14    13    2
    38    11    12    2
    39    13    12    1
