@<TRIPOS>MOLECULE
382_out_ligand_01.pdbqt
 38 41 0 0 0
SMALL
GASTEIGER

@<TRIPOS>ATOM
      1  C         21.5060  -21.9610  -11.5870 C.2     1  UNL1        0.2560
      2  O         21.2340  -21.2640  -12.5540 O.2     1  UNL1       -0.2670
      3  N         20.6410  -22.4630  -10.6350 N.am    1  UNL1       -0.3230
      4  H         21.0380  -23.0910   -9.9460 H       1  UNL1        0.1690
      5  C         19.2560  -22.2280  -10.5270 C.2     1  UNL1        0.0360
      6  C         18.5340  -21.4000  -11.3900 C.2     1  UNL1        0.0290
      7  C         17.1560  -21.2130  -11.2170 C.2     1  UNL1        0.0040
      8  C         16.4880  -21.8420  -10.1700 C.2     1  UNL1        0.0250
      9  C         17.2130  -22.6510   -9.2950 C.2     1  UNL1        0.0770
     10  C         18.5850  -22.8620   -9.4790 C.2     1  UNL1        0.0540
     11  S         16.3830  -23.4350   -7.9340 S.O2    1  UNL1        0.2460
     12  O         15.7670  -24.6490   -8.4280 O.2     1  UNL1       -0.2060
     13  O         15.6040  -22.4210   -7.2550 O.2     1  UNL1       -0.2060
     14  N         17.6520  -23.8450   -6.8930 N.pl3   1  UNL1       -0.1780
     15  H         17.5670  -24.8170   -6.5900 H       1  UNL1        0.1460
     16  C         18.0050  -22.9150   -5.8660 C.2     1  UNL1        0.0610
     17  C         18.8360  -21.8290   -6.1320 C.2     1  UNL1        0.0270
     18  C         19.1180  -20.9060   -5.1210 C.2     1  UNL1        0.0020
     19  C         18.5650  -21.0650   -3.8480 C.2     1  UNL1        0.0030
     20  C         17.7350  -22.1520   -3.5780 C.2     1  UNL1        0.0440
     21  C         17.4620  -23.0700   -4.5870 C.2     1  UNL1        0.1380
     22  F         16.6570  -24.1120   -4.3280 F       1  UNL1       -0.2040
     23  C         22.9160  -22.3940  -11.4090 C.2     1  UNL1        0.0390
     24  C         23.5650  -22.8950  -12.5440 C.2     1  UNL1        0.0420
     25  C         24.8710  -23.3750  -12.4350 C.2     1  UNL1        0.0800
     26  C         25.5490  -23.3160  -11.2160 C.2     1  UNL1        0.0260
     27  C         24.9090  -22.7880  -10.0920 C.2     1  UNL1        0.0090
     28  C         23.5910  -22.3050  -10.1740 C.2     1  UNL1       -0.0460
     29  C         22.9620  -21.7040   -8.9460 C.3     1  UNL1        0.0490
     30  S         25.7070  -23.9920  -13.8820 S.O2    1  UNL1        0.2610
     31  O         27.1180  -23.7160  -13.7200 O.2     1  UNL1       -0.2000
     32  O         25.2300  -25.3390  -14.1150 O.2     1  UNL1       -0.2000
     33  N         25.1200  -23.0100  -15.1300 N.3     1  UNL1       -0.3030
     34  C         24.9080  -23.6480  -16.4600 C.3     1  UNL1        0.1610
     35  C         24.0690  -22.7160  -17.3440 C.3     1  UNL1        0.1880
     36  O         24.7020  -21.4320  -17.4840 O.3     1  UNL1       -0.3880
     37  C         24.8400  -20.8050  -16.1990 C.3     1  UNL1        0.1880
     38  C         25.7150  -21.6510  -15.2660 C.3     1  UNL1        0.1610
@<TRIPOS>BOND
     1    36    35    1
     2    36    37    1
     3    35    34    1
     4    34    33    1
     5    37    38    1
     6    38    33    1
     7    33    30    1
     8    32    30    2
     9    30    31    2
    10    30    25    1
    11     2     1    2
    12    24    25    1
    13    24    23    2
    14    25    26    2
    15     1    23    1
    16     1     3   am
    17    23    28    1
    18     6     7    1
    19     6     5    2
    20     7     8    2
    21    26    27    1
    22     3     5    1
    23     3     4    1
    24     5    10    1
    25    28    27    2
    26    28    29    1
    27     8     9    1
    28    10     9    2
    29     9    11    1
    30    12    11    2
    31    11    13    2
    32    11    14    1
    33    14    15    1
    34    14    16    1
    35    17    16    2
    36    17    18    1
    37    16    21    1
    38    18    19    2
    39    21    22    1
    40    21    20    2
    41    19    20    1
