@<TRIPOS>MOLECULE
38304_out_ligand_01.pdbqt
 31 35 0 0 0
SMALL
GASTEIGER

@<TRIPOS>ATOM
      1  C         23.0400  -23.0090   -9.0070 C.3     1  UNL1        0.0330
      2  C         22.1740  -23.6560  -10.1030 C.3     1  UNL1        0.0910
      3  C         22.5510  -23.1370  -11.4860 C.3     1  UNL1        0.0550
      4  C         22.0410  -21.7140  -11.6660 C.3     1  UNL1        0.1190
      5  C         20.5550  -21.6410  -11.3970 C.2     1  UNL1       -0.0090
      6  C         19.7770  -20.6320  -12.0030 C.2     1  UNL1        0.0110
      7  C         18.3960  -20.5980  -11.8480 C.2     1  UNL1        0.0010
      8  C         17.7760  -21.5800  -11.0930 C.2     1  UNL1        0.0020
      9  C         18.5420  -22.5580  -10.4510 C.2     1  UNL1        0.0300
     10  C         19.9440  -22.5690  -10.5250 C.2     1  UNL1        0.0460
     11  N         20.7400  -23.5180   -9.7860 N.am    1  UNL1       -0.3090
     12  C         20.3060  -24.3030   -8.6930 C.2     1  UNL1        0.2590
     13  O         20.9000  -25.3230   -8.3350 O.2     1  UNL1       -0.2670
     14  C         19.2180  -23.8260   -7.8010 C.2     1  UNL1        0.0430
     15  C         18.0030  -24.5320   -7.8310 C.2     1  UNL1        0.0180
     16  C         16.9390  -24.1170   -7.0400 C.2     1  UNL1        0.0020
     17  C         17.0770  -22.9910   -6.2300 C.2     1  UNL1        0.0120
     18  C         18.2740  -22.2580   -6.2010 C.2     1  UNL1       -0.0250
     19  C         18.3870  -21.1250   -5.3780 C.2     1  UNL1        0.0120
     20  C         19.3720  -22.6620   -7.0000 C.2     1  UNL1       -0.0100
     21  C         19.5670  -20.3840   -5.3320 C.2     1  UNL1        0.0010
     22  C         20.6530  -20.7680   -6.1090 C.2     1  UNL1        0.0010
     23  C         20.5580  -21.8910   -6.9310 C.2     1  UNL1        0.0130
     24  N         22.4740  -21.1480  -12.9550 N.pl3   1  UNL1       -0.3810
     25  H         22.1080  -20.2090  -13.0850 H       1  UNL1        0.1600
     26  C         23.7380  -21.2780  -13.5270 C.2     1  UNL1        0.0280
     27  C         24.9440  -21.0760  -12.8470 C.2     1  UNL1        0.0290
     28  C         26.1800  -21.2910  -13.4680 C.2     1  UNL1        0.0020
     29  C         26.2340  -21.7440  -14.7830 C.2     1  UNL1        0.0000
     30  C         25.0520  -21.9930  -15.4680 C.2     1  UNL1        0.0020
     31  C         23.8220  -21.7730  -14.8390 C.2     1  UNL1        0.0290
@<TRIPOS>BOND
     1    30    31    1
     2    30    29    2
     3    31    26    2
     4    29    28    1
     5    26    24    1
     6    26    27    1
     7    28    27    2
     8    25    24    1
     9    24     4    1
    10     6     7    1
    11     6     5    2
    12     7     8    2
    13     4     3    1
    14     4     5    1
    15     3     2    1
    16     5    10    1
    17     8     9    1
    18    10     9    2
    19    10    11    1
    20     2    11    1
    21     2     1    1
    22    11    12   am
    23    12    13    2
    24    12    14    1
    25    15    14    2
    26    15    16    1
    27    14    20    1
    28    16    17    2
    29    20    23    1
    30    20    18    2
    31    23    22    2
    32    17    18    1
    33    18    19    1
    34    22    21    1
    35    19    21    2
