@<TRIPOS>MOLECULE
38313_out_ligand_01.pdbqt
 26 29 0 0 0
SMALL
GASTEIGER

@<TRIPOS>ATOM
      1  C         21.4460  -21.7220  -12.1520 C.2     1  UNL1        0.0120
      2  C         20.2220  -21.0430  -12.2580 C.2     1  UNL1        0.0160
      3  C         19.1870  -21.2860  -11.3450 C.2     1  UNL1        0.0180
      4  C         19.3680  -22.2080  -10.3080 C.2     1  UNL1        0.0320
      5  C         20.5770  -22.9000  -10.2020 C.2     1  UNL1        0.0180
      6  C         21.6080  -22.6490  -11.1110 C.2     1  UNL1        0.0160
      7  C         18.2920  -22.5000   -9.3270 C.2     1  UNL1        0.2520
      8  O         17.1600  -22.0770   -9.5290 O.2     1  UNL1       -0.2680
      9  N         18.6670  -23.2710   -8.2450 N.am    1  UNL1       -0.3440
     10  H         19.6090  -23.6340   -8.1880 H       1  UNL1        0.1640
     11  C         17.7880  -23.5610   -7.1450 C.3     1  UNL1        0.0600
     12  C         16.3750  -24.0450   -7.4080 C.3     1  UNL1        0.0390
     13  C         17.4000  -25.0130   -6.9140 C.3     1  UNL1        0.0390
     14  C         18.0410  -22.6780   -5.9300 C.2     1  UNL1       -0.0300
     15  C         18.8650  -21.5430   -6.0210 C.2     1  UNL1        0.0100
     16  C         19.1180  -20.7310   -4.9130 C.2     1  UNL1        0.0010
     17  C         18.5520  -21.0430   -3.6790 C.2     1  UNL1        0.0000
     18  C         17.7390  -22.1670   -3.5560 C.2     1  UNL1        0.0010
     19  C         17.4920  -22.9760   -4.6680 C.2     1  UNL1        0.0100
     20  C         22.5500  -21.4960  -13.0840 C.ar    1  UNL1        0.1610
     21  N         22.5120  -20.7870  -14.1970 N.ar    1  UNL1       -0.1300
     22  N         23.7580  -20.8100  -14.7790 N.ar    1  UNL1       -0.1350
     23  C         24.5480  -21.5210  -14.0080 C.ar    1  UNL1        0.1240
     24  C         25.9820  -21.8150  -14.2080 C.3     1  UNL1        0.0930
     25  N         23.8300  -21.9700  -12.9340 N.ar    1  UNL1       -0.3260
     26  H         24.1820  -22.5170  -12.1650 H       1  UNL1        0.1690
@<TRIPOS>BOND
     1    22    21   ar
     2    22    23   ar
     3    24    23    1
     4    21    20   ar
     5    23    25   ar
     6    20    25   ar
     7    20     1    1
     8    25    26    1
     9     2     1    2
    10     2     3    1
    11     1     6    1
    12     3     4    2
    13     6     5    2
    14     4     5    1
    15     4     7    1
    16     8     7    2
    17     7     9   am
    18     9    10    1
    19     9    11    1
    20    12    11    1
    21    12    13    1
    22    11    13    1
    23    11    14    1
    24    15    14    2
    25    15    16    1
    26    14    19    1
    27    16    17    2
    28    19    18    2
    29    17    18    1
