@<TRIPOS>MOLECULE
38311_out_ligand_01.pdbqt
 29 31 0 0 0
SMALL
GASTEIGER

@<TRIPOS>ATOM
      1  N         21.7380  -22.9620  -10.8080 N.pl3   1  UNL1       -0.3850
      2  H         20.9670  -22.3000  -10.6530 H       1  UNL1        0.1600
      3  C         22.1620  -23.6130   -9.5700 C.3     1  UNL1        0.0820
      4  C         22.9080  -22.6480   -8.6400 C.3     1  UNL1        0.0250
      5  C         22.0040  -21.5780   -8.0390 C.3     1  UNL1        0.0030
      6  C         20.7930  -22.1820   -7.3310 C.3     1  UNL1        0.0110
      7  C         20.0080  -23.2160   -8.1630 C.3     1  UNL1        0.0400
      8  C         20.9390  -24.2240   -8.8620 C.3     1  UNL1        0.0360
      9  C         19.0040  -22.5910   -9.1280 C.2     1  UNL1        0.0440
     10  N         19.5210  -21.8050  -10.1110 N.2     1  UNL1       -0.2650
     11  C         18.6680  -21.2350  -10.9910 C.2     1  UNL1        0.1170
     12  C         17.3040  -21.4200  -10.9630 C.2     1  UNL1        0.0200
     13  C         16.7800  -22.2400   -9.9730 C.2     1  UNL1        0.0100
     14  C         17.6270  -22.8490   -9.0380 C.2     1  UNL1       -0.0370
     15  C         17.0310  -23.7300   -7.9790 C.3     1  UNL1        0.0500
     16  C         22.6310  -22.5140  -11.7780 C.2     1  UNL1        0.0280
     17  C         23.9310  -23.0080  -11.9300 C.2     1  UNL1        0.0290
     18  C         24.7610  -22.5650  -12.9680 C.2     1  UNL1        0.0110
     19  C         24.2980  -21.6390  -13.9060 C.2     1  UNL1       -0.0400
     20  C         22.9910  -21.1620  -13.7830 C.2     1  UNL1        0.0110
     21  C         22.1690  -21.6090  -12.7430 C.2     1  UNL1        0.0290
     22  C         25.1950  -21.1420  -15.0060 C.3     1  UNL1        0.1620
     23  N         24.4300  -20.4600  -16.0240 N.am    1  UNL1       -0.3440
     24  C         24.7410  -20.6550  -17.3340 C.2     1  UNL1        0.2920
     25  N         24.0260  -19.8450  -18.1520 N.am    1  UNL1       -0.2540
     26  O         25.5620  -21.4480  -17.7680 O.2     1  UNL1       -0.2540
     27  H         23.0590  -19.7130  -17.8900 H       1  UNL1        0.1280
     28  H         24.1580  -20.0700  -19.1320 H       1  UNL1        0.1280
     29  H         24.1410  -19.5190  -15.8040 H       1  UNL1        0.1640
@<TRIPOS>BOND
     1    28    25    1
     2    25    27    1
     3    25    24   am
     4    26    24    2
     5    24    23   am
     6    23    29    1
     7    23    22    1
     8    22    19    1
     9    19    20    2
    10    19    18    1
    11    20    21    1
    12    18    17    2
    13    21    16    2
    14    17    16    1
    15    16     1    1
    16    11    12    2
    17    11    10    1
    18    12    13    1
    19     1     2    1
    20     1     3    1
    21    10     9    2
    22    13    14    2
    23     3     8    1
    24     3     4    1
    25     9    14    1
    26     9     7    1
    27    14    15    1
    28     8     7    1
    29     4     5    1
    30     7     6    1
    31     5     6    1
