@<TRIPOS>MOLECULE
38328_out_ligand_01.pdbqt
 28 30 0 0 0
SMALL
GASTEIGER

@<TRIPOS>ATOM
      1  C         22.4320  -21.8280  -12.5730 C.2     1  UNL1        0.0340
      2  C         22.9950  -22.6350  -11.5780 C.2     1  UNL1        0.0180
      3  C         22.2180  -23.0690  -10.4950 C.2     1  UNL1        0.0120
      4  C         20.8690  -22.6950  -10.3740 C.2     1  UNL1       -0.0120
      5  C         20.3250  -21.8930  -11.3930 C.2     1  UNL1        0.1110
      6  C         21.0920  -21.4440  -12.4760 C.2     1  UNL1        0.0530
      7  C         20.0740  -23.1830   -9.1820 C.3     1  UNL1        0.1330
      8  N         20.1960  -22.2140   -8.1040 N.pl3   1  UNL1       -0.2890
      9  H         21.1190  -22.2690   -7.6630 H       1  UNL1        0.1280
     10  C         19.2080  -22.1550   -7.1120 C.2     1  UNL1        0.0090
     11  C         19.3380  -21.4340   -5.9190 C.2     1  UNL1        0.0240
     12  C         18.3470  -21.4760   -4.9310 C.2     1  UNL1        0.0100
     13  C         17.2120  -22.2770   -5.0910 C.2     1  UNL1       -0.0440
     14  C         17.0850  -23.0270   -6.2670 C.2     1  UNL1        0.0180
     15  C         16.1470  -22.2950   -4.0280 C.3     1  UNL1        0.0400
     16  C         18.0800  -22.9760   -7.2530 C.2     1  UNL1        0.0390
     17  C         15.8900  -23.8870   -6.4840 C.2     1  UNL1        0.1600
     18  O         15.7620  -24.5270   -7.5250 O.2     1  UNL1       -0.2920
     19  C         14.8170  -23.8970   -5.4180 C.3     1  UNL1        0.0840
     20  C         15.3900  -23.6160   -4.0380 C.3     1  UNL1        0.0120
     21  N         18.9200  -21.5220  -11.3710 N.pl3   1  UNL1       -0.1150
     22  O         18.6530  -20.3260  -11.5360 O.2     1  UNL1       -0.5320
     23  O         18.0990  -22.4300  -11.1900 O.2     1  UNL1       -0.5320
     24  C         23.2190  -21.3410  -13.7370 C.2     1  UNL1        0.2490
     25  N         22.6910  -20.3250  -14.4820 N.am    1  UNL1       -0.3660
     26  H         21.9500  -19.7290  -14.1430 H       1  UNL1        0.1590
     27  H         23.3030  -19.9350  -15.1900 H       1  UNL1        0.1590
     28  O         24.3190  -21.8090  -14.0000 O.2     1  UNL1       -0.2680
@<TRIPOS>BOND
     1    27    25    1
     2    25    26    1
     3    25    24   am
     4    28    24    2
     5    24     1    1
     6     1     6    2
     7     1     2    1
     8     6     5    1
     9     2     3    2
    10    22    21    2
    11     5    21    1
    12     5     4    2
    13    21    23    2
    14     3     4    1
    15     4     7    1
    16     7     8    1
    17     8     9    1
    18     8    10    1
    19    18    17    2
    20    16    10    2
    21    16    14    1
    22    10    11    1
    23    17    14    1
    24    17    19    1
    25    14    13    2
    26    11    12    2
    27    19    20    1
    28    13    12    1
    29    13    15    1
    30    20    15    1
