@<TRIPOS>MOLECULE
38327_out_ligand_01.pdbqt
 28 30 0 0 0
SMALL
GASTEIGER

@<TRIPOS>ATOM
      1  C         17.3300  -23.6210   -6.1380 C.2     1  UNL1       -0.0400
      2  C         17.9070  -24.5170   -7.0520 C.2     1  UNL1        0.0100
      3  C         19.0680  -24.1690   -7.7460 C.2     1  UNL1        0.0170
      4  C         19.6430  -22.9110   -7.5410 C.2     1  UNL1        0.0320
      5  C         19.0940  -22.0180   -6.6190 C.2     1  UNL1        0.0170
      6  C         17.9300  -22.3690   -5.9320 C.2     1  UNL1        0.0100
      7  C         20.8890  -22.5440   -8.2490 C.2     1  UNL1        0.2580
      8  O         21.7350  -21.9770   -7.5590 O.2     1  UNL1       -0.2670
      9  N         21.0040  -22.8500   -9.6250 N.am    1  UNL1       -0.3130
     10  C         19.8060  -23.0810  -10.4320 C.3     1  UNL1        0.1320
     11  C         22.2970  -22.7680  -10.2820 C.2     1  UNL1        0.0430
     12  C         19.0560  -21.7970  -10.8090 C.3     1  UNL1        0.0200
     13  C         19.9290  -20.5830  -11.1170 C.3     1  UNL1        0.0020
     14  C         20.7580  -20.6830  -12.3910 C.3     1  UNL1        0.0050
     15  C         21.4680  -22.0070  -12.6570 C.3     1  UNL1        0.0410
     16  C         22.5150  -22.4240  -11.6430 C.2     1  UNL1       -0.0310
     17  C         23.8450  -22.4250  -12.1410 C.2     1  UNL1        0.0090
     18  C         24.9380  -22.7540  -11.3450 C.2     1  UNL1        0.0010
     19  C         24.7300  -23.0960  -10.0230 C.2     1  UNL1        0.0020
     20  C         23.4320  -23.1050   -9.5090 C.2     1  UNL1        0.0300
     21  C         16.0640  -23.9840   -5.4010 C.3     1  UNL1        0.1620
     22  N         14.9680  -23.1230   -5.7870 N.am    1  UNL1       -0.3440
     23  C         14.5060  -22.1610   -4.9420 C.2     1  UNL1        0.2920
     24  N         13.5510  -21.3890   -5.5220 N.am    1  UNL1       -0.2540
     25  O         14.8660  -21.9780   -3.7890 O.2     1  UNL1       -0.2540
     26  H         12.8920  -21.8790   -6.1090 H       1  UNL1        0.1280
     27  H         13.1180  -20.7550   -4.8610 H       1  UNL1        0.1280
     28  H         14.9030  -22.8890   -6.7660 H       1  UNL1        0.1640
@<TRIPOS>BOND
     1    15    14    1
     2    15    16    1
     3    14    13    1
     4    17    16    1
     5    17    18    2
     6    16    11    2
     7    18    19    1
     8    13    12    1
     9    12    10    1
    10    10     9    1
    11    11     9    1
    12    11    20    1
    13    19    20    2
    14     9     7   am
    15     7     8    2
    16     7     4    1
    17     3     4    2
    18     3     2    1
    19     4     5    1
    20     2     1    2
    21    28    22    1
    22     5     6    2
    23     1     6    1
    24     1    21    1
    25    26    24    1
    26    22    21    1
    27    22    23   am
    28    24    23   am
    29    24    27    1
    30    23    25    2
