@<TRIPOS>MOLECULE
38321_out_ligand_01.pdbqt
 26 29 0 0 0
SMALL
GASTEIGER

@<TRIPOS>ATOM
      1  C         22.1760  -22.9060  -10.6160 C.2     1  UNL1        0.0320
      2  C         21.6740  -23.3350   -9.3900 C.2     1  UNL1        0.0190
      3  C         20.3320  -23.1100   -9.0530 C.2     1  UNL1        0.0310
      4  C         19.4450  -22.4790   -9.9330 C.2     1  UNL1        0.0430
      5  C         19.9810  -21.9990  -11.1510 C.2     1  UNL1       -0.0300
      6  C         21.3260  -22.2410  -11.4980 C.2     1  UNL1        0.0260
      7  C         19.1210  -21.2360  -12.1220 C.3     1  UNL1        0.0420
      8  C         18.1370  -20.4000  -11.3350 C.3     1  UNL1        0.0250
      9  C         17.3020  -21.3150  -10.4600 C.3     1  UNL1        0.1320
     10  N         18.0550  -22.2660   -9.6360 N.am    1  UNL1       -0.3170
     11  C         17.2350  -22.9870   -8.7410 C.2     1  UNL1        0.2290
     12  O         16.0620  -22.6710   -8.5440 O.2     1  UNL1       -0.2730
     13  C         17.7410  -24.2210   -8.0720 C.3     1  UNL1        0.0870
     14  C         16.9760  -24.8250   -6.9150 C.3     1  UNL1        0.0250
     15  C         18.3210  -24.1920   -6.6630 C.3     1  UNL1        0.0340
     16  C         18.4100  -22.9250   -5.8430 C.2     1  UNL1       -0.0360
     17  C         19.2510  -21.8640   -6.2060 C.2     1  UNL1        0.0100
     18  C         19.2950  -20.6930   -5.4500 C.2     1  UNL1        0.0200
     19  C         18.4790  -20.6000   -4.3390 C.2     1  UNL1        0.1160
     20  N         17.6380  -21.5780   -3.9490 N.2     1  UNL1       -0.2730
     21  C         17.6300  -22.7040   -4.7040 C.2     1  UNL1        0.1230
     22  C         23.6030  -23.1790  -10.9330 C.2     1  UNL1        0.2490
     23  N         24.4670  -23.3280   -9.8830 N.am    1  UNL1       -0.3660
     24  H         24.1430  -23.5320   -8.9490 H       1  UNL1        0.1590
     25  H         25.3970  -23.6440  -10.1270 H       1  UNL1        0.1590
     26  O         23.9920  -23.3000  -12.0880 O.2     1  UNL1       -0.2680
@<TRIPOS>BOND
     1     7     8    1
     2     7     5    1
     3    26    22    2
     4     6     5    1
     5     6     1    2
     6     8     9    1
     7     5     4    2
     8    22     1    1
     9    22    23   am
    10     1     2    1
    11     9    10    1
    12    25    23    1
    13     4    10    1
    14     4     3    1
    15    23    24    1
    16    10    11   am
    17     2     3    2
    18    11    12    2
    19    11    13    1
    20    13    14    1
    21    13    15    1
    22    14    15    1
    23    15    16    1
    24    17    16    2
    25    17    18    1
    26    16    21    1
    27    18    19    2
    28    21    20    2
    29    19    20    1
