@<TRIPOS>MOLECULE
38330_out_ligand_01.pdbqt
 26 28 0 0 0
SMALL
GASTEIGER

@<TRIPOS>ATOM
      1  C         19.3600  -23.5800   -8.4870 C.2     1  UNL1        0.2580
      2  O         20.1710  -24.5030   -8.4450 O.2     1  UNL1       -0.2670
      3  N         19.2150  -22.6420   -9.5250 N.am    1  UNL1       -0.3130
      4  C         17.9540  -21.9030   -9.6950 C.3     1  UNL1        0.1330
      5  C         17.5660  -21.7320  -11.1520 C.3     1  UNL1        0.0250
      6  C         18.6520  -20.9520  -11.8640 C.3     1  UNL1        0.0420
      7  C         20.0050  -21.5610  -11.6090 C.2     1  UNL1       -0.0300
      8  C         21.0350  -21.2640  -12.5240 C.2     1  UNL1        0.0260
      9  C         22.3230  -21.7750  -12.3510 C.2     1  UNL1        0.0320
     10  C         22.5780  -22.5980  -11.2560 C.2     1  UNL1        0.0190
     11  C         21.5610  -22.8820  -10.3340 C.2     1  UNL1        0.0310
     12  C         20.2600  -22.3780  -10.4860 C.2     1  UNL1        0.0430
     13  C         18.4490  -23.4870   -7.3200 C.2     1  UNL1        0.0350
     14  C         18.6450  -22.4510   -6.3940 C.2     1  UNL1        0.0570
     15  C         17.7880  -22.3260   -5.3000 C.2     1  UNL1        0.1070
     16  C         16.7360  -23.2400   -5.1600 C.2     1  UNL1        0.1490
     17  C         16.5220  -24.2550   -6.0920 C.2     1  UNL1        0.0460
     18  F         15.8990  -23.1480   -4.1160 F       1  UNL1       -0.2030
     19  C         17.3760  -24.3760   -7.1860 C.2     1  UNL1        0.0200
     20  O         17.8810  -21.3720   -4.3230 O.2     1  UNL1       -0.3530
     21  C         18.6180  -21.7100   -3.1540 C.3     1  UNL1        0.2100
     22  C         23.3630  -21.4300  -13.3570 C.2     1  UNL1        0.2490
     23  N         22.9910  -20.6460  -14.4150 N.am    1  UNL1       -0.3660
     24  H         22.0260  -20.4920  -14.6670 H       1  UNL1        0.1590
     25  H         23.6870  -20.5250  -15.1400 H       1  UNL1        0.1590
     26  O         24.5080  -21.8560  -13.2700 O.2     1  UNL1       -0.2680
@<TRIPOS>BOND
     1    25    23    1
     2    24    23    1
     3    23    22   am
     4    22    26    2
     5    22     9    1
     6     8     9    1
     7     8     7    2
     8     9    10    2
     9     6     7    1
    10     6     5    1
    11     7    12    1
    12    10    11    1
    13     5     4    1
    14    12    11    2
    15    12     3    1
    16     4     3    1
    17     3     1   am
    18     1     2    2
    19     1    13    1
    20    13    19    2
    21    13    14    1
    22    19    17    1
    23    14    15    2
    24    17    16    2
    25    15    16    1
    26    15    20    1
    27    16    18    1
    28    20    21    1
