@<TRIPOS>MOLECULE
38332_out_ligand_01.pdbqt
 26 28 0 0 0
SMALL
GASTEIGER

@<TRIPOS>ATOM
      1  C         23.7520  -22.8950  -10.4200 C.2     1  UNL1        0.0320
      2  C         23.0780  -23.5370   -9.3800 C.2     1  UNL1        0.0190
      3  C         21.7010  -23.3490   -9.2120 C.2     1  UNL1        0.0310
      4  C         20.9690  -22.5050  -10.0600 C.2     1  UNL1        0.0430
      5  C         21.6430  -21.9020  -11.1430 C.2     1  UNL1       -0.0300
      6  C         23.0270  -22.1000  -11.3100 C.2     1  UNL1        0.0260
      7  C         20.9200  -21.0850  -12.1860 C.3     1  UNL1        0.0420
      8  C         19.5150  -20.6980  -11.7550 C.3     1  UNL1        0.0250
      9  C         18.8340  -21.8920  -11.1100 C.3     1  UNL1        0.1320
     10  N         19.5610  -22.3050   -9.9070 N.am    1  UNL1       -0.3170
     11  C         18.7970  -22.5400   -8.7630 C.2     1  UNL1        0.2280
     12  O         17.5950  -22.8200   -8.8330 O.2     1  UNL1       -0.2730
     13  C         19.4540  -22.3410   -7.4000 C.3     1  UNL1        0.1450
     14  C         18.4950  -22.6050   -6.2610 C.2     1  UNL1       -0.0110
     15  C         17.7880  -23.8130   -6.1700 C.2     1  UNL1        0.0130
     16  C         16.8970  -24.0210   -5.1160 C.2     1  UNL1        0.0430
     17  C         16.7090  -23.0260   -4.1620 C.2     1  UNL1        0.1190
     18  F         15.8530  -23.2340   -3.1530 F       1  UNL1       -0.2060
     19  C         17.3930  -21.8210   -4.2390 C.2     1  UNL1        0.0850
     20  C         18.2770  -21.6190   -5.2900 C.2     1  UNL1        0.1260
     21  F         18.9380  -20.4560   -5.3680 F       1  UNL1       -0.2050
     22  C         25.2110  -23.0690  -10.6480 C.2     1  UNL1        0.2490
     23  N         25.8550  -24.0260   -9.9140 N.am    1  UNL1       -0.3660
     24  H         26.8640  -24.0320   -9.9940 H       1  UNL1        0.1590
     25  H         25.4590  -24.4100   -9.0680 H       1  UNL1        0.1590
     26  O         25.8270  -22.3630  -11.4360 O.2     1  UNL1       -0.2680
@<TRIPOS>BOND
     1     7     8    1
     2     7     5    1
     3     8     9    1
     4    26    22    2
     5     6     5    1
     6     6     1    2
     7     5     4    2
     8     9    10    1
     9    22     1    1
    10    22    23   am
    11     1     2    1
    12     4    10    1
    13     4     3    1
    14    24    23    1
    15    23    25    1
    16    10    11   am
    17     2     3    2
    18    12    11    2
    19    11    13    1
    20    13    14    1
    21    14    15    2
    22    14    20    1
    23    15    16    1
    24    21    20    1
    25    20    19    2
    26    16    17    2
    27    19    17    1
    28    17    18    1
