@<TRIPOS>MOLECULE
38340_out_ligand_01.pdbqt
 25 27 0 0 0
SMALL
GASTEIGER

@<TRIPOS>ATOM
      1  C         16.8370  -22.8920   -8.3380 C.2     1  UNL1        0.2480
      2  O         15.6570  -22.5890   -8.1670 O.2     1  UNL1       -0.2680
      3  N         17.6550  -22.2820   -9.2900 N.am    1  UNL1       -0.3140
      4  C         16.9830  -21.4910  -10.3230 C.3     1  UNL1        0.1330
      5  C         17.5100  -21.8560  -11.7000 C.3     1  UNL1        0.0250
      6  C         18.9910  -21.5330  -11.7770 C.3     1  UNL1        0.0420
      7  C         19.7470  -21.9660  -10.5430 C.2     1  UNL1       -0.0300
      8  C         21.1560  -21.9750  -10.6070 C.2     1  UNL1        0.0260
      9  C         21.9190  -22.2980   -9.4820 C.2     1  UNL1        0.0320
     10  C         21.2700  -22.5600   -8.2760 C.2     1  UNL1        0.0190
     11  C         19.8720  -22.5470   -8.2060 C.2     1  UNL1        0.0310
     12  C         19.0880  -22.2910   -9.3380 C.2     1  UNL1        0.0430
     13  C         17.3680  -24.1160   -7.6810 C.2     1  UNL1        0.0770
     14  C         17.5500  -24.3630   -6.3750 C.2     1  UNL1        0.0370
     15  C         17.3610  -23.4420   -5.3090 C.2     1  UNL1        0.0530
     16  C         18.1620  -22.5360   -4.6380 C.2     1  UNL1        0.0520
     17  C         17.3370  -21.9380   -3.6710 C.2     1  UNL1        0.1410
     18  N         16.0950  -22.4160   -3.7020 N.2     1  UNL1       -0.1850
     19  N         16.1210  -23.3180   -4.7040 N.pl3   1  UNL1       -0.2750
     20  C         14.9040  -24.0470   -4.9930 C.3     1  UNL1        0.1800
     21  C         23.4060  -22.3250   -9.5070 C.2     1  UNL1        0.2490
     22  N         24.0250  -23.4860   -9.1320 N.am    1  UNL1       -0.3660
     23  H         25.0310  -23.4300   -9.0320 H       1  UNL1        0.1590
     24  H         23.5480  -24.2030   -8.6050 H       1  UNL1        0.1590
     25  O         24.0630  -21.3370   -9.8110 O.2     1  UNL1       -0.2680
@<TRIPOS>BOND
     1     6     5    1
     2     6     7    1
     3     5     4    1
     4     8     7    2
     5     8     9    1
     6     7    12    1
     7     4     3    1
     8    25    21    2
     9    21     9    1
    10    21    22   am
    11     9    10    2
    12    12     3    1
    13    12    11    2
    14     3     1   am
    15    22    23    1
    16    22    24    1
    17     1     2    2
    18     1    13    1
    19    10    11    1
    20    13    14    2
    21    14    15    1
    22    15    19    1
    23    15    16    2
    24    20    19    1
    25    19    18    1
    26    16    17    1
    27    18    17    2
