@<TRIPOS>MOLECULE
38344_out_ligand_01.pdbqt
 27 28 0 0 0
SMALL
GASTEIGER

@<TRIPOS>ATOM
      1  N         18.2230  -22.6080   -9.0470 N.am    1  UNL1       -0.3270
      2  C         16.8460  -22.5960   -9.2050 C.2     1  UNL1        0.2250
      3  O         16.2330  -22.1890  -10.1900 O.2     1  UNL1       -0.2730
      4  H         18.5650  -22.7620   -8.1060 H       1  UNL1        0.1690
      5  C         19.1870  -22.2650  -10.0130 C.2     1  UNL1        0.0360
      6  C         18.7490  -21.5980  -11.1570 C.2     1  UNL1        0.0300
      7  C         19.6550  -21.2350  -12.1580 C.2     1  UNL1        0.0100
      8  C         21.0260  -21.5190  -12.0410 C.2     1  UNL1       -0.0390
      9  C         21.9350  -21.0910  -13.1580 C.3     1  UNL1        0.0500
     10  C         21.4620  -22.1760  -10.8800 C.2     1  UNL1        0.0820
     11  C         20.5460  -22.5370   -9.8730 C.2     1  UNL1        0.0540
     12  S         23.1660  -22.5980  -10.5530 S.O2    1  UNL1        0.2390
     13  O         23.7500  -23.2800  -11.6820 O.2     1  UNL1       -0.2060
     14  O         23.7950  -21.4470   -9.9470 O.2     1  UNL1       -0.2060
     15  N         23.0050  -23.7400   -9.3210 N.3     1  UNL1       -0.2250
     16  H         22.2850  -24.4130   -9.5940 H       1  UNL1        0.1360
     17  H         23.8820  -24.2070   -9.0920 H       1  UNL1        0.1360
     18  C         16.1130  -23.0990   -7.9670 C.3     1  UNL1        0.1300
     19  C         16.8110  -24.3110   -7.4140 C.2     1  UNL1       -0.0170
     20  C         17.5810  -24.3790   -6.3160 C.2     1  UNL1        0.0080
     21  C         17.8500  -23.2560   -5.4180 C.2     1  UNL1       -0.0340
     22  C         17.3660  -23.2510   -4.1040 C.2     1  UNL1        0.0110
     23  C         17.6530  -22.1810   -3.2500 C.2     1  UNL1        0.0040
     24  C         18.4260  -21.1150   -3.7090 C.2     1  UNL1        0.0420
     25  C         18.8980  -21.1230   -5.0170 C.2     1  UNL1        0.1170
     26  F         19.6530  -20.1070   -5.4500 F       1  UNL1       -0.2060
     27  C         18.6150  -22.1780   -5.8770 C.2     1  UNL1        0.0530
@<TRIPOS>BOND
     1     9     8    1
     2     7     8    2
     3     7     6    1
     4     8    10    1
     5    13    12    2
     6     6     5    2
     7    10    12    1
     8    10    11    2
     9    12    14    2
    10    12    15    1
    11     3     2    2
    12     5    11    1
    13     5     1    1
    14    16    15    1
    15    15    17    1
    16     2     1   am
    17     2    18    1
    18     1     4    1
    19    18    19    1
    20    19    20    2
    21    20    21    1
    22    27    21    2
    23    27    25    1
    24    26    25    1
    25    21    22    1
    26    25    24    2
    27    22    23    2
    28    24    23    1
