@<TRIPOS>MOLECULE
38353_out_ligand_01.pdbqt
 28 30 0 0 0
SMALL
GASTEIGER

@<TRIPOS>ATOM
      1  N         20.4780  -22.5480   -8.8230 N.am    1  UNL1       -0.3230
      2  C         20.1450  -22.1130  -10.0940 C.2     1  UNL1        0.2560
      3  O         19.0360  -21.7680  -10.4840 O.2     1  UNL1       -0.2670
      4  H         21.4050  -22.9360   -8.7020 H       1  UNL1        0.1690
      5  C         19.6380  -22.6100   -7.6930 C.2     1  UNL1        0.0350
      6  C         19.6190  -21.6560   -6.6790 C.2     1  UNL1        0.0390
      7  C         18.7600  -21.7940   -5.5710 C.2     1  UNL1       -0.0290
      8  C         18.8190  -20.7660   -4.4750 C.3     1  UNL1        0.0420
      9  C         17.8540  -22.8680   -5.4910 C.2     1  UNL1        0.0430
     10  C         18.5880  -21.4720   -3.1530 C.3     1  UNL1        0.0250
     11  C         17.2370  -22.1650   -3.1820 C.3     1  UNL1        0.1320
     12  N         16.9520  -22.9580   -4.3820 N.am    1  UNL1       -0.3180
     13  C         15.7270  -23.6320   -4.3440 C.2     1  UNL1        0.2200
     14  C         15.0510  -24.0390   -5.6290 C.3     1  UNL1        0.1170
     15  O         15.1320  -23.8400   -3.2810 O.2     1  UNL1       -0.2730
     16  C         17.9280  -23.8490   -6.4850 C.2     1  UNL1        0.0320
     17  C         18.8000  -23.7190   -7.5750 C.2     1  UNL1        0.0320
     18  C         21.2680  -22.1220  -11.0740 C.2     1  UNL1        0.0320
     19  C         22.4570  -22.8150  -10.8260 C.2     1  UNL1        0.0170
     20  C         23.4880  -22.7950  -11.7720 C.2     1  UNL1        0.0100
     21  C         23.3540  -22.0720  -12.9690 C.2     1  UNL1       -0.0260
     22  C         22.1570  -21.3750  -13.2010 C.2     1  UNL1        0.0100
     23  C         21.1270  -21.3920  -12.2580 C.2     1  UNL1        0.0170
     24  C         24.4860  -22.0820  -13.9830 C.3     1  UNL1        0.2460
     25  C         25.6320  -21.1400  -13.6120 C.3     1  UNL1        0.0470
     26  N         23.9850  -21.7540  -15.3180 N.3     1  UNL1        0.0860
     27  H         24.4290  -22.3640  -16.0030 H       1  UNL1        0.3130
     28  H         24.2780  -20.8080  -15.5550 H       1  UNL1        0.3130
@<TRIPOS>BOND
     1    27    26    1
     2    28    26    1
     3    26    24    1
     4    24    25    1
     5    24    21    1
     6    22    21    2
     7    22    23    1
     8    21    20    1
     9    23    18    2
    10    20    19    2
    11    18    19    1
    12    18     2    1
    13     3     2    2
    14     2     1   am
    15     1     4    1
    16     1     5    1
    17     5    17    2
    18     5     6    1
    19    17    16    1
    20     6     7    2
    21    16     9    2
    22    14    13    1
    23     7     9    1
    24     7     8    1
    25     9    12    1
    26     8    10    1
    27    12    13   am
    28    12    11    1
    29    13    15    2
    30    11    10    1
