@<TRIPOS>MOLECULE
3837_out_ligand_01.pdbqt
 33 35 0 0 0
SMALL
GASTEIGER

@<TRIPOS>ATOM
      1  C         21.2010  -23.2510   -8.8750 C.2     1  UNL1        0.0220
      2  C         20.2870  -24.3060   -8.8180 C.2     1  UNL1        0.0260
      3  C         19.2730  -24.2940   -7.8570 C.2     1  UNL1        0.0270
      4  C         19.2000  -23.2340   -6.9490 C.2     1  UNL1        0.0800
      5  C         20.1090  -22.1730   -7.0080 C.2     1  UNL1        0.0270
      6  C         21.1200  -22.1920   -7.9680 C.2     1  UNL1        0.0260
      7  S         17.9360  -23.2400   -5.7020 S.O2    1  UNL1        0.2630
      8  O         18.3890  -22.3860   -4.6240 O.2     1  UNL1       -0.2000
      9  O         17.5290  -24.6050   -5.4500 O.2     1  UNL1       -0.2000
     10  N         16.6700  -22.4090   -6.4580 N.pl3   1  UNL1       -0.2810
     11  H         15.8440  -22.3880   -5.8620 H       1  UNL1        0.1790
     12  C         16.4730  -22.6250   -7.8490 C.2     1  UNL1        0.0430
     13  C         15.6810  -23.6910   -8.2730 C.2     1  UNL1        0.0300
     14  C         15.4410  -23.8800   -9.6340 C.2     1  UNL1        0.0030
     15  C         15.9920  -23.0030  -10.5680 C.2     1  UNL1        0.0160
     16  C         16.7940  -21.9280  -10.1500 C.2     1  UNL1        0.0500
     17  C         17.0210  -21.7410   -8.7780 C.2     1  UNL1        0.0460
     18  C         17.3630  -20.9610  -11.1590 C.3     1  UNL1        0.4170
     19  F         17.2510  -21.4070  -12.4420 F       1  UNL1       -0.1660
     20  F         16.7420  -19.7510  -11.1280 F       1  UNL1       -0.1660
     21  F         18.6880  -20.7110  -10.9700 F       1  UNL1       -0.1660
     22  N         22.2980  -23.2910   -9.7950 N.pl3   1  UNL1       -0.1810
     23  H         23.1550  -23.5860   -9.3220 H       1  UNL1        0.1460
     24  S         22.6370  -21.7760  -10.5130 S.O2    1  UNL1        0.2450
     25  O         23.5530  -21.1050   -9.6130 O.2     1  UNL1       -0.2060
     26  O         21.4140  -21.1530  -10.9680 O.2     1  UNL1       -0.2060
     27  C         23.5410  -22.2900  -11.9500 C.2     1  UNL1        0.0740
     28  C         24.4530  -23.3450  -11.8680 C.2     1  UNL1        0.0250
     29  C         25.1550  -23.7330  -13.0100 C.2     1  UNL1        0.0080
     30  C         24.9620  -23.0630  -14.2270 C.2     1  UNL1       -0.0620
     31  C         25.6960  -23.5020  -15.4600 C.3     1  UNL1        0.0480
     32  C         24.0370  -22.0120  -14.2940 C.2     1  UNL1        0.0080
     33  C         23.3320  -21.6170  -13.1570 C.2     1  UNL1        0.0250
@<TRIPOS>BOND
     1    31    30    1
     2    32    30    2
     3    32    33    1
     4    30    29    1
     5    33    27    2
     6    29    28    2
     7    19    18    1
     8    27    28    1
     9    27    24    1
    10    18    20    1
    11    18    21    1
    12    18    16    1
    13    26    24    2
    14    15    16    2
    15    15    14    1
    16    24    22    1
    17    24    25    2
    18    16    17    1
    19    22    23    1
    20    22     1    1
    21    14    13    2
    22     1     2    2
    23     1     6    1
    24     2     3    1
    25    17    12    2
    26    13    12    1
    27     6     5    2
    28     3     4    2
    29    12    10    1
    30     5     4    1
    31     4     7    1
    32    10    11    1
    33    10     7    1
    34     7     9    2
    35     7     8    2
