@<TRIPOS>MOLECULE
38370_out_ligand_01.pdbqt
 32 35 0 0 0
SMALL
GASTEIGER

@<TRIPOS>ATOM
      1  C         23.0930  -22.7050   -9.2850 C.2     1  UNL1       -0.0400
      2  C         22.7960  -21.6770   -8.3690 C.2     1  UNL1        0.0110
      3  C         21.6060  -21.6860   -7.6320 C.2     1  UNL1        0.0310
      4  C         20.7130  -22.7250   -7.8280 C.2     1  UNL1        0.0430
      5  C         20.9970  -23.7440   -8.7350 C.2     1  UNL1       -0.0290
      6  C         22.1740  -23.7500   -9.4670 C.2     1  UNL1        0.0180
      7  C         19.8810  -24.7340   -8.8120 C.2     1  UNL1        0.0610
      8  C         18.9340  -24.2340   -7.7130 C.2     1  UNL1        0.1370
      9  N         19.4660  -22.9500   -7.2180 N.am    1  UNL1       -0.3130
     10  C         18.8500  -22.1020   -6.3130 C.2     1  UNL1        0.2580
     11  O         19.2700  -21.0140   -5.9280 O.2     1  UNL1       -0.2670
     12  C         24.3670  -22.6670  -10.0930 C.3     1  UNL1        0.1620
     13  N         24.2220  -21.8030  -11.2460 N.am    1  UNL1       -0.3390
     14  C         24.8500  -22.1100  -12.4350 C.2     1  UNL1        0.3210
     15  N         24.4930  -21.2130  -13.4190 N.am    1  UNL1       -0.3080
     16  O         25.6270  -23.0490  -12.5470 O.2     1  UNL1       -0.2470
     17  H         23.9980  -20.4020  -13.0880 H       1  UNL1        0.1700
     18  H         23.3290  -21.3390  -11.3210 H       1  UNL1        0.1640
     19  C         24.8610  -21.2230  -14.7850 C.2     1  UNL1        0.0430
     20  C         24.4150  -22.2100  -15.6720 C.2     1  UNL1        0.0540
     21  C         24.7920  -22.1800  -17.0150 C.2     1  UNL1        0.0360
     22  C         25.6160  -21.1720  -17.4970 C.2     1  UNL1        0.0240
     23 CL         24.2280  -23.4020  -18.0920 Cl      1  UNL1       -0.0840
     24  C         26.0650  -20.1810  -16.6300 C.2     1  UNL1        0.0110
     25  C         25.6950  -20.1910  -15.2730 C.2     1  UNL1       -0.0350
     26  C         26.2070  -19.0840  -14.3910 C.3     1  UNL1        0.0500
     27  C         17.5480  -22.5410   -5.7710 C.2     1  UNL1        0.0320
     28  C         16.3850  -22.2650   -6.4940 C.2     1  UNL1        0.0170
     29  C         15.1500  -22.6760   -5.9920 C.2     1  UNL1        0.0010
     30  C         15.0820  -23.3430   -4.7680 C.2     1  UNL1        0.0000
     31  C         16.2450  -23.5940   -4.0360 C.2     1  UNL1        0.0010
     32  C         17.4830  -23.1900   -4.5340 C.2     1  UNL1        0.0170
@<TRIPOS>BOND
     1    23    21    1
     2    22    21    2
     3    22    24    1
     4    21    20    1
     5    24    25    2
     6    20    19    2
     7    25    19    1
     8    25    26    1
     9    19    15    1
    10    15    17    1
    11    15    14   am
    12    16    14    2
    13    14    13   am
    14    18    13    1
    15    13    12    1
    16    12     1    1
    17     6     1    2
    18     6     5    1
    19     1     2    1
    20     7     5    1
    21     7     8    2
    22     5     4    2
    23     2     3    2
    24     4     3    1
    25     4     9    1
    26     8     9    1
    27     9    10   am
    28    28    29    1
    29    28    27    2
    30    10    11    2
    31    10    27    1
    32    29    30    2
    33    27    32    1
    34    30    31    1
    35    32    31    2
