@<TRIPOS>MOLECULE
38379_out_ligand_01.pdbqt
 29 32 0 0 0
SMALL
GASTEIGER

@<TRIPOS>ATOM
      1  C         18.2390  -22.3540  -10.8200 C.ar    1  UNL1        0.1780
      2  N         18.1370  -21.2910  -11.5900 N.ar    1  UNL1       -0.1260
      3  N         19.4300  -20.8850  -11.8560 N.ar    1  UNL1       -0.1210
      4  C         20.2290  -21.7240  -11.2230 C.ar    1  UNL1        0.2020
      5  O         19.5350  -22.6820  -10.5300 O.2     1  UNL1       -0.2730
      6  C         17.1780  -23.1950  -10.2440 C.3     1  UNL1        0.1910
      7  C         16.9050  -22.7090   -8.8380 C.2     1  UNL1        0.2290
      8  N         18.0590  -22.5350   -8.0860 N.am    1  UNL1       -0.3270
      9  H         18.9430  -22.6950   -8.5540 H       1  UNL1        0.1690
     10  O         15.7520  -22.5260   -8.4590 O.2     1  UNL1       -0.2730
     11  C         18.1530  -22.1200   -6.7390 C.2     1  UNL1        0.0350
     12  C         19.2140  -21.3760   -6.2250 C.2     1  UNL1        0.0290
     13  C         19.2220  -21.0000   -4.8790 C.2     1  UNL1        0.0030
     14  C         18.1650  -21.3520   -4.0390 C.2     1  UNL1        0.0070
     15  C         17.0910  -22.1040   -4.5280 C.2     1  UNL1       -0.0530
     16  C         17.1040  -22.4880   -5.8810 C.2     1  UNL1        0.0370
     17  C         15.9320  -22.5220   -3.6340 C.3     1  UNL1        0.0100
     18  C         16.0750  -23.9690   -3.1530 C.3     1  UNL1        0.0150
     19  C         14.5890  -22.3030   -4.3370 C.3     1  UNL1        0.0150
     20  C         21.6850  -21.7740  -11.1570 C.2     1  UNL1        0.0200
     21  C         22.3690  -21.7300   -9.9350 C.2     1  UNL1        0.0180
     22  C         23.7710  -21.7760   -9.9000 C.2     1  UNL1        0.0330
     23  C         24.5270  -21.8640  -11.0590 C.2     1  UNL1        0.0660
     24  N         25.8680  -21.9020  -10.9680 N.2     1  UNL1       -0.2600
     25  C         23.8490  -21.9110  -12.2960 C.2     1  UNL1       -0.0060
     26  C         26.5780  -21.9890  -12.1140 C.2     1  UNL1        0.1170
     27  C         26.0090  -22.0410  -13.3730 C.2     1  UNL1        0.0200
     28  C         24.6220  -22.0010  -13.4640 C.2     1  UNL1        0.0150
     29  C         22.4390  -21.8650  -12.3370 C.2     1  UNL1        0.0290
@<TRIPOS>BOND
     1    28    27    2
     2    28    25    1
     3    27    26    1
     4    29    25    1
     5    29    20    2
     6    25    23    2
     7    26    24    2
     8     3     2   ar
     9     3     4   ar
    10     2     1   ar
    11     4    20    1
    12     4     5   ar
    13    20    21    1
    14    23    24    1
    15    23    22    1
    16     1     5   ar
    17     1     6    1
    18     6     7    1
    19    21    22    2
    20     7    10    2
    21     7     8   am
    22     9     8    1
    23     8    11    1
    24    11    12    2
    25    11    16    1
    26    12    13    1
    27    16    15    2
    28    13    14    2
    29    15    14    1
    30    15    17    1
    31    19    17    1
    32    17    18    1
