@<TRIPOS>MOLECULE
38392_out_ligand_01.pdbqt
 33 36 0 0 0
SMALL
GASTEIGER

@<TRIPOS>ATOM
      1  C         21.1020  -21.9880  -11.3710 C.2     1  UNL1        0.0340
      2  C         20.3190  -21.3190  -12.3190 C.2     1  UNL1        0.0170
      3  C         18.9900  -21.0190  -12.0300 C.2     1  UNL1        0.0030
      4  C         18.4440  -21.3900  -10.7990 C.2     1  UNL1        0.0290
      5  C         19.2170  -22.0610   -9.8420 C.2     1  UNL1        0.0360
      6  C         20.5460  -22.3680  -10.1390 C.2     1  UNL1        0.0460
      7  C         22.5170  -22.3460  -11.6520 C.2     1  UNL1        0.2520
      8  N         23.1640  -21.5690  -12.5810 N.am    1  UNL1       -0.3440
      9  H         22.7210  -20.7520  -12.9890 H       1  UNL1        0.1630
     10  O         23.0530  -23.2800  -11.0660 O.2     1  UNL1       -0.2680
     11  C         24.5600  -21.7880  -12.9530 C.3     1  UNL1        0.1730
     12  C         25.4870  -21.3580  -11.8220 C.3     1  UNL1        0.0420
     13  C         24.8280  -20.9560  -14.2290 C.2     1  UNL1        0.2420
     14  O         24.9130  -19.7240  -14.1490 O.2     1  UNL1       -0.2710
     15  N         25.0110  -21.6170  -15.4390 N.am    1  UNL1       -0.3500
     16  C         24.7720  -23.0450  -15.6640 C.3     1  UNL1        0.1260
     17  C         25.3600  -20.8110  -16.6110 C.3     1  UNL1        0.1260
     18  C         24.2310  -23.3140  -17.0650 C.3     1  UNL1        0.0200
     19  C         25.1770  -22.8080  -18.1530 C.3     1  UNL1        0.0030
     20  C         26.0440  -21.6360  -17.6930 C.3     1  UNL1        0.0200
     21  N         18.5790  -22.4020   -8.6320 N.am    1  UNL1       -0.3220
     22  C         17.3110  -22.9420   -8.4630 C.2     1  UNL1        0.2760
     23  O         16.5540  -23.2900   -9.3610 O.2     1  UNL1       -0.2660
     24  H         19.1360  -22.3110   -7.7910 H       1  UNL1        0.1690
     25  C         16.9510  -23.0950   -7.0410 C.ar    1  UNL1        0.1440
     26  N         15.9900  -23.9610   -6.7040 N.ar    1  UNL1       -0.2050
     27  S         15.8030  -23.9630   -5.0670 S.2     1  UNL1        0.0120
     28  C         17.0170  -22.7990   -4.7270 C.ar    1  UNL1        0.0360
     29  C         17.4360  -22.2870   -3.4880 C.2     1  UNL1        0.0210
     30  C         17.5780  -22.3850   -5.9380 C.ar    1  UNL1        0.0170
     31  C         18.4460  -21.3230   -3.4750 C.2     1  UNL1        0.0010
     32  C         19.0160  -20.8790   -4.6610 C.2     1  UNL1        0.0010
     33  C         18.5920  -21.3960   -5.8910 C.2     1  UNL1        0.0150
@<TRIPOS>BOND
     1    19    20    1
     2    19    18    1
     3    20    17    1
     4    18    16    1
     5    17    15    1
     6    16    15    1
     7    15    13   am
     8    13    14    2
     9    13    11    1
    10     9     8    1
    11    11     8    1
    12    11    12    1
    13     8     7   am
    14     2     3    1
    15     2     1    2
    16     3     4    2
    17     7     1    1
    18     7    10    2
    19     1     6    1
    20     4     5    1
    21     6     5    2
    22     5    21    1
    23    23    22    2
    24    21    22   am
    25    21    24    1
    26    22    25    1
    27    25    26   ar
    28    25    30   ar
    29    26    27   ar
    30    30    33    1
    31    30    28   ar
    32    33    32    2
    33    27    28   ar
    34    28    29    1
    35    32    31    1
    36    29    31    2
