@<TRIPOS>MOLECULE
38403_out_ligand_01.pdbqt
 32 34 0 0 0
SMALL
GASTEIGER

@<TRIPOS>ATOM
      1  C         21.5250  -21.9530  -10.6940 C.2     1  UNL1        0.0800
      2  C         21.1970  -21.2940  -11.8820 C.2     1  UNL1        0.0280
      3  C         19.8570  -21.0550  -12.1840 C.2     1  UNL1        0.0450
      4  C         18.8600  -21.4760  -11.3030 C.2     1  UNL1        0.1320
      5  F         17.5850  -21.2200  -11.6340 F       1  UNL1       -0.2050
      6  C         19.1730  -22.1440  -10.1150 C.2     1  UNL1        0.0720
      7  C         20.5240  -22.3920   -9.8190 C.2     1  UNL1        0.0450
      8  S         23.2300  -22.2850  -10.3170 S.O2    1  UNL1        0.2590
      9  O         23.2680  -23.4740   -9.4950 O.2     1  UNL1       -0.2010
     10  O         23.8530  -21.0510   -9.9010 O.2     1  UNL1       -0.2010
     11  N         23.8380  -22.7290  -11.8050 N.3     1  UNL1       -0.3100
     12  H         23.4800  -23.6010  -12.1870 H       1  UNL1        0.1720
     13  C         25.0000  -22.0610  -12.4060 C.3     1  UNL1        0.0970
     14  C         24.5080  -21.1330  -13.5220 C.3     1  UNL1        0.0260
     15  C         23.9740  -21.8930  -14.7320 C.3     1  UNL1        0.0020
     16  C         24.9940  -22.8940  -15.2600 C.3     1  UNL1        0.0050
     17  C         25.4710  -23.8720  -14.1730 C.3     1  UNL1       -0.0130
     18  C         26.0160  -23.0980  -12.9440 C.3     1  UNL1        0.0090
     19  C         26.5090  -24.8250  -14.7750 C.3     1  UNL1        0.0100
     20  C         26.5000  -24.0290  -11.8250 C.3     1  UNL1        0.0120
     21  C         18.1390  -22.5940   -9.1340 C.2     1  UNL1        0.2590
     22  O         17.1960  -23.2510   -9.5610 O.2     1  UNL1       -0.2670
     23  N         18.3360  -22.2310   -7.8130 N.am    1  UNL1       -0.3230
     24  H         19.1750  -21.6990   -7.6050 H       1  UNL1        0.1690
     25  C         17.5110  -22.5260   -6.7060 C.2     1  UNL1        0.0380
     26  C         17.9280  -23.2460   -5.5840 C.2     1  UNL1        0.0530
     27  C         17.0380  -23.4880   -4.5340 C.2     1  UNL1        0.0370
     28 CL         17.5650  -24.3760   -3.1560 Cl      1  UNL1       -0.0840
     29  C         15.7280  -23.0230   -4.5850 C.2     1  UNL1        0.0480
     30  C         15.3120  -22.3070   -5.7010 C.2     1  UNL1        0.0370
     31 CL         13.6960  -21.7210   -5.7840 Cl      1  UNL1       -0.0840
     32  C         16.1910  -22.0570   -6.7570 C.2     1  UNL1        0.0530
@<TRIPOS>BOND
     1    16    15    1
     2    16    17    1
     3    19    17    1
     4    15    14    1
     5    17    18    1
     6    14    13    1
     7    18    13    1
     8    18    20    1
     9    13    11    1
    10    12    11    1
    11     3     2    1
    12     3     4    2
    13     2     1    2
    14    11     8    1
    15     5     4    1
    16     4     6    1
    17     1     8    1
    18     1     7    1
    19     8    10    2
    20     8     9    2
    21     6     7    2
    22     6    21    1
    23    22    21    2
    24    21    23   am
    25    23    24    1
    26    23    25    1
    27    32    25    2
    28    32    30    1
    29    25    26    1
    30    31    30    1
    31    30    29    2
    32    26    27    2
    33    29    27    1
    34    27    28    1
