@<TRIPOS>MOLECULE
3840_out_ligand_01.pdbqt
 36 39 0 0 0
SMALL
GASTEIGER

@<TRIPOS>ATOM
      1  C         21.1710  -22.8650  -10.4980 C.2     1  UNL1        0.0340
      2  C         20.2150  -21.9810  -11.0050 C.2     1  UNL1        0.0310
      3  C         18.8880  -22.0390  -10.5620 C.2     1  UNL1        0.0270
      4  C         18.5200  -22.9800   -9.6010 C.2     1  UNL1        0.0800
      5  C         19.4570  -23.8840   -9.1010 C.2     1  UNL1        0.0270
      6  C         20.7790  -23.8200   -9.5480 C.2     1  UNL1        0.0310
      7  N         22.5260  -22.8660  -10.8840 N.am    1  UNL1       -0.3270
      8  C         23.5340  -22.0210  -10.4480 C.2     1  UNL1        0.2260
      9  O         23.4140  -21.1000   -9.6460 O.2     1  UNL1       -0.2730
     10  H         22.8040  -23.6110  -11.5130 H       1  UNL1        0.1690
     11  C         24.8780  -22.2880  -11.1160 C.3     1  UNL1        0.1410
     12  C         24.7950  -22.5040  -12.6100 C.2     1  UNL1       -0.0470
     13  C         24.1830  -21.5480  -13.4290 C.2     1  UNL1        0.0100
     14  C         24.1250  -21.7320  -14.8130 C.2     1  UNL1        0.0400
     15  C         24.6670  -22.8810  -15.3980 C.2     1  UNL1        0.1010
     16  C         25.2670  -23.8590  -14.5810 C.2     1  UNL1        0.1020
     17  C         25.3280  -23.6630  -13.1950 C.2     1  UNL1        0.0470
     18  O         24.6590  -23.1450  -16.7440 O.2     1  UNL1       -0.3530
     19  C         25.5760  -22.4290  -17.5610 C.3     1  UNL1        0.2100
     20  O         25.7830  -24.9560  -15.2280 O.2     1  UNL1       -0.3530
     21  C         27.0670  -25.4150  -14.8280 C.3     1  UNL1        0.2100
     22  S         16.8400  -23.0560   -9.0310 S.O2    1  UNL1        0.2630
     23  O         16.0840  -23.7870  -10.0270 O.2     1  UNL1       -0.2000
     24  O         16.4290  -21.7350   -8.6070 O.2     1  UNL1       -0.2000
     25  N         16.9540  -24.0830   -7.6930 N.pl3   1  UNL1       -0.2800
     26  H         16.6440  -25.0250   -7.9230 H       1  UNL1        0.1790
     27  C         16.5750  -23.5650   -6.4140 C.2     1  UNL1        0.0530
     28  C         15.3790  -24.0310   -5.8600 C.2     1  UNL1        0.0310
     29  C         14.9660  -23.5840   -4.6100 C.2     1  UNL1        0.0030
     30  C         15.7490  -22.6670   -3.9100 C.2     1  UNL1        0.0120
     31  C         16.9550  -22.1870   -4.4450 C.2     1  UNL1       -0.0240
     32  C         17.7320  -21.2640   -3.7240 C.2     1  UNL1        0.0120
     33  C         17.3930  -22.6400   -5.7150 C.2     1  UNL1        0.0010
     34  C         18.9360  -20.7850   -4.2380 C.2     1  UNL1        0.0010
     35  C         19.3830  -21.2240   -5.4790 C.2     1  UNL1        0.0010
     36  C         18.6220  -22.1400   -6.2090 C.2     1  UNL1        0.0140
@<TRIPOS>BOND
     1    19    18    1
     2    18    15    1
     3    15    14    2
     4    15    16    1
     5    20    21    1
     6    20    16    1
     7    14    13    1
     8    16    17    2
     9    13    12    2
    10    17    12    1
    11    12    11    1
    12    10     7    1
    13    11     8    1
    14     2     3    1
    15     2     1    2
    16     7     1    1
    17     7     8   am
    18     3     4    2
    19     1     6    1
    20     8     9    2
    21    23    22    2
    22     4     5    1
    23     4    22    1
    24     6     5    2
    25    22    24    2
    26    22    25    1
    27    26    25    1
    28    25    27    1
    29    27    28    2
    30    27    33    1
    31    36    33    1
    32    36    35    2
    33    28    29    1
    34    33    31    2
    35    35    34    1
    36    29    30    2
    37    31    30    1
    38    31    32    1
    39    34    32    2
