@<TRIPOS>MOLECULE
38414_out_ligand_01.pdbqt
 32 34 0 0 0
SMALL
GASTEIGER

@<TRIPOS>ATOM
      1  C         17.1380  -22.5930   -9.5330 C.2     1  UNL1        0.0800
      2  C         16.4270  -21.7220  -10.3640 C.2     1  UNL1        0.0280
      3  C         17.1220  -20.9500  -11.2930 C.2     1  UNL1        0.0450
      4  C         18.5110  -21.0540  -11.3860 C.2     1  UNL1        0.1320
      5  F         19.1360  -20.2830  -12.2920 F       1  UNL1       -0.2050
      6  C         19.2320  -21.9290  -10.5680 C.2     1  UNL1        0.0720
      7  C         18.5290  -22.7090   -9.6360 C.2     1  UNL1        0.0450
      8  S         16.2780  -23.5840   -8.3310 S.O2    1  UNL1        0.2590
      9  O         15.6340  -22.6850   -7.3990 O.2     1  UNL1       -0.2010
     10  O         15.5410  -24.5880   -9.0630 O.2     1  UNL1       -0.2010
     11  N         17.5220  -24.3590   -7.5280 N.3     1  UNL1       -0.3110
     12  H         18.4230  -24.2860   -8.0030 H       1  UNL1        0.1720
     13  C         17.5600  -24.2790   -6.0690 C.3     1  UNL1        0.1730
     14  C         18.1340  -22.9580   -5.6100 C.2     1  UNL1       -0.0060
     15  C         19.1200  -22.3250   -6.3840 C.2     1  UNL1        0.0110
     16  C         19.6580  -21.1030   -5.9840 C.2     1  UNL1        0.0010
     17  C         19.2130  -20.5010   -4.8110 C.2     1  UNL1        0.0030
     18  C         18.2200  -21.1110   -4.0390 C.2     1  UNL1        0.0370
     19  C         17.6680  -22.3340   -4.4340 C.2     1  UNL1        0.0760
     20  O         16.6780  -23.0010   -3.7570 O.2     1  UNL1       -0.3550
     21  C         15.3590  -22.4750   -3.8530 C.3     1  UNL1        0.2100
     22  C         20.7190  -22.0770  -10.6350 C.2     1  UNL1        0.2590
     23  O         21.3250  -22.2150   -9.5770 O.2     1  UNL1       -0.2670
     24  N         21.2920  -22.0360  -11.8920 N.am    1  UNL1       -0.3230
     25  H         20.6740  -21.8590  -12.6780 H       1  UNL1        0.1690
     26  C         22.6510  -22.2150  -12.2290 C.2     1  UNL1        0.0350
     27  C         23.5220  -23.0680  -11.5470 C.2     1  UNL1        0.0310
     28  C         24.8540  -23.2040  -11.9580 C.2     1  UNL1        0.0210
     29  C         25.3210  -22.4830  -13.0540 C.2     1  UNL1        0.0110
     30 BR         27.1190  -22.6690  -13.6120 Br      1  UNL1       -0.0510
     31  C         24.4680  -21.6260  -13.7430 C.2     1  UNL1        0.0210
     32  C         23.1370  -21.4950  -13.3310 C.2     1  UNL1        0.0310
@<TRIPOS>BOND
     1    31    32    1
     2    31    29    2
     3    30    29    1
     4    32    26    2
     5    29    28    1
     6    25    24    1
     7     5     4    1
     8    26    24    1
     9    26    27    1
    10    28    27    2
    11    24    22   am
    12     4     3    2
    13     4     6    1
    14     3     2    1
    15    22     6    1
    16    22    23    2
    17     6     7    2
    18     2     1    2
    19     7     1    1
    20     1     8    1
    21    10     8    2
    22     8    11    1
    23     8     9    2
    24    12    11    1
    25    11    13    1
    26    15    16    1
    27    15    14    2
    28    13    14    1
    29    16    17    2
    30    14    19    1
    31    17    18    1
    32    19    18    2
    33    19    20    1
    34    21    20    1
