@<TRIPOS>MOLECULE
3842_out_ligand_01.pdbqt
 40 44 0 0 0
SMALL
GASTEIGER

@<TRIPOS>ATOM
      1  N         21.1750  -22.3760  -10.8360 N.am    1  UNL1       -0.3230
      2  C         22.5190  -22.7040  -10.7970 C.2     1  UNL1        0.2560
      3  O         23.0400  -23.5700  -10.1010 O.2     1  UNL1       -0.2670
      4  H         20.8830  -21.7300  -11.5570 H       1  UNL1        0.1690
      5  C         20.1430  -22.8870  -10.0210 C.2     1  UNL1        0.0350
      6  C         20.3570  -23.7370   -8.9340 C.2     1  UNL1        0.0310
      7  C         19.2820  -24.1960   -8.1640 C.2     1  UNL1        0.0270
      8  C         17.9820  -23.8060   -8.4910 C.2     1  UNL1        0.0800
      9  C         17.7530  -22.9360   -9.5570 C.2     1  UNL1        0.0270
     10  C         18.8340  -22.4880  -10.3230 C.2     1  UNL1        0.0310
     11  S         16.6160  -24.3680   -7.4970 S.O2    1  UNL1        0.2630
     12  O         15.5350  -24.7150   -8.3990 O.2     1  UNL1       -0.2000
     13  O         17.1270  -25.3300   -6.5450 O.2     1  UNL1       -0.2000
     14  N         16.1140  -22.9710   -6.6930 N.pl3   1  UNL1       -0.2800
     15  H         15.6200  -22.3290   -7.3090 H       1  UNL1        0.1790
     16  C         16.9180  -22.4230   -5.6510 C.2     1  UNL1        0.0490
     17  C         16.5830  -22.6390   -4.3040 C.2     1  UNL1       -0.0350
     18  C         17.3720  -22.0380   -3.3120 C.2     1  UNL1        0.0090
     19  C         15.4130  -23.4880   -3.8940 C.3     1  UNL1        0.0500
     20  C         18.4770  -21.2520   -3.6510 C.2     1  UNL1        0.0070
     21  C         18.8270  -21.0630   -4.9890 C.2     1  UNL1       -0.0600
     22  C         19.9980  -20.2030   -5.3590 C.3     1  UNL1        0.0480
     23  C         18.0320  -21.6430   -5.9840 C.2     1  UNL1        0.0370
     24  C         23.3890  -21.9310  -11.7310 C.2     1  UNL1        0.0320
     25  C         24.7270  -21.6500  -11.4330 C.2     1  UNL1        0.0170
     26  C         25.5060  -20.9250  -12.3400 C.2     1  UNL1        0.0100
     27  C         24.9720  -20.4970  -13.5660 C.2     1  UNL1       -0.0300
     28  C         23.6330  -20.7890  -13.8580 C.2     1  UNL1        0.0100
     29  C         22.8490  -21.5070  -12.9500 C.2     1  UNL1        0.0170
     30  C         25.8050  -19.6880  -14.5450 C.3     1  UNL1        0.3110
     31  N         26.8770  -20.4670  -15.1880 N.3     1  UNL1        0.0970
     32  C         27.0680  -20.0920  -16.5970 C.3     1  UNL1        0.2770
     33  C         25.8750  -20.4140  -17.5090 C.3     1  UNL1        0.0690
     34  C         25.2990  -21.7830  -17.2490 C.2     1  UNL1       -0.0490
     35  C         24.3840  -22.3400  -18.1530 C.2     1  UNL1        0.0070
     36  C         25.6300  -22.4780  -16.0720 C.2     1  UNL1       -0.0240
     37  C         23.8200  -23.5900  -17.9030 C.2     1  UNL1        0.0010
     38  C         24.1590  -24.2880  -16.7480 C.2     1  UNL1        0.0010
     39  C         25.0610  -23.7380  -15.8380 C.2     1  UNL1        0.0090
     40  C         26.6480  -21.9230  -15.0960 C.3     1  UNL1        0.3110
@<TRIPOS>BOND
     1    35    37    1
     2    35    34    2
     3    37    38    2
     4    33    34    1
     5    33    32    1
     6    34    36    1
     7    38    39    1
     8    32    31    1
     9    36    39    2
    10    36    40    1
    11    31    40    1
    12    31    30    1
    13    30    27    1
    14    28    27    2
    15    28    29    1
    16    27    26    1
    17    29    24    2
    18    26    25    2
    19    24    25    1
    20    24     2    1
    21     4     1    1
    22     1     2   am
    23     1     5    1
    24     2     3    2
    25    10     5    2
    26    10     9    1
    27     5     6    1
    28     9     8    2
    29     6     7    2
    30     8     7    1
    31     8    11    1
    32    12    11    2
    33    11    14    1
    34    11    13    2
    35    15    14    1
    36    14    16    1
    37    23    16    2
    38    23    21    1
    39    16    17    1
    40    22    21    1
    41    21    20    2
    42    17    19    1
    43    17    18    2
    44    20    18    1
