@<TRIPOS>MOLECULE
38422_out_ligand_01.pdbqt
 38 42 0 0 0
SMALL
GASTEIGER

@<TRIPOS>ATOM
      1  C         22.2650  -23.6090   -9.8620 C.2     1  UNL1        0.0540
      2  C         20.9560  -23.2930   -9.8390 C.2     1  UNL1        0.1450
      3  O         20.4450  -22.3230  -10.6780 O.2     1  UNL1       -0.3030
      4  C         19.1140  -22.0230  -10.5960 C.2     1  UNL1        0.1030
      5  C         18.6730  -21.0150  -11.4600 C.2     1  UNL1        0.0390
      6  C         17.3360  -20.6300  -11.4590 C.2     1  UNL1        0.0030
      7  C         16.4450  -21.2580  -10.5960 C.2     1  UNL1        0.0020
      8  C         16.8920  -22.2680   -9.7350 C.2     1  UNL1        0.0330
      9  C         18.2360  -22.6640   -9.7180 C.2     1  UNL1        0.0710
     10  N         18.7370  -23.6850   -8.8600 N.am    1  UNL1       -0.3050
     11  C         20.0790  -24.0430   -8.8810 C.2     1  UNL1        0.2820
     12  O         20.5500  -24.9220   -8.1560 O.2     1  UNL1       -0.2650
     13  C         23.2790  -22.9890  -10.7280 C.2     1  UNL1       -0.0330
     14  C         22.9490  -22.7060  -12.0610 C.2     1  UNL1        0.0120
     15  C         23.8930  -22.1420  -12.9270 C.2     1  UNL1        0.0180
     16  C         25.1840  -21.8570  -12.4650 C.2     1  UNL1        0.0320
     17  C         25.5280  -22.1710  -11.1470 C.2     1  UNL1        0.0180
     18  C         24.5820  -22.7350  -10.2850 C.2     1  UNL1        0.0120
     19  C         26.2270  -21.2620  -13.3450 C.2     1  UNL1        0.2510
     20  N         26.1020  -21.5070  -14.6930 N.am    1  UNL1       -0.3530
     21  H         25.3120  -22.0230  -15.0500 H       1  UNL1        0.1630
     22  O         27.1210  -20.5790  -12.8570 O.2     1  UNL1       -0.2680
     23  C         27.0810  -21.0490  -15.6520 C.3     1  UNL1        0.1610
     24  C         26.6380  -19.7500  -16.2730 C.2     1  UNL1       -0.0410
     25  C         26.9000  -18.5360  -15.6220 C.2     1  UNL1        0.0090
     26  C         26.5080  -17.3230  -16.1920 C.2     1  UNL1        0.0070
     27  C         25.8570  -17.3000  -17.4320 C.2     1  UNL1       -0.0620
     28  C         25.4020  -16.0020  -18.0290 C.3     1  UNL1        0.0480
     29  C         25.5880  -18.5110  -18.0800 C.2     1  UNL1        0.0070
     30  C         25.9810  -19.7260  -17.5100 C.2     1  UNL1        0.0090
     31  C         17.8580  -24.3800   -7.9150 C.3     1  UNL1        0.1740
     32  C         17.5170  -23.5660   -6.6890 C.2     1  UNL1       -0.0010
     33  C         18.4790  -22.7700   -6.0480 C.2     1  UNL1        0.0120
     34  C         18.1500  -22.0370   -4.9040 C.2     1  UNL1        0.0010
     35  C         16.8600  -22.0960   -4.3790 C.2     1  UNL1        0.0030
     36  C         15.8990  -22.8940   -4.9960 C.2     1  UNL1        0.0430
     37  C         16.2350  -23.6220   -6.1350 C.2     1  UNL1        0.1240
     38  F         15.2950  -24.3900   -6.7040 F       1  UNL1       -0.2050
@<TRIPOS>BOND
     1    29    30    1
     2    29    27    2
     3    28    27    1
     4    30    24    2
     5    27    26    1
     6    24    23    1
     7    24    25    1
     8    26    25    2
     9    23    20    1
    10    21    20    1
    11    20    19   am
    12    19    22    2
    13    19    16    1
    14    15    16    2
    15    15    14    1
    16    16    17    1
    17    14    13    2
    18     5     6    1
    19     5     4    2
    20     6     7    2
    21    17    18    2
    22    13    18    1
    23    13     1    1
    24     3     4    1
    25     3     2    1
    26     4     9    1
    27     7     8    1
    28     1     2    2
    29     2    11    1
    30     8     9    2
    31     9    10    1
    32    11    10   am
    33    11    12    2
    34    10    31    1
    35    31    32    1
    36    38    37    1
    37    32    37    2
    38    32    33    1
    39    37    36    1
    40    33    34    2
    41    36    35    2
    42    34    35    1
