@<TRIPOS>MOLECULE
38432_out_ligand_01.pdbqt
 32 35 0 0 0
SMALL
GASTEIGER

@<TRIPOS>ATOM
      1  N         21.6920  -23.2660   -8.4240 N.am    1  UNL1       -0.3600
      2  C         20.3750  -23.6940   -8.5460 C.2     1  UNL1        0.2300
      3  O         20.0890  -24.8630   -8.7940 O.2     1  UNL1       -0.2720
      4  H         21.8620  -22.2760   -8.5520 H       1  UNL1        0.1620
      5  C         22.7750  -24.1680   -8.7720 C.3     1  UNL1        0.1270
      6  C         24.0850  -23.4320   -9.0700 C.3     1  UNL1        0.0580
      7  C         24.1060  -22.7870  -10.4390 C.2     1  UNL1       -0.0570
      8  C         23.0080  -22.9170  -11.3030 C.2     1  UNL1        0.0090
      9  C         23.0150  -22.3000  -12.5560 C.2     1  UNL1        0.0250
     10  C         24.1290  -21.5580  -12.9490 C.2     1  UNL1        0.0740
     11  C         25.2280  -21.4130  -12.0990 C.2     1  UNL1        0.0250
     12  C         25.2160  -22.0310  -10.8480 C.2     1  UNL1        0.0090
     13  S         24.1460  -20.7560  -14.5300 S.O2    1  UNL1        0.2390
     14  O         25.1020  -19.6730  -14.4840 O.2     1  UNL1       -0.2060
     15  O         24.1710  -21.7730  -15.5540 O.2     1  UNL1       -0.2060
     16  N         22.6300  -20.0240  -14.5540 N.3     1  UNL1       -0.2250
     17  H         22.6720  -19.0060  -14.5110 H       1  UNL1        0.1360
     18  H         22.1190  -20.3500  -15.3770 H       1  UNL1        0.1360
     19  C         19.3350  -22.5770   -8.3390 C.2     1  UNL1        0.1490
     20  C         18.1980  -23.0510   -7.4650 C.2     1  UNL1       -0.0070
     21  C         18.4060  -23.3490   -6.1090 C.2     1  UNL1        0.0110
     22  C         16.9220  -23.2170   -8.0080 C.2     1  UNL1        0.0830
     23  C         17.3530  -23.8100   -5.3160 C.2     1  UNL1        0.0010
     24  C         16.0870  -23.9810   -5.8700 C.2     1  UNL1        0.0030
     25  C         15.8720  -23.6860   -7.2150 C.2     1  UNL1        0.0380
     26  O         16.6140  -22.9410   -9.3180 O.2     1  UNL1       -0.3100
     27  C         17.5410  -22.2740  -10.0810 C.2     1  UNL1        0.0830
     28  C         17.0970  -21.8170  -11.3230 C.2     1  UNL1        0.0380
     29  C         18.8560  -22.0430   -9.6700 C.2     1  UNL1       -0.0070
     30  C         17.9590  -21.1100  -12.1600 C.2     1  UNL1        0.0030
     31  C         19.2690  -20.8620  -11.7560 C.2     1  UNL1        0.0010
     32  C         19.7170  -21.3250  -10.5180 C.3     1  UNL1        0.0110
@<TRIPOS>BOND
     1    15    13    2
     2    18    16    1
     3    16    13    1
     4    16    17    1
     5    13    14    2
     6    13    10    1
     7    10     9    2
     8    10    11    1
     9     9     8    1
    10    30    31    2
    11    30    28    1
    12    11    12    2
    13    31    32    1
    14    28    27    2
    15     8     7    2
    16    12     7    1
    17    32    29    1
    18     7     6    1
    19    27    29    1
    20    27    26    1
    21    29    19    2
    22    26    22    1
    23     6     5    1
    24     3     2    2
    25     5     1    1
    26     4     1    1
    27     2     1   am
    28     2    19    1
    29    19    20    1
    30    22    20    2
    31    22    25    1
    32    20    21    1
    33    25    24    2
    34    21    23    2
    35    24    23    1
