@<TRIPOS>MOLECULE
38443_out_ligand_01.pdbqt
 31 34 0 0 0
SMALL
GASTEIGER

@<TRIPOS>ATOM
      1  C         21.3290  -23.2490   -9.9290 C.2     1  UNL1        0.2580
      2  O         20.8910  -24.0190   -9.0820 O.2     1  UNL1       -0.2670
      3  N         20.6060  -22.3180  -10.6540 N.am    1  UNL1       -0.3130
      4  C         21.1610  -21.3090  -11.5710 C.2     1  UNL1        0.1370
      5  C         20.0170  -20.3750  -11.9820 C.2     1  UNL1        0.0610
      6  C         18.8340  -21.0350  -11.3540 C.2     1  UNL1       -0.0300
      7  C         17.5090  -20.6460  -11.4530 C.2     1  UNL1        0.0100
      8  C         16.5460  -21.3990  -10.7800 C.2     1  UNL1        0.0090
      9  C         16.9110  -22.5300  -10.0170 C.2     1  UNL1       -0.0380
     10  C         18.2640  -22.8950   -9.9200 C.2     1  UNL1        0.0390
     11  C         19.2110  -22.1390  -10.5900 C.2     1  UNL1        0.0440
     12  C         15.8430  -23.3850   -9.3780 C.3     1  UNL1        0.1610
     13  N         15.7240  -23.0580   -7.9730 N.am    1  UNL1       -0.3560
     14  C         15.8050  -24.0320   -7.0000 C.2     1  UNL1        0.2270
     15  O         16.2770  -25.1480   -7.2050 O.2     1  UNL1       -0.2730
     16  H         15.1510  -22.2560   -7.7450 H       1  UNL1        0.1620
     17  C         15.3130  -23.6160   -5.6230 C.3     1  UNL1        0.1820
     18  S         16.6200  -23.7080   -4.3460 S.3     1  UNL1       -0.1210
     19  C         17.8460  -22.5640   -4.9660 C.2     1  UNL1        0.0010
     20  C         18.1220  -21.4290   -4.1950 C.2     1  UNL1        0.0180
     21  C         19.0850  -20.5040   -4.6030 C.2     1  UNL1        0.0010
     22  C         19.7950  -20.7130   -5.7840 C.2     1  UNL1        0.0000
     23  C         19.5400  -21.8450   -6.5500 C.2     1  UNL1        0.0010
     24  C         18.5710  -22.7660   -6.1430 C.2     1  UNL1        0.0180
     25  C         22.7840  -23.2970  -10.1830 C.2     1  UNL1        0.0320
     26  C         23.6490  -23.6070   -9.1300 C.2     1  UNL1        0.0170
     27  C         25.0240  -23.6410   -9.3610 C.2     1  UNL1        0.0070
     28  C         25.5360  -23.3980  -10.6440 C.2     1  UNL1       -0.0620
     29  C         27.0180  -23.4160  -10.8820 C.3     1  UNL1        0.0480
     30  C         24.6540  -23.0890  -11.6920 C.2     1  UNL1        0.0070
     31  C         23.2770  -23.0510  -11.4670 C.2     1  UNL1        0.0170
@<TRIPOS>BOND
     1     5     4    2
     2     5     6    1
     3    30    31    1
     4    30    28    2
     5     4     3    1
     6    31    25    2
     7     7     6    2
     8     7     8    1
     9     6    11    1
    10    29    28    1
    11     8     9    2
    12     3    11    1
    13     3     1   am
    14    28    27    1
    15    11    10    2
    16    25     1    1
    17    25    26    1
    18     9    10    1
    19     9    12    1
    20     1     2    2
    21    12    13    1
    22    27    26    2
    23    13    16    1
    24    13    14   am
    25    15    14    2
    26    14    17    1
    27    23    24    1
    28    23    22    2
    29    24    19    2
    30    22    21    1
    31    17    18    1
    32    19    18    1
    33    19    20    1
    34    21    20    2
