@<TRIPOS>MOLECULE
38444_out_ligand_01.pdbqt
 31 34 0 0 0
SMALL
GASTEIGER

@<TRIPOS>ATOM
      1  C         23.0580  -22.8880   -9.1630 C.2     1  UNL1       -0.0400
      2  C         22.8060  -21.7810   -8.3290 C.2     1  UNL1        0.0110
      3  C         21.6050  -21.6670   -7.6220 C.2     1  UNL1        0.0310
      4  C         20.6620  -22.6720   -7.7510 C.2     1  UNL1        0.0430
      5  C         20.9060  -23.7760   -8.5680 C.2     1  UNL1       -0.0290
      6  C         22.0950  -23.9010   -9.2740 C.2     1  UNL1        0.0180
      7  C         19.7730  -24.7490   -8.5260 C.2     1  UNL1        0.0610
      8  C         18.7520  -24.0140   -7.6460 C.2     1  UNL1        0.1370
      9  N         19.3950  -22.7820   -7.1520 N.am    1  UNL1       -0.3130
     10  C         18.8640  -21.8950   -6.2290 C.2     1  UNL1        0.2580
     11  O         19.4230  -20.9110   -5.7540 O.2     1  UNL1       -0.2670
     12  C         24.3750  -23.0130   -9.8830 C.3     1  UNL1        0.1620
     13  N         24.1580  -23.2630  -11.2890 N.am    1  UNL1       -0.3390
     14  C         24.8020  -22.4770  -12.2210 C.2     1  UNL1        0.3210
     15  O         25.5010  -21.5240  -11.9070 O.2     1  UNL1       -0.2470
     16  N         24.5180  -22.9100  -13.4950 N.am    1  UNL1       -0.3080
     17  H         23.7380  -23.5490  -13.5750 H       1  UNL1        0.1700
     18  H         24.0370  -24.2310  -11.5480 H       1  UNL1        0.1640
     19  C         25.0270  -22.4180  -14.7180 C.2     1  UNL1        0.0530
     20  C         24.5650  -21.2410  -15.3130 C.2     1  UNL1        0.0310
     21  C         25.1060  -20.7920  -16.5240 C.2     1  UNL1        0.0020
     22  C         26.1190  -21.5130  -17.1520 C.2     1  UNL1        0.0020
     23  C         26.5990  -22.6840  -16.5700 C.2     1  UNL1        0.0210
     24  C         26.0570  -23.1310  -15.3600 C.2     1  UNL1        0.0370
     25 BR         26.7580  -24.7410  -14.6220 Br      1  UNL1       -0.0490
     26  C         17.4940  -22.1740   -5.7530 C.2     1  UNL1        0.0320
     27  C         16.4270  -22.1930   -6.6560 C.2     1  UNL1        0.0170
     28  C         15.1380  -22.4490   -6.1880 C.2     1  UNL1        0.0010
     29  C         14.9210  -22.6730   -4.8260 C.2     1  UNL1        0.0000
     30  C         15.9880  -22.6340   -3.9260 C.2     1  UNL1        0.0010
     31  C         17.2800  -22.3780   -4.3870 C.2     1  UNL1        0.0170
@<TRIPOS>BOND
     1    22    23    2
     2    22    21    1
     3    23    24    1
     4    21    20    2
     5    24    19    2
     6    24    25    1
     7    20    19    1
     8    19    16    1
     9    17    16    1
    10    16    14   am
    11    14    15    2
    12    14    13   am
    13    18    13    1
    14    13    12    1
    15    12     1    1
    16     6     1    2
    17     6     5    1
    18     1     2    1
    19     5     7    1
    20     5     4    2
    21     7     8    2
    22     2     3    2
    23     4     3    1
    24     4     9    1
    25     8     9    1
    26     9    10   am
    27    27    28    1
    28    27    26    2
    29    10    11    2
    30    10    26    1
    31    28    29    2
    32    26    31    1
    33    29    30    1
    34    31    30    2
