@<TRIPOS>MOLECULE
38454_out_ligand_01.pdbqt
 33 36 0 0 0
SMALL
GASTEIGER

@<TRIPOS>ATOM
      1  CA        19.3330  -21.9100  -10.9000 C.3     1  UNL1        0.1060
      2  C         18.7170  -22.8660  -10.1780 C.2     1  UNL1        0.0410
      3  C         19.5060  -23.8190   -9.2950 C.2     1  UNL1        0.1600
      4  N         20.9610  -23.6120   -9.4330 N.pl3   1  UNL1       -0.2410
      5  N         21.8720  -24.4250   -8.8580 N.2     1  UNL1       -0.1810
      6  C         23.0370  -23.8810   -9.2310 C.2     1  UNL1        0.1600
      7  C         22.8930  -22.7430  -10.0690 C.2     1  UNL1        0.0970
      8  C         21.5240  -22.6180  -10.1920 C.2     1  UNL1        0.1430
      9  N         20.7140  -21.7740  -10.8720 N.pl3   1  UNL1       -0.3350
     10  H         21.0970  -21.0370  -11.4760 H       1  UNL1        0.1680
     11  C         23.8820  -21.8780  -10.7010 C.2     1  UNL1        0.2610
     12  O         24.4750  -21.0250  -10.0470 O.2     1  UNL1       -0.2670
     13  N         24.0730  -22.1150  -12.0490 N.am    1  UNL1       -0.3200
     14  H         23.5460  -22.8620  -12.4840 H       1  UNL1        0.1690
     15  C         24.9490  -21.4440  -12.9320 C.2     1  UNL1        0.0730
     16  C         26.3390  -21.4210  -12.8110 C.2     1  UNL1        0.0330
     17  C         27.1160  -20.7220  -13.7440 C.2     1  UNL1        0.0020
     18  C         26.5130  -20.0420  -14.8030 C.2     1  UNL1        0.0030
     19  C         25.1270  -20.0580  -14.9340 C.2     1  UNL1        0.0440
     20  C         24.3630  -20.7540  -14.0020 C.2     1  UNL1        0.1430
     21  F         23.0260  -20.7630  -14.1360 F       1  UNL1       -0.2040
     22  C         18.5690  -20.9610  -11.7640 C.2     1  UNL1        0.1930
     23  O         17.3620  -20.7900  -11.7070 O.2     1  UNL1       -0.6450
     24  OXT       19.3290  -20.2810  -12.6400 O.3     1  UNL1       -0.7720
     25  HXT       19.4810  -20.9280  -13.3590 H       1  UNL1        0.1670
     26  C         19.0670  -23.6640   -7.8550 C.2     1  UNL1        0.0050
     27  C         18.9140  -22.4800   -7.2370 C.2     1  UNL1        0.0100
     28  C         18.4750  -22.3330   -5.8440 C.2     1  UNL1       -0.0360
     29  C         18.8550  -21.1880   -5.1320 C.2     1  UNL1        0.0110
     30  C         18.4820  -21.0250   -3.7950 C.2     1  UNL1        0.0010
     31  C         17.7360  -22.0120   -3.1530 C.2     1  UNL1        0.0000
     32  C         17.3670  -23.1630   -3.8470 C.2     1  UNL1        0.0010
     33  C         17.7380  -23.3240   -5.1850 C.2     1  UNL1        0.0110
@<TRIPOS>BOND
     1    19    18    2
     2    19    20    1
     3    18    17    1
     4    21    20    1
     5    20    15    2
     6    17    16    2
     7    25    24    1
     8    15    16    1
     9    15    13    1
    10    24    22    1
    11    14    13    1
    12    13    11   am
    13    22    23    2
    14    22     1    1
    15    10     9    1
    16     1     9    1
    17     1     2    1
    18     9     8    1
    19    11     7    1
    20    11    12    2
    21     8     7    2
    22     8     4    1
    23     2     3    2
    24     7     6    1
    25     4     3    1
    26     4     5    1
    27     3    26    1
    28     6     5    2
    29    26    27    2
    30    27    28    1
    31    28    33    2
    32    28    29    1
    33    33    32    1
    34    29    30    2
    35    32    31    2
    36    30    31    1
