@<TRIPOS>MOLECULE
38462_out_ligand_01.pdbqt
 33 36 0 0 0
SMALL
GASTEIGER

@<TRIPOS>ATOM
      1  C         18.8120  -22.4330  -10.2120 C.2     1  UNL1        0.0320
      2  C         19.8620  -23.2390   -9.7590 C.2     1  UNL1        0.0190
      3  C         21.1600  -23.0610  -10.2600 C.2     1  UNL1        0.0300
      4  C         21.4290  -22.0690  -11.2050 C.2     1  UNL1        0.0360
      5  C         20.3780  -21.2580  -11.6500 C.2     1  UNL1        0.0300
      6  C         19.0820  -21.4360  -11.1570 C.2     1  UNL1        0.0190
      7  N         22.7020  -21.8270  -11.7550 N.am    1  UNL1       -0.3090
      8  C         23.8550  -21.4180  -11.1080 C.2     1  UNL1        0.3270
      9  O         23.9170  -21.1070   -9.9220 O.2     1  UNL1       -0.2460
     10  N         24.9690  -21.3120  -11.9740 N.am    1  UNL1       -0.2990
     11  C         26.1650  -20.6930  -11.3940 C.3     1  UNL1        0.1340
     12  C         25.1740  -22.2090  -13.0660 C.2     1  UNL1        0.0450
     13  C         27.1200  -20.0170  -12.3730 C.3     1  UNL1        0.0210
     14  C         26.3600  -19.3610  -13.5140 C.3     1  UNL1        0.0060
     15  C         26.0660  -20.3470  -14.6440 C.3     1  UNL1        0.0410
     16  C         25.7000  -21.7740  -14.2960 C.2     1  UNL1       -0.0310
     17  C         25.8390  -22.7170  -15.3360 C.2     1  UNL1        0.0090
     18  C         25.4910  -24.0560  -15.1630 C.2     1  UNL1        0.0010
     19  C         24.9900  -24.4830  -13.9440 C.2     1  UNL1        0.0020
     20  C         24.8320  -23.5660  -12.9050 C.2     1  UNL1        0.0300
     21  H         22.7800  -21.8880  -12.7610 H       1  UNL1        0.1700
     22  C         17.4140  -22.5710   -9.7100 C.2     1  UNL1        0.2510
     23  O         16.5000  -21.9820  -10.2790 O.2     1  UNL1       -0.2680
     24  N         17.2200  -23.3960   -8.6230 N.am    1  UNL1       -0.3530
     25  H         17.9610  -24.0120   -8.3240 H       1  UNL1        0.1630
     26  C         15.8990  -23.6740   -8.1060 C.3     1  UNL1        0.1640
     27  C         15.8080  -23.3430   -6.6430 C.2     1  UNL1       -0.0020
     28  C         14.8310  -22.4560   -6.1680 C.2     1  UNL1        0.0120
     29  C         14.7450  -22.1660   -4.8030 C.2     1  UNL1        0.0010
     30  C         15.6310  -22.7560   -3.9020 C.2     1  UNL1        0.0030
     31  C         16.6000  -23.6450   -4.3640 C.2     1  UNL1        0.0430
     32  C         16.6810  -23.9310   -5.7230 C.2     1  UNL1        0.1240
     33  F         17.6080  -24.8030   -6.1430 F       1  UNL1       -0.2050
@<TRIPOS>BOND
     1    17    18    2
     2    17    16    1
     3    18    19    1
     4    15    16    1
     5    15    14    1
     6    16    12    2
     7    19    20    2
     8    14    13    1
     9    12    20    1
    10    12    10    1
    11    21     7    1
    12    13    11    1
    13    10    11    1
    14    10     8   am
    15     7     4    1
    16     7     8   am
    17     5     4    2
    18     5     6    1
    19     4     3    1
    20     6     1    2
    21     8     9    2
    22    23    22    2
    23     3     2    2
    24     1     2    1
    25     1    22    1
    26    22    24   am
    27    24    25    1
    28    24    26    1
    29    26    27    1
    30    27    28    2
    31    27    32    1
    32    28    29    1
    33    33    32    1
    34    32    31    2
    35    29    30    2
    36    31    30    1
