@<TRIPOS>MOLECULE
38478_out_ligand_01.pdbqt
 33 36 0 0 0
SMALL
GASTEIGER

@<TRIPOS>ATOM
      1  C         18.3820  -22.7160   -9.7100 C.2     1  UNL1        0.0320
      2  C         19.3570  -23.4890   -9.0740 C.2     1  UNL1        0.0190
      3  C         20.6830  -23.4710   -9.5240 C.2     1  UNL1        0.0300
      4  C         21.0470  -22.6920  -10.6230 C.2     1  UNL1        0.0360
      5  C         20.0630  -21.9280  -11.2670 C.2     1  UNL1        0.0300
      6  C         18.7370  -21.9400  -10.8190 C.2     1  UNL1        0.0190
      7  N         22.3540  -22.6110  -11.1340 N.am    1  UNL1       -0.3090
      8  C         23.4150  -21.8490  -10.6710 C.2     1  UNL1        0.3270
      9  O         23.3980  -21.1720   -9.6460 O.2     1  UNL1       -0.2460
     10  N         24.5800  -21.9880  -11.4640 N.am    1  UNL1       -0.2990
     11  C         25.7960  -21.3850  -10.9070 C.3     1  UNL1        0.1340
     12  C         24.5190  -22.1230  -12.8860 C.2     1  UNL1        0.0450
     13  C         27.1210  -21.9750  -11.3770 C.3     1  UNL1        0.0210
     14  C         27.0080  -23.4770  -11.5850 C.3     1  UNL1        0.0060
     15  C         26.4820  -23.8240  -12.9760 C.3     1  UNL1        0.0410
     16  C         25.4070  -22.9530  -13.5930 C.2     1  UNL1       -0.0310
     17  C         25.2590  -23.0560  -14.9930 C.2     1  UNL1        0.0090
     18  C         24.2780  -22.3420  -15.6800 C.2     1  UNL1        0.0010
     19  C         23.4160  -21.5110  -14.9790 C.2     1  UNL1        0.0020
     20  C         23.5360  -21.4040  -13.5950 C.2     1  UNL1        0.0300
     21  H         22.5900  -23.2420  -11.8870 H       1  UNL1        0.1700
     22  C         16.9870  -22.7610   -9.1920 C.2     1  UNL1        0.2510
     23  O         16.0590  -22.3440   -9.8740 O.2     1  UNL1       -0.2680
     24  N         16.8200  -23.3340   -7.9470 N.am    1  UNL1       -0.3570
     25  H         17.5740  -23.8830   -7.5590 H       1  UNL1        0.1620
     26  C         15.4960  -23.5720   -7.4040 C.3     1  UNL1        0.1270
     27  C         15.1790  -22.7200   -6.1680 C.3     1  UNL1        0.0530
     28  C         16.3560  -22.5550   -5.2260 C.2     1  UNL1       -0.0820
     29  C         17.3330  -21.6610   -5.4680 C.2     1  UNL1       -0.0240
     30  C         18.4880  -21.4160   -4.5410 C.3     1  UNL1        0.0270
     31  C         18.2900  -22.0250   -3.1530 C.3     1  UNL1        0.0040
     32  C         17.6960  -23.4250   -3.2480 C.3     1  UNL1        0.0050
     33  C         16.3510  -23.4080   -3.9790 C.3     1  UNL1        0.0340
@<TRIPOS>BOND
     1    18    17    1
     2    18    19    2
     3    17    16    2
     4    19    20    1
     5    20    12    2
     6    16    15    1
     7    16    12    1
     8    15    14    1
     9    12    10    1
    10    21     7    1
    11    14    13    1
    12    10    11    1
    13    10     8   am
    14    13    11    1
    15     5     6    1
    16     5     4    2
    17     7     8   am
    18     7     4    1
    19     6     1    2
    20     8     9    2
    21     4     3    1
    22    23    22    2
    23     1    22    1
    24     1     2    1
    25     3     2    2
    26    22    24   am
    27    24    25    1
    28    24    26    1
    29    26    27    1
    30    27    28    1
    31    29    28    2
    32    29    30    1
    33    28    33    1
    34    30    31    1
    35    33    32    1
    36    32    31    1
