@<TRIPOS>MOLECULE
38475_out_ligand_01.pdbqt
 30 33 0 0 0
SMALL
GASTEIGER

@<TRIPOS>ATOM
      1  C         18.6290  -23.4340   -8.0210 C.2     1  UNL1        0.2590
      2  O         19.6030  -24.1060   -7.6990 O.2     1  UNL1       -0.2670
      3  N         18.5080  -22.6480   -9.1540 N.am    1  UNL1       -0.3130
      4  C         17.2940  -21.9320   -9.5930 C.2     1  UNL1        0.1370
      5  C         17.5890  -21.3140  -10.9650 C.2     1  UNL1        0.0610
      6  C         19.0400  -21.6210  -11.1370 C.2     1  UNL1       -0.0300
      7  C         19.8570  -21.2380  -12.1870 C.2     1  UNL1        0.0100
      8  C         21.1920  -21.6490  -12.1720 C.2     1  UNL1        0.0090
      9  C         21.6990  -22.4310  -11.1160 C.2     1  UNL1       -0.0380
     10  C         20.8490  -22.8150  -10.0660 C.2     1  UNL1        0.0390
     11  C         19.5270  -22.4020  -10.0900 C.2     1  UNL1        0.0440
     12  C         23.1380  -22.8810  -11.1300 C.3     1  UNL1        0.1610
     13  N         23.8710  -22.2130  -12.1840 N.am    1  UNL1       -0.3530
     14  C         24.8270  -21.2650  -11.9010 C.2     1  UNL1        0.2510
     15  O         25.1870  -20.9900  -10.7620 O.2     1  UNL1       -0.2680
     16  H         23.4520  -22.2430  -13.1010 H       1  UNL1        0.1630
     17  C         25.4190  -20.5350  -13.0580 C.2     1  UNL1        0.0320
     18  C         24.9460  -20.8450  -14.3410 C.2     1  UNL1        0.0180
     19  C         25.4540  -20.1870  -15.4620 C.2     1  UNL1        0.0200
     20  C         26.4340  -19.2130  -15.3040 C.2     1  UNL1        0.0110
     21 BR         27.1200  -18.3160  -16.8190 Br      1  UNL1       -0.0510
     22  C         26.9050  -18.8850  -14.0350 C.2     1  UNL1        0.0200
     23  C         26.3950  -19.5420  -12.9090 C.2     1  UNL1        0.0180
     24  C         17.4620  -23.4570   -7.1100 C.2     1  UNL1        0.0380
     25  C         16.4300  -24.3600   -7.3920 C.2     1  UNL1        0.0170
     26  C         15.3080  -24.4080   -6.5670 C.2     1  UNL1        0.0010
     27  C         15.2120  -23.5470   -5.4750 C.2     1  UNL1        0.0010
     28  C         16.2370  -22.6360   -5.2030 C.2     1  UNL1        0.0070
     29  C         17.3790  -22.5790   -6.0150 C.2     1  UNL1       -0.0460
     30  C         18.4600  -21.5780   -5.7260 C.3     1  UNL1        0.0490
@<TRIPOS>BOND
     1    21    20    1
     2    19    20    2
     3    19    18    1
     4    20    22    1
     5    18    17    2
     6    22    23    2
     7    16    13    1
     8    17    23    1
     9    17    14    1
    10     7     8    1
    11     7     6    2
    12    13    14   am
    13    13    12    1
    14     8     9    2
    15    14    15    2
    16     6     5    1
    17     6    11    1
    18    12     9    1
    19     9    10    1
    20     5     4    2
    21    11    10    2
    22    11     3    1
    23     4     3    1
    24     3     1   am
    25     1     2    2
    26     1    24    1
    27    25    24    2
    28    25    26    1
    29    24    29    1
    30    26    27    2
    31    29    30    1
    32    29    28    2
    33    27    28    1
