@<TRIPOS>MOLECULE
38488_out_ligand_01.pdbqt
 35 38 0 0 0
SMALL
GASTEIGER

@<TRIPOS>ATOM
      1  C         22.6700  -22.4010   -9.9110 C.2     1  UNL1        0.0170
      2  C         21.6370  -23.2550  -10.3310 C.2     1  UNL1        0.0170
      3  C         20.5600  -23.5430   -9.4870 C.2     1  UNL1        0.0180
      4  C         20.5160  -22.9990   -8.1990 C.2     1  UNL1        0.0320
      5  C         21.5410  -22.1460   -7.7680 C.2     1  UNL1        0.0180
      6  C         22.6100  -21.8510   -8.6220 C.2     1  UNL1        0.0170
      7  C         23.7680  -22.0990  -10.8230 C.ar    1  UNL1        0.1800
      8  N         24.0460  -22.6310  -11.9960 N.ar    1  UNL1       -0.2250
      9  C         25.1240  -21.9070  -12.4550 C.ar    1  UNL1        0.0810
     10  C         25.4840  -20.9710  -11.5060 C.ar    1  UNL1        0.0770
     11  O         24.6180  -21.0870  -10.4550 O.2     1  UNL1       -0.2940
     12  C         26.5130  -19.9210  -11.4100 C.3     1  UNL1        0.0790
     13  C         25.7080  -22.1860  -13.7840 C.3     1  UNL1        0.2070
     14  S         24.5960  -21.7990  -15.1200 S.O2    1  UNL1        0.1810
     15  O         24.5800  -22.9150  -16.0500 O.2     1  UNL1       -0.2220
     16  O         23.3510  -21.3310  -14.5350 O.2     1  UNL1       -0.2220
     17  C         25.3370  -20.4070  -15.9390 C.2     1  UNL1        0.0590
     18  C         25.2790  -20.3040  -17.3310 C.2     1  UNL1        0.0240
     19  C         25.8720  -19.2100  -17.9620 C.2     1  UNL1        0.0080
     20  C         26.5150  -18.2170  -17.2100 C.2     1  UNL1       -0.0620
     21  C         27.1210  -17.0270  -17.8950 C.3     1  UNL1        0.0480
     22  C         26.5310  -18.3150  -15.8130 C.2     1  UNL1        0.0080
     23  C         25.9440  -19.4090  -15.1740 C.2     1  UNL1        0.0240
     24  C         19.3530  -23.3120   -7.3260 C.2     1  UNL1        0.2560
     25  O         18.8740  -24.4380   -7.3880 O.2     1  UNL1       -0.2670
     26  N         18.9710  -22.2780   -6.4910 N.am    1  UNL1       -0.3220
     27  H         19.6020  -21.4930   -6.4450 H       1  UNL1        0.1690
     28  C         17.8490  -22.2320   -5.6270 C.2     1  UNL1        0.0410
     29  C         17.9960  -22.2900   -4.2380 C.2     1  UNL1        0.0300
     30  C         16.8840  -22.2940   -3.4000 C.2     1  UNL1        0.0030
     31  C         15.6050  -22.2560   -3.9400 C.2     1  UNL1        0.0070
     32  C         15.4170  -22.2060   -5.3280 C.2     1  UNL1       -0.0540
     33  C         14.0030  -22.1660   -5.8470 C.3     1  UNL1        0.0490
     34  C         16.5450  -22.1640   -6.1860 C.2     1  UNL1       -0.0290
     35  C         16.3590  -22.0590   -7.6810 C.3     1  UNL1        0.0510
@<TRIPOS>BOND
     1    19    18    1
     2    19    20    2
     3    21    20    1
     4    18    17    2
     5    20    22    1
     6    15    14    2
     7    17    23    1
     8    17    14    1
     9    22    23    2
    10    14    16    2
    11    14    13    1
    12    13     9    1
    13     9     8   ar
    14     9    10   ar
    15     8     7   ar
    16    10    12    1
    17    10    11   ar
    18     7    11   ar
    19     7     1    1
    20     2     1    2
    21     2     3    1
    22     1     6    1
    23     3     4    2
    24     6     5    2
    25     4     5    1
    26     4    24    1
    27    35    34    1
    28    25    24    2
    29    24    26   am
    30    26    27    1
    31    26    28    1
    32    34    28    2
    33    34    32    1
    34    33    32    1
    35    28    29    1
    36    32    31    2
    37    29    30    2
    38    31    30    1
