@<TRIPOS>MOLECULE
38510_out_ligand_01.pdbqt
 37 41 0 0 0
SMALL
GASTEIGER

@<TRIPOS>ATOM
      1  O         20.6430  -20.7110  -11.5600 O.2     1  UNL1       -0.2670
      2  C         21.3100  -21.7350  -11.6420 C.2     1  UNL1        0.2560
      3  N         21.0980  -22.9190  -10.9600 N.am    1  UNL1       -0.3230
      4  H         21.8230  -23.6230  -11.0300 H       1  UNL1        0.1690
      5  C         20.0300  -23.2250  -10.0910 C.2     1  UNL1        0.0350
      6  C         18.7100  -22.8230  -10.3080 C.2     1  UNL1        0.0310
      7  C         17.7020  -23.1660   -9.4000 C.2     1  UNL1        0.0270
      8  C         18.0200  -23.9120   -8.2650 C.2     1  UNL1        0.0800
      9  C         19.3300  -24.3370   -8.0410 C.2     1  UNL1        0.0270
     10  C         20.3300  -23.9900   -8.9550 C.2     1  UNL1        0.0310
     11  S         16.7370  -24.3390   -7.1180 S.O2    1  UNL1        0.2630
     12  O         17.3010  -25.1540   -6.0640 O.2     1  UNL1       -0.2000
     13  O         15.6030  -24.7970   -7.8920 O.2     1  UNL1       -0.2000
     14  N         16.2910  -22.8360   -6.4800 N.pl3   1  UNL1       -0.2790
     15  H         15.2830  -22.8020   -6.3240 H       1  UNL1        0.1790
     16  C         17.1350  -22.2660   -5.4850 C.2     1  UNL1        0.0600
     17  C         18.2560  -21.5320   -5.8620 C.2     1  UNL1        0.0330
     18  C         19.0350  -20.9260   -4.8780 C.2     1  UNL1        0.0210
     19  C         18.6560  -21.0720   -3.5520 C.2     1  UNL1        0.1160
     20  N         17.5690  -21.7700   -3.1530 N.2     1  UNL1       -0.2710
     21  C         16.8300  -22.3470   -4.1310 C.2     1  UNL1        0.1460
     22  C         22.5120  -21.7260  -12.5240 C.2     1  UNL1        0.0320
     23  C         22.5550  -20.9750  -13.7050 C.2     1  UNL1        0.0170
     24  C         23.7040  -20.9970  -14.5000 C.2     1  UNL1        0.0090
     25  C         24.8220  -21.7590  -14.1270 C.2     1  UNL1       -0.0450
     26  C         24.7770  -22.4910  -12.9320 C.2     1  UNL1        0.0090
     27  C         23.6320  -22.4710  -12.1340 C.2     1  UNL1        0.0170
     28  C         26.0670  -21.7600  -14.9910 C.3     1  UNL1        0.1340
     29  N         26.8300  -20.5260  -14.8080 N.pl3   1  UNL1       -0.2780
     30  C         26.7460  -19.8460  -13.4960 C.3     1  UNL1        0.1010
     31  C         27.1190  -18.3720  -13.7130 C.3     1  UNL1        0.0550
     32  C         26.7430  -18.2150  -15.1460 C.2     1  UNL1       -0.0360
     33  C         26.5920  -17.0440  -15.8730 C.2     1  UNL1        0.0090
     34  C         26.5900  -19.4800  -15.7270 C.2     1  UNL1        0.0170
     35  C         26.2680  -17.1480  -17.2250 C.2     1  UNL1        0.0010
     36  C         26.1180  -18.4070  -17.8240 C.2     1  UNL1        0.0020
     37  C         26.2870  -19.5790  -17.0760 C.2     1  UNL1        0.0240
@<TRIPOS>BOND
     1    36    35    2
     2    36    37    1
     3    35    33    1
     4    37    34    2
     5    33    32    2
     6    34    32    1
     7    34    29    1
     8    32    31    1
     9    28    29    1
    10    28    25    1
    11    29    30    1
    12    24    25    2
    13    24    23    1
    14    25    26    1
    15    31    30    1
    16    23    22    2
    17    26    27    2
    18    22    27    1
    19    22     2    1
    20     2     1    2
    21     2     3   am
    22     4     3    1
    23     3     5    1
    24     6     5    2
    25     6     7    1
    26     5    10    1
    27     7     8    2
    28    10     9    2
    29     8     9    1
    30     8    11    1
    31    13    11    2
    32    11    14    1
    33    11    12    2
    34    14    15    1
    35    14    16    1
    36    17    16    2
    37    17    18    1
    38    16    21    1
    39    18    19    2
    40    21    20    2
    41    19    20    1
