@<TRIPOS>MOLECULE
38516_out_ligand_01.pdbqt
 34 38 0 0 0
SMALL
GASTEIGER

@<TRIPOS>ATOM
      1  C         22.3490  -22.4130  -11.7110 C.2     1  UNL1        0.0350
      2  C         23.4620  -23.2580  -11.7300 C.2     1  UNL1        0.0310
      3  C         24.4130  -23.1600  -12.7510 C.2     1  UNL1        0.0270
      4  C         24.2420  -22.2180  -13.7670 C.2     1  UNL1        0.0800
      5  C         23.1460  -21.3560  -13.7540 C.2     1  UNL1        0.0270
      6  C         22.2040  -21.4580  -12.7280 C.2     1  UNL1        0.0310
      7  N         21.3510  -22.4480  -10.7210 N.am    1  UNL1       -0.3210
      8  C         21.4780  -22.2250   -9.3610 C.2     1  UNL1        0.2800
      9  O         22.5240  -21.9660   -8.7760 O.2     1  UNL1       -0.2650
     10  H         20.4070  -22.6650  -11.0230 H       1  UNL1        0.1690
     11  C         20.2130  -22.3390   -8.6580 C.2     1  UNL1        0.1440
     12  C         19.9080  -22.2350   -7.3150 C.2     1  UNL1        0.0580
     13  C         18.5050  -22.4350   -7.1840 C.2     1  UNL1        0.0120
     14  C         18.0420  -22.6510   -8.4770 C.2     1  UNL1        0.0870
     15  C         17.5640  -22.4580   -6.1190 C.2     1  UNL1       -0.0130
     16  C         16.7120  -22.8920   -8.8070 C.2     1  UNL1        0.0390
     17  O         19.0690  -22.5950   -9.3690 O.2     1  UNL1       -0.3040
     18  C         15.7960  -22.9130   -7.7490 C.2     1  UNL1        0.0150
     19  C         16.1970  -22.7020   -6.4190 C.2     1  UNL1       -0.0250
     20  C         15.2720  -22.7250   -5.3650 C.2     1  UNL1        0.0120
     21  C         15.6830  -22.5130   -4.0460 C.2     1  UNL1        0.0010
     22  C         17.0250  -22.2740   -3.7570 C.2     1  UNL1        0.0010
     23  C         17.9670  -22.2470   -4.7850 C.2     1  UNL1        0.0130
     24  S         25.4500  -22.0850  -15.0600 S.O2    1  UNL1        0.2630
     25  O         25.5870  -23.3920  -15.6670 O.2     1  UNL1       -0.2000
     26  O         25.1580  -20.9180  -15.8630 O.2     1  UNL1       -0.2000
     27  N         26.8800  -21.8250  -14.1950 N.pl3   1  UNL1       -0.2790
     28  H         27.6920  -22.0150  -14.7830 H       1  UNL1        0.1790
     29  C         26.9370  -20.6810  -13.3520 C.2     1  UNL1        0.0600
     30  C         26.8240  -20.8390  -11.9740 C.2     1  UNL1        0.0330
     31  C         26.8600  -19.7120  -11.1550 C.2     1  UNL1        0.0210
     32  C         27.0110  -18.4690  -11.7490 C.2     1  UNL1        0.1160
     33  N         27.1200  -18.2810  -13.0820 N.2     1  UNL1       -0.2710
     34  C         27.0690  -19.3910  -13.8570 C.2     1  UNL1        0.1460
@<TRIPOS>BOND
     1    26    24    2
     2    25    24    2
     3    24    27    1
     4    24     4    1
     5    28    27    1
     6    27    29    1
     7    34    29    2
     8    34    33    1
     9     4     5    2
    10     4     3    1
    11     5     6    1
    12    29    30    1
    13    33    32    2
    14     3     2    2
    15     6     1    2
    16    30    31    2
    17    32    31    1
    18     2     1    1
    19     1     7    1
    20    10     7    1
    21     7     8   am
    22    17    11    1
    23    17    14    1
    24     8     9    2
    25     8    11    1
    26    16    14    1
    27    16    18    2
    28    11    12    2
    29    14    13    2
    30    18    19    1
    31    12    13    1
    32    13    15    1
    33    19    15    2
    34    19    20    1
    35    15    23    1
    36    20    21    2
    37    23    22    2
    38    21    22    1
