@<TRIPOS>MOLECULE
38523_out_ligand_01.pdbqt
 36 39 0 0 0
SMALL
GASTEIGER

@<TRIPOS>ATOM
      1  C         18.1160  -24.9360   -6.9000 C.3     1  UNL1        0.0500
      2  C         18.8420  -24.1890   -7.9840 C.2     1  UNL1       -0.0390
      3  C         20.2250  -24.4220   -8.1290 C.2     1  UNL1        0.0090
      4  C         20.9710  -23.7800   -9.1200 C.2     1  UNL1        0.0170
      5  C         20.3500  -22.8690   -9.9760 C.2     1  UNL1        0.0330
      6  C         18.9830  -22.6170   -9.8410 C.2     1  UNL1        0.0420
      7  C         18.2230  -23.2910   -8.8700 C.2     1  UNL1        0.0860
      8  C         21.0830  -22.2130  -11.0940 C.2     1  UNL1        0.2560
      9  O         20.5430  -21.2680  -11.6580 O.2     1  UNL1       -0.2670
     10  N         22.3360  -22.7340  -11.3620 N.am    1  UNL1       -0.3230
     11  H         22.7190  -23.3830  -10.6880 H       1  UNL1        0.1690
     12  C         23.1840  -22.3810  -12.4330 C.2     1  UNL1        0.0350
     13  C         24.4640  -22.8960  -12.6110 C.2     1  UNL1        0.0320
     14  C         25.2620  -22.4780  -13.6880 C.2     1  UNL1        0.0320
     15  C         24.8040  -21.5430  -14.6210 C.2     1  UNL1        0.0370
     16  C         23.5120  -21.0320  -14.4310 C.2     1  UNL1        0.0320
     17  C         22.7160  -21.4400  -13.3480 C.2     1  UNL1        0.0320
     18  N         25.6020  -21.1210  -15.7230 N.am    1  UNL1       -0.3180
     19  C         26.0300  -19.7520  -15.8920 C.3     1  UNL1        0.1330
     20  C         27.0920  -19.8150  -16.9700 C.3     1  UNL1        0.0290
     21  C         26.6550  -20.9850  -17.8250 C.3     1  UNL1        0.1050
     22  C         25.9520  -21.8920  -16.8430 C.2     1  UNL1        0.2240
     23  O         25.7260  -23.0670  -17.0820 O.2     1  UNL1       -0.2730
     24  S         16.4660  -22.9370   -8.8740 S.O2    1  UNL1        0.2630
     25  O         16.0780  -22.3560  -10.1400 O.2     1  UNL1       -0.2000
     26  O         15.8050  -24.1270   -8.3760 O.2     1  UNL1       -0.2000
     27  N         16.2920  -21.7650   -7.6690 N.pl3   1  UNL1       -0.2800
     28  H         15.7120  -20.9880   -7.9780 H       1  UNL1        0.1790
     29  C         16.2730  -22.1270   -6.2850 C.2     1  UNL1        0.0490
     30  C         15.1320  -22.7240   -5.7390 C.2     1  UNL1        0.0310
     31  C         15.0770  -23.0420   -4.3860 C.2     1  UNL1        0.0030
     32  C         16.1670  -22.7730   -3.5670 C.2     1  UNL1        0.0070
     33  C         17.3390  -22.2020   -4.0930 C.2     1  UNL1       -0.0540
     34  C         18.4850  -21.9340   -3.1530 C.3     1  UNL1        0.0490
     35  C         17.4110  -21.9020   -5.4760 C.2     1  UNL1       -0.0290
     36  C         18.6720  -21.3280   -6.0740 C.3     1  UNL1        0.0510
@<TRIPOS>BOND
     1    21    20    1
     2    21    22    1
     3    23    22    2
     4    20    19    1
     5    22    18   am
     6    19    18    1
     7    18    15    1
     8    15    16    2
     9    15    14    1
    10    16    17    1
    11    14    13    2
    12    17    12    2
    13    13    12    1
    14    12    10    1
    15     9     8    2
    16    10     8   am
    17    10    11    1
    18     8     5    1
    19    25    24    2
    20     5     6    2
    21     5     4    1
    22     6     7    1
    23     4     3    2
    24    24     7    1
    25    24    26    2
    26    24    27    1
    27     7     2    2
    28     3     2    1
    29     2     1    1
    30    28    27    1
    31    27    29    1
    32    29    30    2
    33    29    35    1
    34    36    35    1
    35    30    31    1
    36    35    33    2
    37    31    32    2
    38    33    32    1
    39    33    34    1
