@<TRIPOS>MOLECULE
38533_out_ligand_01.pdbqt
 31 33 0 0 0
SMALL
GASTEIGER

@<TRIPOS>ATOM
      1  C         17.6900  -23.4940   -8.6500 C.2     1  UNL1        0.0860
      2  C         19.0790  -23.6800   -8.5480 C.2     1  UNL1        0.0420
      3  C         19.9390  -23.1220   -9.4970 C.2     1  UNL1        0.0330
      4  C         19.4120  -22.3730  -10.5500 C.2     1  UNL1        0.0170
      5  C         18.0290  -22.1970  -10.6610 C.2     1  UNL1        0.0090
      6  C         17.1450  -22.7480   -9.7150 C.2     1  UNL1       -0.0390
      7  C         15.6720  -22.5260   -9.9140 C.3     1  UNL1        0.0500
      8  S         16.6730  -24.2760   -7.3990 S.O2    1  UNL1        0.2630
      9  O         17.5250  -25.1270   -6.5960 O.2     1  UNL1       -0.2000
     10  O         15.4990  -24.8270   -8.0420 O.2     1  UNL1       -0.2000
     11  N         16.1370  -22.9750   -6.4690 N.pl3   1  UNL1       -0.2800
     12  H         15.4910  -22.3710   -6.9710 H       1  UNL1        0.1790
     13  C         16.9800  -22.4020   -5.4720 C.2     1  UNL1        0.0480
     14  C         18.0090  -21.5330   -5.8490 C.2     1  UNL1        0.0300
     15  C         18.8180  -20.9330   -4.8840 C.2     1  UNL1        0.0020
     16  C         18.6120  -21.2060   -3.5380 C.2     1  UNL1        0.0010
     17  C         17.6010  -22.0890   -3.1540 C.2     1  UNL1        0.0090
     18  C         16.7790  -22.7030   -4.1130 C.2     1  UNL1       -0.0350
     19  C         15.7010  -23.6410   -3.6480 C.3     1  UNL1        0.0500
     20  C         21.4050  -23.3250   -9.3340 C.2     1  UNL1        0.2510
     21  O         21.8450  -24.4430   -9.0930 O.2     1  UNL1       -0.2680
     22  N         22.1950  -22.2070   -9.4990 N.am    1  UNL1       -0.3530
     23  H         21.7920  -21.3870   -9.9300 H       1  UNL1        0.1630
     24  C         23.6380  -22.3040   -9.5070 C.3     1  UNL1        0.1610
     25  C         24.1990  -21.8570  -10.8320 C.2     1  UNL1       -0.0400
     26  C         23.4750  -22.0490  -12.0200 C.2     1  UNL1        0.0120
     27  C         24.0110  -21.6470  -13.2450 C.2     1  UNL1        0.0430
     28  C         25.2700  -21.0590  -13.2840 C.2     1  UNL1        0.1160
     29  F         25.7820  -20.6760  -14.4620 F       1  UNL1       -0.2060
     30  C         26.0080  -20.8690  -12.1220 C.2     1  UNL1        0.0430
     31  C         25.4740  -21.2680  -10.8960 C.2     1  UNL1        0.0120
@<TRIPOS>BOND
     1    29    28    1
     2    28    27    2
     3    28    30    1
     4    27    26    1
     5    30    31    2
     6    26    25    2
     7    31    25    1
     8    25    24    1
     9     5     4    2
    10     5     6    1
    11     4     3    1
    12    23    22    1
    13     7     6    1
    14     6     1    2
    15    24    22    1
    16    22    20   am
    17     3    20    1
    18     3     2    2
    19    20    21    2
    20     1     2    1
    21     1     8    1
    22    10     8    2
    23     8     9    2
    24     8    11    1
    25    12    11    1
    26    11    13    1
    27    14    13    2
    28    14    15    1
    29    13    18    1
    30    15    16    2
    31    18    19    1
    32    18    17    2
    33    16    17    1
