@<TRIPOS>MOLECULE
3853_out_ligand_01.pdbqt
 42 46 0 0 0
SMALL
GASTEIGER

@<TRIPOS>ATOM
      1  C         19.5250  -22.0950  -10.9970 C.2     1  UNL1        0.0350
      2  C         18.3240  -21.3830  -11.0820 C.2     1  UNL1        0.0310
      3  C         17.2070  -21.7830  -10.3430 C.2     1  UNL1        0.0270
      4  C         17.2890  -22.9060   -9.5190 C.2     1  UNL1        0.0800
      5  C         18.4840  -23.6190   -9.4100 C.2     1  UNL1        0.0270
      6  C         19.5970  -23.2130  -10.1530 C.2     1  UNL1        0.0310
      7  N         20.6960  -21.7470  -11.7010 N.am    1  UNL1       -0.3230
      8  C         22.0050  -21.9730  -11.3150 C.2     1  UNL1        0.2560
      9  O         22.3900  -22.4390  -10.2510 O.2     1  UNL1       -0.2670
     10  H         20.5560  -21.2200  -12.5540 H       1  UNL1        0.1690
     11  C         23.0300  -21.5620  -12.3150 C.2     1  UNL1        0.0320
     12  C         22.5990  -21.0670  -13.5520 C.2     1  UNL1        0.0190
     13  C         23.5340  -20.6700  -14.5120 C.2     1  UNL1        0.0250
     14  C         24.9000  -20.7520  -14.2300 C.2     1  UNL1        0.0250
     15  C         25.3320  -21.2290  -12.9910 C.2     1  UNL1        0.0250
     16  C         24.4020  -21.6300  -12.0300 C.2     1  UNL1        0.0190
     17  N         25.9040  -20.3590  -15.1830 N.pl3   1  UNL1       -0.1760
     18  C         25.9930  -18.8960  -15.4100 C.3     1  UNL1        0.1360
     19  S         25.8800  -21.3150  -16.6140 S.O2    1  UNL1        0.2470
     20  O         24.5970  -21.1560  -17.2700 O.2     1  UNL1       -0.2050
     21  O         27.1210  -21.0840  -17.3270 O.2     1  UNL1       -0.2050
     22  C         25.9200  -22.9680  -15.9600 C.2     1  UNL1        0.0750
     23  C         24.8020  -23.7980  -16.0760 C.2     1  UNL1        0.0250
     24  C         24.8530  -25.0900  -15.5520 C.2     1  UNL1        0.0020
     25  C         26.0100  -25.5410  -14.9130 C.2     1  UNL1        0.0000
     26  C         27.1210  -24.7030  -14.7920 C.2     1  UNL1        0.0020
     27  C         27.0780  -23.4100  -15.3120 C.2     1  UNL1        0.0250
     28  S         15.8740  -23.4030   -8.5690 S.O2    1  UNL1        0.2630
     29  O         15.1730  -24.4120   -9.3370 O.2     1  UNL1       -0.2000
     30  O         15.1900  -22.2170   -8.1040 O.2     1  UNL1       -0.2000
     31  N         16.5710  -24.2160   -7.2650 N.pl3   1  UNL1       -0.2800
     32  H         16.4150  -25.2220   -7.3200 H       1  UNL1        0.1790
     33  C         16.5060  -23.6100   -5.9730 C.2     1  UNL1        0.0530
     34  C         15.4840  -24.0320   -5.1180 C.2     1  UNL1        0.0310
     35  C         15.3720  -23.4890   -3.8440 C.2     1  UNL1        0.0030
     36  C         16.2820  -22.5210   -3.4200 C.2     1  UNL1        0.0120
     37  C         17.3180  -22.0850   -4.2610 C.2     1  UNL1       -0.0240
     38  C         18.2260  -21.1090   -3.8200 C.2     1  UNL1        0.0120
     39  C         17.4490  -22.6340   -5.5610 C.2     1  UNL1        0.0010
     40  C         19.2630  -20.6700   -4.6410 C.2     1  UNL1        0.0010
     41  C         19.4100  -21.2030   -5.9140 C.2     1  UNL1        0.0010
     42  C         18.5140  -22.1740   -6.3700 C.2     1  UNL1        0.0140
@<TRIPOS>BOND
     1    21    19    2
     2    20    19    2
     3    19    22    1
     4    19    17    1
     5    23    22    2
     6    23    24    1
     7    22    27    1
     8    24    25    2
     9    18    17    1
    10    27    26    2
    11    17    14    1
    12    25    26    1
    13    13    14    2
    14    13    12    1
    15    14    15    1
    16    12    11    2
    17    15    16    2
    18    10     7    1
    19    11    16    1
    20    11     8    1
    21     7     8   am
    22     7     1    1
    23     8     9    2
    24     2     1    2
    25     2     3    1
    26     1     6    1
    27     3     4    2
    28     6     5    2
    29     4     5    1
    30     4    28    1
    31    29    28    2
    32    28    30    2
    33    28    31    1
    34    32    31    1
    35    31    33    1
    36    42    41    2
    37    42    39    1
    38    33    39    2
    39    33    34    1
    40    41    40    1
    41    39    37    1
    42    34    35    2
    43    40    38    2
    44    37    38    1
    45    37    36    2
    46    35    36    1
