@<TRIPOS>MOLECULE
38531_out_ligand_01.pdbqt
 34 36 0 0 0
SMALL
GASTEIGER

@<TRIPOS>ATOM
      1  C         20.7520  -22.3320  -10.6910 C.2     1  UNL1        0.0330
      2  C         20.3630  -21.3510  -11.6080 C.2     1  UNL1        0.0170
      3  C         19.0220  -20.9660  -11.7000 C.2     1  UNL1        0.0090
      4  C         18.0390  -21.5510  -10.8820 C.2     1  UNL1       -0.0390
      5  C         16.6210  -21.0720  -11.0280 C.3     1  UNL1        0.0500
      6  C         18.4440  -22.5170   -9.9400 C.2     1  UNL1        0.0810
      7  C         19.7920  -22.8980   -9.8440 C.2     1  UNL1        0.0420
      8  C         22.1680  -22.7850  -10.5560 C.2     1  UNL1        0.2510
      9  N         23.0530  -22.3450  -11.5110 N.am    1  UNL1       -0.3530
     10  H         22.7730  -21.6920  -12.2260 H       1  UNL1        0.1630
     11  O         22.4860  -23.5320   -9.6370 O.2     1  UNL1       -0.2680
     12  C         24.4730  -22.5740  -11.3770 C.3     1  UNL1        0.1640
     13  C         25.2740  -21.4130  -11.9150 C.2     1  UNL1       -0.0070
     14  C         26.0760  -20.6660  -11.0360 C.2     1  UNL1        0.0110
     15  C         26.8180  -19.5810  -11.5000 C.2     1  UNL1        0.0010
     16  C         26.7690  -19.2330  -12.8470 C.2     1  UNL1        0.0030
     17  C         25.9840  -19.9720  -13.7350 C.2     1  UNL1        0.0370
     18  C         25.2350  -21.0620  -13.2790 C.2     1  UNL1        0.0760
     19  O         24.4620  -21.8640  -14.0790 O.2     1  UNL1       -0.3510
     20  C         25.0980  -22.5110  -15.1790 C.3     1  UNL1        0.1710
     21  C         25.6330  -23.8440  -14.6880 C.3     1  UNL1        0.0340
     22  S         17.2900  -23.2770   -8.8060 S.O2    1  UNL1        0.2460
     23  O         16.1050  -23.6520   -9.5490 O.2     1  UNL1       -0.2060
     24  O         18.0070  -24.2400   -8.0020 O.2     1  UNL1       -0.2060
     25  N         16.8390  -21.9260   -7.8710 N.pl3   1  UNL1       -0.1810
     26  H         15.9740  -21.5610   -8.2800 H       1  UNL1        0.1460
     27  C         16.6300  -22.1620   -6.4660 C.2     1  UNL1        0.0290
     28  C         15.3640  -22.5290   -5.9970 C.2     1  UNL1        0.0250
     29  C         15.1370  -22.6740   -4.6300 C.2     1  UNL1        0.0020
     30  C         16.1680  -22.4330   -3.7260 C.2     1  UNL1        0.0070
     31  C         17.4370  -22.0350   -4.1750 C.2     1  UNL1       -0.0540
     32  C         18.5110  -21.7700   -3.1530 C.3     1  UNL1        0.0490
     33  C         17.6640  -21.8570   -5.5600 C.2     1  UNL1       -0.0340
     34  C         19.0210  -21.4130   -6.0510 C.3     1  UNL1        0.0500
@<TRIPOS>BOND
     1    20    21    1
     2    20    19    1
     3    19    18    1
     4    17    18    1
     5    17    16    2
     6    18    13    2
     7    16    15    1
     8    10     9    1
     9    13    12    1
    10    13    14    1
    11     3     2    1
    12     3     4    2
    13     2     1    2
    14     9    12    1
    15     9     8   am
    16    15    14    2
    17     5     4    1
    18     4     6    1
    19     1     8    1
    20     1     7    1
    21     8    11    2
    22     6     7    2
    23     6    22    1
    24    23    22    2
    25    22    24    2
    26    22    25    1
    27    26    25    1
    28    25    27    1
    29    27    28    2
    30    27    33    1
    31    34    33    1
    32    28    29    1
    33    33    31    2
    34    29    30    2
    35    31    30    1
    36    31    32    1
