@<TRIPOS>MOLECULE
38542_out_ligand_01.pdbqt
 32 34 0 0 0
SMALL
GASTEIGER

@<TRIPOS>ATOM
      1  C         23.3610  -22.0900  -12.5350 C.2     1  UNL1        0.0330
      2  C         22.3080  -21.4000  -13.1370 C.2     1  UNL1        0.0170
      3  C         21.0600  -21.3650  -12.5110 C.2     1  UNL1        0.0090
      4  C         20.8390  -22.0180  -11.2830 C.2     1  UNL1       -0.0390
      5  C         19.4650  -21.9280  -10.6810 C.3     1  UNL1        0.0500
      6  C         21.9090  -22.7280  -10.7010 C.2     1  UNL1        0.0860
      7  C         23.1600  -22.7810  -11.3410 C.2     1  UNL1        0.0420
      8  S         21.7960  -23.6120   -9.1460 S.O2    1  UNL1        0.2630
      9  O         20.6820  -24.5340   -9.1730 O.2     1  UNL1       -0.2000
     10  O         23.1310  -24.0730   -8.8280 O.2     1  UNL1       -0.2000
     11  N         21.4550  -22.3820   -8.0380 N.pl3   1  UNL1       -0.2810
     12  H         21.7970  -21.4760   -8.3520 H       1  UNL1        0.1790
     13  C         20.2520  -22.4270   -7.2800 C.2     1  UNL1        0.0430
     14  C         19.9880  -21.4000   -6.3790 C.2     1  UNL1        0.0300
     15  C         18.8020  -21.4060   -5.6440 C.2     1  UNL1        0.0090
     16  C         17.8680  -22.4430   -5.7960 C.2     1  UNL1       -0.0560
     17  C         16.6000  -22.4170   -4.9860 C.3     1  UNL1        0.0490
     18  C         18.1340  -23.4800   -6.7130 C.2     1  UNL1       -0.0540
     19  C         17.1820  -24.6300   -6.9020 C.3     1  UNL1        0.0490
     20  C         19.3360  -23.4660   -7.4380 C.2     1  UNL1        0.0370
     21  C         24.6900  -22.1530  -13.1800 C.2     1  UNL1        0.2530
     22  N         25.7430  -21.4270  -12.6310 N.am    1  UNL1       -0.3480
     23  C         25.6720  -20.6770  -11.3830 C.3     1  UNL1        0.1530
     24  O         24.7920  -22.8610  -14.1800 O.2     1  UNL1       -0.2670
     25  C         26.9590  -21.2740  -13.4280 C.3     1  UNL1        0.1640
     26  C         26.8690  -20.1050  -14.3790 C.2     1  UNL1       -0.0400
     27  C         26.5490  -20.3000  -15.7290 C.2     1  UNL1        0.0090
     28  C         26.4820  -19.2140  -16.6070 C.2     1  UNL1        0.0070
     29  C         26.7470  -17.9170  -16.1530 C.2     1  UNL1       -0.0620
     30  C         26.6410  -16.7480  -17.0870 C.3     1  UNL1        0.0480
     31  C         27.0540  -17.7190  -14.8020 C.2     1  UNL1        0.0070
     32  C         27.1200  -18.8020  -13.9250 C.2     1  UNL1        0.0090
@<TRIPOS>BOND
     1    30    29    1
     2    28    29    2
     3    28    27    1
     4    29    31    1
     5    27    26    2
     6    31    32    2
     7    26    32    1
     8    26    25    1
     9    24    21    2
    10    25    22    1
    11    21    22   am
    12    21     1    1
    13     2     1    2
    14     2     3    1
    15    22    23    1
    16     1     7    1
    17     3     4    2
    18     7     6    2
    19     4     6    1
    20     4     5    1
    21     6     8    1
    22     9     8    2
    23     8    10    2
    24     8    11    1
    25    12    11    1
    26    11    13    1
    27    20    13    2
    28    20    18    1
    29    13    14    1
    30    19    18    1
    31    18    16    2
    32    14    15    2
    33    16    15    1
    34    16    17    1
