@<TRIPOS>MOLECULE
38547_out_ligand_01.pdbqt
 34 36 0 0 0
SMALL
GASTEIGER

@<TRIPOS>ATOM
      1  C         19.8030  -23.0400   -9.5740 C.2     1  UNL1        0.0330
      2  C         19.2050  -22.3070  -10.6000 C.2     1  UNL1        0.0170
      3  C         17.8140  -22.1760  -10.6460 C.2     1  UNL1        0.0090
      4  C         16.9900  -22.7810   -9.6780 C.2     1  UNL1       -0.0390
      5  C         15.5040  -22.5880   -9.8000 C.3     1  UNL1        0.0500
      6  C         17.6040  -23.5280   -8.6540 C.2     1  UNL1        0.0860
      7  C         19.0040  -23.6550   -8.6080 C.2     1  UNL1        0.0420
      8  C         21.2780  -23.2180   -9.4950 C.2     1  UNL1        0.2510
      9  N         22.0400  -22.1530   -9.9260 N.am    1  UNL1       -0.3530
     10  H         21.5910  -21.2570  -10.0430 H       1  UNL1        0.1630
     11  O         21.7420  -24.2560   -9.0410 O.2     1  UNL1       -0.2680
     12  C         23.4750  -22.1390   -9.7440 C.3     1  UNL1        0.1610
     13  C         24.1710  -21.7680  -11.0290 C.2     1  UNL1       -0.0380
     14  C         25.4400  -21.1750  -10.9940 C.2     1  UNL1        0.0090
     15  C         26.0800  -20.8120  -12.1760 C.2     1  UNL1        0.0030
     16  C         25.4520  -21.0330  -13.4010 C.2     1  UNL1        0.0370
     17  C         24.1810  -21.6110  -13.4590 C.2     1  UNL1        0.0690
     18  C         23.5440  -21.9770  -12.2710 C.2     1  UNL1        0.0450
     19  O         23.6910  -21.7670  -14.7260 O.2     1  UNL1       -0.3520
     20  C         24.5910  -21.7080  -15.8290 C.3     1  UNL1        0.1710
     21  C         24.5940  -23.0180  -16.5960 C.3     1  UNL1        0.0340
     22  S         16.7020  -24.3370   -7.3390 S.O2    1  UNL1        0.2630
     23  O         15.5580  -24.9830   -7.9520 O.2     1  UNL1       -0.2000
     24  O         17.6010  -25.1000   -6.5020 O.2     1  UNL1       -0.2000
     25  N         16.0780  -23.0330   -6.4660 N.pl3   1  UNL1       -0.2800
     26  H         15.0850  -23.1540   -6.2740 H       1  UNL1        0.1790
     27  C         16.8850  -22.4380   -5.4550 C.2     1  UNL1        0.0490
     28  C         17.9500  -21.6260   -5.8560 C.2     1  UNL1        0.0370
     29  C         18.8020  -21.0470   -4.9090 C.2     1  UNL1       -0.0600
     30  C         19.9620  -20.2030   -5.3500 C.3     1  UNL1        0.0480
     31  C         18.5900  -21.3170   -3.5550 C.2     1  UNL1        0.0070
     32  C         17.5250  -22.1260   -3.1530 C.2     1  UNL1        0.0090
     33  C         16.6500  -22.6890   -4.0950 C.2     1  UNL1       -0.0350
     34  C         15.5340  -23.5750   -3.6220 C.3     1  UNL1        0.0500
@<TRIPOS>BOND
     1    21    20    1
     2    20    19    1
     3    19    17    1
     4    17    16    2
     5    17    18    1
     6    16    15    1
     7    18    13    2
     8    15    14    2
     9    13    14    1
    10    13    12    1
    11     3     2    1
    12     3     4    2
    13     2     1    2
    14    10     9    1
    15     9    12    1
    16     9     8   am
    17     5     4    1
    18     4     6    1
    19     1     8    1
    20     1     7    1
    21     8    11    2
    22     6     7    2
    23     6    22    1
    24    23    22    2
    25    22    24    2
    26    22    25    1
    27    25    26    1
    28    25    27    1
    29    28    27    2
    30    28    29    1
    31    27    33    1
    32    30    29    1
    33    29    31    2
    34    33    34    1
    35    33    32    2
    36    31    32    1
