@<TRIPOS>MOLECULE
38557_out_ligand_01.pdbqt
 36 39 0 0 0
SMALL
GASTEIGER

@<TRIPOS>ATOM
      1  C         18.4480  -22.4490   -9.9700 C.2     1  UNL1        0.0860
      2  C         19.7860  -22.8860   -9.9420 C.2     1  UNL1        0.0420
      3  C         20.7250  -22.3640  -10.8360 C.2     1  UNL1        0.0330
      4  C         20.3310  -21.3930  -11.7570 C.2     1  UNL1        0.0170
      5  C         19.0010  -20.9580  -11.7880 C.2     1  UNL1        0.0090
      6  C         18.0350  -21.4800  -10.9050 C.2     1  UNL1       -0.0390
      7  C         16.6260  -20.9620  -11.0080 C.3     1  UNL1        0.0500
      8  C         22.1240  -22.8650  -10.7450 C.2     1  UNL1        0.2510
      9  O         22.4300  -23.6390   -9.8460 O.2     1  UNL1       -0.2680
     10  N         22.9910  -22.4510  -11.7320 N.am    1  UNL1       -0.3530
     11  H         22.6400  -21.9170  -12.5180 H       1  UNL1        0.1630
     12  C         24.3230  -23.0080  -11.8460 C.3     1  UNL1        0.1630
     13  C         25.3580  -21.9550  -12.1960 C.2     1  UNL1       -0.0130
     14  C         25.7590  -21.0470  -11.1970 C.2     1  UNL1        0.0110
     15  C         26.5700  -19.9470  -11.4900 C.2     1  UNL1        0.0010
     16  C         26.9740  -19.7090  -12.8010 C.2     1  UNL1        0.0020
     17  C         26.5790  -20.5740  -13.8150 C.2     1  UNL1        0.0300
     18  C         25.8030  -21.7060  -13.5130 C.2     1  UNL1        0.0480
     19  N         25.4730  -22.5610  -14.5940 N.pl3   1  UNL1       -0.3090
     20  C         24.6240  -22.2360  -15.6270 C.2     1  UNL1        0.1180
     21  C         24.5610  -23.3560  -16.4250 C.2     1  UNL1        0.1360
     22  N         25.4100  -24.3250  -15.9670 N.2     1  UNL1       -0.2460
     23  C         25.9920  -23.8150  -14.8940 C.2     1  UNL1        0.1060
     24  C         27.1190  -24.4540  -14.1640 C.3     1  UNL1        0.0910
     25  S         17.3660  -23.2090   -8.7660 S.O2    1  UNL1        0.2630
     26  O         16.1460  -23.6710   -9.3870 O.2     1  UNL1       -0.2000
     27  O         18.1880  -24.1170   -7.9940 O.2     1  UNL1       -0.2000
     28  N         17.0150  -21.9160   -7.7370 N.pl3   1  UNL1       -0.2800
     29  H         17.5050  -21.0650   -8.0170 H       1  UNL1        0.1790
     30  C         16.8770  -22.1720   -6.3440 C.2     1  UNL1        0.0480
     31  C         15.6750  -22.7090   -5.8730 C.2     1  UNL1        0.0300
     32  C         15.5190  -23.0000   -4.5170 C.2     1  UNL1        0.0020
     33  C         16.5690  -22.7660   -3.6320 C.2     1  UNL1        0.0010
     34  C         17.7740  -22.2380   -4.1010 C.2     1  UNL1        0.0090
     35  C         17.9440  -21.9310   -5.4620 C.2     1  UNL1       -0.0350
     36  C         19.2630  -21.3890   -5.9390 C.3     1  UNL1        0.0500
@<TRIPOS>BOND
     1    21    22    1
     2    21    20    2
     3    22    23    2
     4    20    19    1
     5    23    19    1
     6    23    24    1
     7    19    18    1
     8    17    18    1
     9    17    16    2
    10    18    13    2
    11    16    15    1
    12    11    10    1
    13    13    12    1
    14    13    14    1
    15    12    10    1
    16     5     4    2
    17     5     6    1
    18     4     3    1
    19    10     8   am
    20    15    14    2
    21     7     6    1
    22     6     1    2
    23     3     8    1
    24     3     2    2
    25     8     9    2
    26     1     2    1
    27     1    25    1
    28    26    25    2
    29    25    27    2
    30    25    28    1
    31    29    28    1
    32    28    30    1
    33    30    31    2
    34    30    35    1
    35    36    35    1
    36    31    32    1
    37    35    34    2
    38    32    33    2
    39    34    33    1
