@<TRIPOS>MOLECULE
3855_out_ligand_01.pdbqt
 34 37 0 0 0
SMALL
GASTEIGER

@<TRIPOS>ATOM
      1  C         20.7730  -22.3780  -10.8860 C.2     1  UNL1        0.0340
      2  C         19.6650  -21.6350  -11.3000 C.2     1  UNL1        0.0310
      3  C         18.4050  -21.8670  -10.7390 C.2     1  UNL1        0.0270
      4  C         18.2570  -22.8420   -9.7510 C.2     1  UNL1        0.0800
      5  C         19.3450  -23.6240   -9.3610 C.2     1  UNL1        0.0270
      6  C         20.6000  -23.3840   -9.9240 C.2     1  UNL1        0.0310
      7  S         16.6670  -23.0990   -8.9970 S.O2    1  UNL1        0.2630
      8  O         16.2040  -21.8180   -8.5070 O.2     1  UNL1       -0.2000
      9  O         15.8640  -23.8850   -9.9090 O.2     1  UNL1       -0.2000
     10  N         17.0290  -24.0200   -7.6270 N.pl3   1  UNL1       -0.2800
     11  H         16.9250  -25.0180   -7.7890 H       1  UNL1        0.1790
     12  C         16.6840  -23.5070   -6.3380 C.2     1  UNL1        0.0530
     13  C         15.5460  -24.0260   -5.7150 C.2     1  UNL1        0.0310
     14  C         15.1910  -23.6070   -4.4370 C.2     1  UNL1        0.0030
     15  C         15.9820  -22.6720   -3.7730 C.2     1  UNL1        0.0120
     16  C         17.1330  -22.1410   -4.3740 C.2     1  UNL1       -0.0240
     17  C         17.9240  -21.2090   -3.6810 C.2     1  UNL1        0.0120
     18  C         17.5030  -22.5500   -5.6790 C.2     1  UNL1        0.0010
     19  C         19.0770  -20.6770   -4.2560 C.2     1  UNL1        0.0010
     20  C         19.4530  -21.0660   -5.5340 C.2     1  UNL1        0.0010
     21  C         18.6760  -21.9880   -6.2380 C.2     1  UNL1        0.0140
     22  N         22.0780  -22.1820  -11.3740 N.am    1  UNL1       -0.3260
     23  C         23.1680  -21.6370  -10.7060 C.2     1  UNL1        0.2360
     24  O         23.1530  -21.1870   -9.5640 O.2     1  UNL1       -0.2720
     25  H         22.2830  -22.5830  -12.2840 H       1  UNL1        0.1690
     26  C         24.4320  -21.6020  -11.5760 C.3     1  UNL1        0.1400
     27  C         25.6700  -21.1550  -10.8070 C.3     1  UNL1        0.0310
     28  S         24.6850  -23.2150  -12.4420 S.3     1  UNL1       -0.1160
     29  C         24.8350  -22.6940  -14.1420 C.2     1  UNL1        0.0010
     30  C         24.5450  -21.3660  -14.4710 C.2     1  UNL1        0.0180
     31  C         24.6490  -20.9270  -15.7930 C.2     1  UNL1        0.0010
     32  C         25.0360  -21.8140  -16.7930 C.2     1  UNL1        0.0000
     33  C         25.3090  -23.1430  -16.4750 C.2     1  UNL1        0.0010
     34  C         25.2000  -23.5850  -15.1540 C.2     1  UNL1        0.0180
@<TRIPOS>BOND
     1    32    33    2
     2    32    31    1
     3    33    34    1
     4    31    30    2
     5    34    29    2
     6    30    29    1
     7    29    28    1
     8    28    26    1
     9    25    22    1
    10    26    27    1
    11    26    23    1
    12    22     1    1
    13    22    23   am
    14     2     1    2
    15     2     3    1
    16     1     6    1
    17     3     4    2
    18    23    24    2
    19     6     5    2
    20     9     7    2
    21     4     5    1
    22     4     7    1
    23     7     8    2
    24     7    10    1
    25    11    10    1
    26    10    12    1
    27    12    13    2
    28    12    18    1
    29    21    18    1
    30    21    20    2
    31    13    14    1
    32    18    16    2
    33    20    19    1
    34    14    15    2
    35    16    15    1
    36    16    17    1
    37    19    17    2
