@<TRIPOS>MOLECULE
38556_out_ligand_01.pdbqt
 35 38 0 0 0
SMALL
GASTEIGER

@<TRIPOS>ATOM
      1  O         18.9710  -21.1130   -6.0470 O.2     1  UNL1       -0.2670
      2  C         18.6250  -22.2670   -6.2570 C.2     1  UNL1        0.2560
      3  N         19.2350  -23.2010   -7.0680 N.am    1  UNL1       -0.3230
      4  H         18.7460  -24.0790   -7.1900 H       1  UNL1        0.1690
      5  C         20.4640  -23.0730   -7.7460 C.2     1  UNL1        0.0350
      6  C         20.8500  -24.1350   -8.5740 C.2     1  UNL1        0.0310
      7  C         22.0620  -24.0960   -9.2690 C.2     1  UNL1        0.0270
      8  C         22.8890  -22.9800   -9.1420 C.2     1  UNL1        0.0800
      9  C         22.5240  -21.9190   -8.3100 C.2     1  UNL1        0.0270
     10  C         21.3110  -21.9680   -7.6180 C.2     1  UNL1        0.0310
     11  S         24.4330  -22.9140  -10.0100 S.O2    1  UNL1        0.2630
     12  O         25.3680  -23.8190   -9.3780 O.2     1  UNL1       -0.2000
     13  O         24.7600  -21.5170  -10.2040 O.2     1  UNL1       -0.2000
     14  N         24.0240  -23.5130  -11.5400 N.pl3   1  UNL1       -0.2790
     15  H         23.4400  -24.3450  -11.4510 H       1  UNL1        0.1790
     16  C         23.6730  -22.5670  -12.5430 C.2     1  UNL1        0.0600
     17  C         22.4130  -21.9750  -12.5350 C.2     1  UNL1        0.0330
     18  C         22.1120  -21.0020  -13.4850 C.2     1  UNL1        0.0210
     19  C         23.0890  -20.6500  -14.4050 C.2     1  UNL1        0.1160
     20  N         24.3240  -21.1970  -14.4340 N.2     1  UNL1       -0.2710
     21  C         24.5890  -22.1400  -13.4980 C.2     1  UNL1        0.1460
     22  C         17.3830  -22.7560   -5.6090 C.2     1  UNL1        0.0380
     23  C         17.5290  -23.3760   -4.3610 C.2     1  UNL1        0.0170
     24  C         16.4090  -23.8540   -3.6840 C.2     1  UNL1        0.0010
     25  C         15.1460  -23.7240   -4.2570 C.2     1  UNL1        0.0010
     26  C         14.9990  -23.1260   -5.5100 C.2     1  UNL1        0.0080
     27  C         16.1140  -22.6340   -6.2110 C.2     1  UNL1       -0.0420
     28  C         15.9090  -22.0520   -7.5920 C.3     1  UNL1        0.0440
     29  C         16.1600  -23.0720   -8.7080 C.3     1  UNL1        0.0430
     30  C         16.9790  -22.4660   -9.8210 C.2     1  UNL1       -0.0580
     31  C         18.1330  -23.1170  -10.2800 C.2     1  UNL1        0.0070
     32  C         18.9110  -22.5470  -11.2880 C.2     1  UNL1        0.0010
     33  C         18.5450  -21.3230  -11.8450 C.2     1  UNL1        0.0000
     34  C         17.4020  -20.6670  -11.3930 C.2     1  UNL1        0.0010
     35  C         16.6210  -21.2340  -10.3840 C.2     1  UNL1        0.0070
@<TRIPOS>BOND
     1    20    19    2
     2    20    21    1
     3    19    18    1
     4    21    16    2
     5    18    17    2
     6    16    17    1
     7    16    14    1
     8    33    34    2
     9    33    32    1
    10    14    15    1
    11    14    11    1
    12    34    35    1
    13    32    31    2
    14    35    30    2
    15    31    30    1
    16    13    11    2
    17    11    12    2
    18    11     8    1
    19    30    29    1
    20     7     8    2
    21     7     6    1
    22     8     9    1
    23    29    28    1
    24     6     5    2
    25     9    10    2
    26     5    10    1
    27     5     3    1
    28    28    27    1
    29     4     3    1
    30     3     2   am
    31     2     1    2
    32     2    22    1
    33    27    22    2
    34    27    26    1
    35    22    23    1
    36    26    25    2
    37    23    24    2
    38    25    24    1
