@<TRIPOS>MOLECULE
38552_out_ligand_01.pdbqt
 35 37 0 0 0
SMALL
GASTEIGER

@<TRIPOS>ATOM
      1  C         19.6790  -22.5650   -9.3520 C.2     1  UNL1        0.0330
      2  C         19.0640  -21.9520  -10.4450 C.2     1  UNL1        0.0170
      3  C         17.6760  -22.0190  -10.5990 C.2     1  UNL1        0.0090
      4  C         16.8720  -22.7120   -9.6770 C.2     1  UNL1       -0.0390
      5  C         15.3890  -22.7520   -9.9130 C.3     1  UNL1        0.0500
      6  C         17.5040  -23.3530   -8.5930 C.2     1  UNL1        0.0810
      7  C         18.8970  -23.2690   -8.4310 C.2     1  UNL1        0.0420
      8  C         21.1520  -22.5230   -9.1310 C.2     1  UNL1        0.2520
      9  N         21.9500  -22.7720  -10.2240 N.am    1  UNL1       -0.3490
     10  H         21.5380  -22.8050  -11.1450 H       1  UNL1        0.1630
     11  O         21.5920  -22.2480   -8.0210 O.2     1  UNL1       -0.2680
     12  C         23.3950  -22.6040  -10.1660 C.3     1  UNL1        0.1140
     13  C         24.0560  -23.6790   -9.2980 C.3     1  UNL1        0.0370
     14  C         23.9320  -22.5510  -11.5880 C.2     1  UNL1       -0.0360
     15  C         23.2020  -21.8600  -12.5680 C.2     1  UNL1        0.0120
     16  C         23.6300  -21.8450  -13.9000 C.2     1  UNL1        0.0370
     17  C         24.7960  -22.5090  -14.2790 C.2     1  UNL1        0.0680
     18  C         25.5190  -23.2130  -13.3190 C.2     1  UNL1        0.0370
     19  C         25.0880  -23.2380  -11.9860 C.2     1  UNL1        0.0120
     20  O         25.0990  -22.4330  -15.6100 O.2     1  UNL1       -0.3520
     21  C         24.7060  -23.5230  -16.4450 C.3     1  UNL1        0.1710
     22  C         24.3730  -23.0260  -17.8430 C.3     1  UNL1        0.0340
     23  S         16.5890  -24.2960   -7.3750 S.O2    1  UNL1        0.2460
     24  O         15.4840  -24.9350   -8.0620 O.2     1  UNL1       -0.2060
     25  O         17.5390  -25.0570   -6.5980 O.2     1  UNL1       -0.2060
     26  N         15.9140  -23.0420   -6.4290 N.pl3   1  UNL1       -0.1810
     27  H         15.0740  -23.4080   -5.9720 H       1  UNL1        0.1460
     28  C         16.8190  -22.5110   -5.4420 C.2     1  UNL1        0.0290
     29  C         17.8710  -21.6880   -5.8690 C.2     1  UNL1        0.0310
     30  C         18.7400  -21.1010   -4.9430 C.2     1  UNL1       -0.0600
     31  C         19.8980  -20.2660   -5.4090 C.3     1  UNL1        0.0480
     32  C         18.5420  -21.3510   -3.5820 C.2     1  UNL1        0.0070
     33  C         17.4930  -22.1690   -3.1530 C.2     1  UNL1        0.0090
     34  C         16.6230  -22.7630   -4.0770 C.2     1  UNL1       -0.0400
     35  C         15.4990  -23.6230   -3.5760 C.3     1  UNL1        0.0500
@<TRIPOS>BOND
     1    22    21    1
     2    21    20    1
     3    20    17    1
     4    17    16    2
     5    17    18    1
     6    16    15    1
     7    18    19    2
     8    15    14    2
     9    19    14    1
    10    14    12    1
    11    10     9    1
    12     3     2    1
    13     3     4    2
    14     2     1    2
    15     9    12    1
    16     9     8   am
    17    12    13    1
    18     5     4    1
    19     4     6    1
    20     1     8    1
    21     1     7    1
    22     8    11    2
    23     6     7    2
    24     6    23    1
    25    24    23    2
    26    23    25    2
    27    23    26    1
    28    26    27    1
    29    26    28    1
    30    29    28    2
    31    29    30    1
    32    28    34    1
    33    31    30    1
    34    30    32    2
    35    34    35    1
    36    34    33    2
    37    32    33    1
