@<TRIPOS>MOLECULE
38564_out_ligand_01.pdbqt
 37 41 0 0 0
SMALL
GASTEIGER

@<TRIPOS>ATOM
      1  O         22.6990  -21.7100   -8.8570 O.2     1  UNL1       -0.2670
      2  C         22.4710  -22.0390  -10.0150 C.2     1  UNL1        0.2560
      3  N         21.2850  -22.5470  -10.5140 N.am    1  UNL1       -0.3230
      4  H         21.1990  -22.5920  -11.5200 H       1  UNL1        0.1690
      5  C         23.5430  -21.8520  -11.0330 C.2     1  UNL1        0.0320
      6  C         24.8900  -21.7790  -10.6640 C.2     1  UNL1        0.0170
      7  C         25.8700  -21.5880  -11.6410 C.2     1  UNL1        0.0100
      8  C         25.5220  -21.4670  -12.9960 C.2     1  UNL1       -0.0400
      9  C         24.1660  -21.5140  -13.3510 C.2     1  UNL1        0.0100
     10  C         23.1820  -21.7030  -12.3750 C.2     1  UNL1        0.0170
     11  C         26.5820  -21.2110  -14.0520 C.3     1  UNL1        0.1610
     12  N         26.7150  -22.3620  -14.9600 N.pl3   1  UNL1       -0.3760
     13  C         27.1210  -23.6300  -14.3420 C.3     1  UNL1        0.1230
     14  C         25.9180  -24.5210  -14.0840 C.3     1  UNL1        0.0240
     15  C         25.2650  -24.8630  -15.4140 C.3     1  UNL1        0.0420
     16  C         25.0600  -23.6330  -16.2610 C.2     1  UNL1       -0.0320
     17  C         24.1540  -23.6970  -17.3330 C.2     1  UNL1        0.0090
     18  C         25.7800  -22.4490  -16.0040 C.2     1  UNL1        0.0360
     19  C         23.9440  -22.5910  -18.1530 C.2     1  UNL1        0.0010
     20  C         24.6490  -21.4190  -17.9150 C.2     1  UNL1        0.0020
     21  C         25.5600  -21.3540  -16.8580 C.2     1  UNL1        0.0300
     22  C         20.1520  -22.9540   -9.7800 C.2     1  UNL1        0.0350
     23  C         18.8400  -22.6100  -10.1160 C.2     1  UNL1        0.0310
     24  C         17.7680  -23.0130   -9.3120 C.2     1  UNL1        0.0270
     25  C         18.0130  -23.7760   -8.1700 C.2     1  UNL1        0.0790
     26  C         19.3190  -24.1260   -7.8180 C.2     1  UNL1        0.0270
     27  C         20.3820  -23.7130   -8.6230 C.2     1  UNL1        0.0310
     28  S         16.6770  -24.2610   -7.1010 S.O2    1  UNL1        0.2600
     29  O         17.0650  -25.4580   -6.3870 O.2     1  UNL1       -0.2000
     30  O         15.4690  -24.2200   -7.8990 O.2     1  UNL1       -0.2000
     31  N         16.6250  -22.9720   -5.9700 N.3     1  UNL1       -0.3070
     32  C         17.3000  -21.7170   -6.3870 C.3     1  UNL1        0.1350
     33  C         18.7200  -21.5720   -5.8500 C.3     1  UNL1        0.0210
     34  C         18.7730  -20.8890   -4.4850 C.3     1  UNL1        0.0020
     35  C         18.2210  -21.7150   -3.3310 C.3     1  UNL1        0.0020
     36  C         16.8180  -22.2760   -3.5540 C.3     1  UNL1        0.0210
     37  C         16.7930  -23.4180   -4.5660 C.3     1  UNL1        0.1350
@<TRIPOS>BOND
     1    19    20    2
     2    19    17    1
     3    20    21    1
     4    17    16    2
     5    21    18    2
     6    16    18    1
     7    16    15    1
     8    18    12    1
     9    15    14    1
    10    12    13    1
    11    12    11    1
    12    13    14    1
    13    11     8    1
    14     9     8    2
    15     9    10    1
    16     8     7    1
    17    10     5    2
    18     7     6    2
    19     4     3    1
    20     5     6    1
    21     5     2    1
    22     3     2   am
    23     3    22    1
    24    23    22    2
    25    23    24    1
    26     2     1    2
    27    22    27    1
    28    24    25    2
    29    27    26    2
    30    25    26    1
    31    25    28    1
    32    30    28    2
    33    28    29    2
    34    28    31    1
    35    32    31    1
    36    32    33    1
    37    31    37    1
    38    33    34    1
    39    37    36    1
    40    34    35    1
    41    36    35    1
