@<TRIPOS>MOLECULE
38576_out_ligand_01.pdbqt
 41 44 0 0 0
SMALL
GASTEIGER

@<TRIPOS>ATOM
      1  C         21.4880  -21.7720   -7.7050 C.2     1  UNL1        0.2560
      2  O         22.4070  -21.0510   -7.3360 O.2     1  UNL1       -0.2670
      3  N         21.4810  -22.6080   -8.8060 N.am    1  UNL1       -0.3230
      4  H         20.7110  -23.2590   -8.8900 H       1  UNL1        0.1690
      5  C         20.2510  -21.8090   -6.8740 C.2     1  UNL1        0.0340
      6  C         19.2580  -22.7460   -7.1910 C.2     1  UNL1        0.0430
      7  C         18.0800  -22.8180   -6.4260 C.2     1  UNL1        0.0970
      8  C         17.9010  -21.9670   -5.3350 C.2     1  UNL1        0.0570
      9  C         18.9070  -21.0450   -5.0120 C.2     1  UNL1        0.0260
     10 CL         16.5010  -21.9520   -4.3290 Cl      1  UNL1       -0.0830
     11  C         20.0790  -20.9670   -5.7720 C.2     1  UNL1        0.0190
     12  S         16.8670  -24.0330   -6.8700 S.O2    1  UNL1        0.2470
     13  O         15.5700  -23.4000   -6.8110 O.2     1  UNL1       -0.2050
     14  O         17.1580  -25.2360   -6.1170 O.2     1  UNL1       -0.2050
     15  N         17.3130  -24.4010   -8.4800 N.pl3   1  UNL1       -0.1810
     16  H         16.7240  -25.1830   -8.7710 H       1  UNL1        0.1460
     17  C         17.1330  -23.3000   -9.3870 C.2     1  UNL1        0.0230
     18  C         15.9040  -22.6450   -9.4580 C.2     1  UNL1        0.0240
     19  C         15.7500  -21.5550  -10.3140 C.2     1  UNL1        0.0020
     20  C         16.8280  -21.1100  -11.0810 C.2     1  UNL1        0.0070
     21  C         18.0740  -21.7410  -10.9860 C.2     1  UNL1       -0.0600
     22  C         19.2290  -21.2670  -11.8170 C.3     1  UNL1        0.0480
     23  C         18.2180  -22.8450  -10.1370 C.2     1  UNL1        0.0310
     24  C         22.4840  -22.7270   -9.7910 C.2     1  UNL1        0.0350
     25  C         22.1190  -22.4340  -11.1140 C.2     1  UNL1        0.0310
     26  C         23.0530  -22.5210  -12.1490 C.2     1  UNL1        0.0270
     27  C         24.3630  -22.9050  -11.8620 C.2     1  UNL1        0.0800
     28  C         24.7490  -23.1790  -10.5490 C.2     1  UNL1        0.0270
     29  C         23.8050  -23.0940   -9.5180 C.2     1  UNL1        0.0310
     30  S         25.5720  -22.9980  -13.1650 S.O2    1  UNL1        0.2760
     31  O         26.8800  -22.7600  -12.5920 O.2     1  UNL1       -0.2000
     32  O         25.3080  -24.2300  -13.8840 O.2     1  UNL1       -0.2000
     33  N         25.1620  -21.7680  -14.1980 N.pl3   1  UNL1       -0.1090
     34  H         25.4500  -20.8440  -13.9000 H       1  UNL1        0.1980
     35  C         25.2970  -21.9580  -15.5670 C.cat   1  UNL1        0.7360
     36  N         26.4240  -21.6120  -16.1840 N.2     1  UNL1       -0.0740
     37  C         26.4960  -21.9460  -17.4840 C.2     1  UNL1        0.1380
     38  C         25.4970  -22.6140  -18.1530 C.2     1  UNL1        0.0470
     39  C         24.3830  -22.9460  -17.4060 C.2     1  UNL1        0.0510
     40  C         23.2430  -23.6870  -18.0380 C.3     1  UNL1        0.0710
     41  N         24.2730  -22.6330  -16.0990 N.2     1  UNL1       -0.0670
@<TRIPOS>BOND
     1    38    37    2
     2    38    39    1
     3    40    39    1
     4    37    36    1
     5    39    41    2
     6    36    35    2
     7    41    35    1
     8    35    33    1
     9    33    34    1
    10    33    30    1
    11    32    30    2
    12    30    31    2
    13    30    27    1
    14    26    27    2
    15    26    25    1
    16    27    28    1
    17    22    21    1
    18    25    24    2
    19    20    21    2
    20    20    19    1
    21    21    23    1
    22    28    29    2
    23    19    18    2
    24    23    17    2
    25    24    29    1
    26    24     3    1
    27    18    17    1
    28    17    15    1
    29     4     3    1
    30     3     1   am
    31    16    15    1
    32    15    12    1
    33     1     2    2
    34     1     5    1
    35     6     5    2
    36     6     7    1
    37     5    11    1
    38    12    13    2
    39    12     7    1
    40    12    14    2
    41     7     8    2
    42    11     9    2
    43     8     9    1
    44     8    10    1
