@<TRIPOS>MOLECULE
38572_out_ligand_01.pdbqt
 32 34 0 0 0
SMALL
GASTEIGER

@<TRIPOS>ATOM
      1  C         17.5040  -23.5000   -8.6650 C.2     1  UNL1        0.0810
      2  C         18.8960  -23.6800   -8.6950 C.2     1  UNL1        0.0420
      3  C         19.6590  -23.0860   -9.7050 C.2     1  UNL1        0.0330
      4  C         19.0340  -22.3020  -10.6780 C.2     1  UNL1        0.0170
      5  C         17.6480  -22.1260  -10.6480 C.2     1  UNL1        0.0090
      6  C         16.8600  -22.7160   -9.6430 C.2     1  UNL1       -0.0390
      7  C         15.3740  -22.4950   -9.6840 C.3     1  UNL1        0.0500
      8  C         21.1330  -23.2860   -9.6890 C.2     1  UNL1        0.2520
      9  O         21.6340  -24.0670   -8.8900 O.2     1  UNL1       -0.2680
     10  N         21.8510  -22.5790  -10.6270 N.am    1  UNL1       -0.3490
     11  H         21.3560  -22.1390  -11.3910 H       1  UNL1        0.1630
     12  C         23.2850  -22.7640  -10.7820 C.3     1  UNL1        0.1140
     13  C         24.0780  -21.8430   -9.8490 C.3     1  UNL1        0.0370
     14  C         23.6630  -22.5680  -12.2430 C.2     1  UNL1       -0.0360
     15  C         23.0120  -21.5810  -13.0030 C.2     1  UNL1        0.0120
     16  C         23.3600  -21.3650  -14.3370 C.2     1  UNL1        0.0430
     17  C         24.3650  -22.1300  -14.9160 C.2     1  UNL1        0.1160
     18  F         24.7000  -21.9210  -16.1950 F       1  UNL1       -0.2060
     19  C         25.0310  -23.1050  -14.1840 C.2     1  UNL1        0.0430
     20  C         24.6850  -23.3210  -12.8480 C.2     1  UNL1        0.0120
     21  S         16.5930  -24.3200   -7.3600 S.O2    1  UNL1        0.2460
     22  O         15.5240  -25.0770   -7.9710 O.2     1  UNL1       -0.2060
     23  O         17.5530  -24.9440   -6.4730 O.2     1  UNL1       -0.2060
     24  N         15.9700  -22.9700   -6.5200 N.pl3   1  UNL1       -0.1810
     25  H         15.7730  -22.2490   -7.2180 H       1  UNL1        0.1460
     26  C         16.8540  -22.4620   -5.5100 C.2     1  UNL1        0.0230
     27  C         16.5840  -22.6970   -4.1620 C.2     1  UNL1        0.0240
     28  C         17.4200  -22.1540   -3.1860 C.2     1  UNL1        0.0020
     29  C         18.5150  -21.3720   -3.5580 C.2     1  UNL1        0.0070
     30  C         18.7860  -21.1250   -4.9090 C.2     1  UNL1       -0.0600
     31  C         19.9280  -20.2400   -5.3080 C.3     1  UNL1        0.0480
     32  C         17.9350  -21.6620   -5.8840 C.2     1  UNL1        0.0310
@<TRIPOS>BOND
     1    18    17    1
     2    17    16    2
     3    17    19    1
     4    16    15    1
     5    19    20    2
     6    15    14    2
     7    20    14    1
     8    14    12    1
     9    11    10    1
    10    12    10    1
    11    12    13    1
    12     4     5    2
    13     4     3    1
    14     5     6    1
    15    10     8   am
    16     3     8    1
    17     3     2    2
    18     8     9    2
    19     7     6    1
    20     6     1    2
    21     2     1    1
    22     1    21    1
    23    22    21    2
    24    21    24    1
    25    21    23    2
    26    25    24    1
    27    24    26    1
    28    32    26    2
    29    32    30    1
    30    26    27    1
    31    31    30    1
    32    30    29    2
    33    27    28    2
    34    29    28    1
