@<TRIPOS>MOLECULE
38575_out_ligand_01.pdbqt
 36 39 0 0 0
SMALL
GASTEIGER

@<TRIPOS>ATOM
      1  C         20.9590  -22.6090  -10.7780 C.2     1  UNL1        0.0340
      2  C         19.9040  -21.8090  -11.2260 C.2     1  UNL1        0.0310
      3  C         18.6230  -21.9570  -10.6850 C.2     1  UNL1        0.0270
      4  C         18.4010  -22.8990   -9.6780 C.2     1  UNL1        0.0800
      5  C         19.4360  -23.7320   -9.2480 C.2     1  UNL1        0.0270
      6  C         20.7110  -23.5830   -9.8000 C.2     1  UNL1        0.0310
      7  N         22.2780  -22.5020  -11.2530 N.am    1  UNL1       -0.3250
      8  C         23.3330  -21.8080  -10.6830 C.2     1  UNL1        0.2510
      9  O         23.2980  -21.1290   -9.6610 O.2     1  UNL1       -0.2700
     10  H         22.5350  -23.1020  -12.0300 H       1  UNL1        0.1690
     11  C         24.6400  -21.9480  -11.4900 C.3     1  UNL1        0.2200
     12  C         25.8080  -21.3310  -10.7090 C.3     1  UNL1        0.0380
     13  C         26.3890  -20.1000  -11.3880 C.3     1  UNL1        0.0080
     14  O         24.5580  -21.2280  -12.7290 O.2     1  UNL1       -0.3370
     15  C         24.6800  -21.9370  -13.8960 C.2     1  UNL1        0.0700
     16  C         25.1230  -23.2580  -14.0160 C.2     1  UNL1        0.0400
     17  C         25.1760  -23.8650  -15.2790 C.2     1  UNL1        0.0450
     18  C         24.7900  -23.1520  -16.4090 C.2     1  UNL1        0.1160
     19  F         24.8480  -23.7360  -17.6130 F       1  UNL1       -0.2060
     20  C         24.3410  -21.8420  -16.3040 C.2     1  UNL1        0.0450
     21  C         24.2850  -21.2360  -15.0440 C.2     1  UNL1        0.0400
     22  S         16.7800  -23.0650   -8.9670 S.O2    1  UNL1        0.2630
     23  O         16.3500  -21.7570   -8.5240 O.2     1  UNL1       -0.2000
     24  O         15.9780  -23.8400   -9.8920 O.2     1  UNL1       -0.2000
     25  N         17.0290  -24.0610   -7.6290 N.pl3   1  UNL1       -0.2800
     26  H         17.8370  -24.6720   -7.7310 H       1  UNL1        0.1790
     27  C         16.7180  -23.5670   -6.3220 C.2     1  UNL1        0.0530
     28  C         15.5450  -24.0240   -5.7150 C.2     1  UNL1        0.0310
     29  C         15.1690  -23.5420   -4.4670 C.2     1  UNL1        0.0030
     30  C         15.9610  -22.5920   -3.8240 C.2     1  UNL1        0.0120
     31  C         17.1390  -22.1090   -4.4190 C.2     1  UNL1       -0.0240
     32  C         17.9130  -21.1340   -3.7660 C.2     1  UNL1        0.0120
     33  C         17.5420  -22.5980   -5.6870 C.2     1  UNL1        0.0010
     34  C         19.0750  -20.6290   -4.3480 C.2     1  UNL1        0.0010
     35  C         19.4850  -21.1010   -5.5860 C.2     1  UNL1        0.0010
     36  C         18.7330  -22.0750   -6.2460 C.2     1  UNL1        0.0140
@<TRIPOS>BOND
     1    19    18    1
     2    18    20    2
     3    18    17    1
     4    20    21    1
     5    17    16    2
     6    21    15    2
     7    16    15    1
     8    15    14    1
     9    14    11    1
    10    10     7    1
    11    11    12    1
    12    11     8    1
    13    13    12    1
    14     7     1    1
    15     7     8   am
    16     2     1    2
    17     2     3    1
    18     1     6    1
    19     3     4    2
    20     8     9    2
    21    24    22    2
    22     6     5    2
    23     4     5    1
    24     4    22    1
    25    22    23    2
    26    22    25    1
    27    26    25    1
    28    25    27    1
    29    27    28    2
    30    27    33    1
    31    36    33    1
    32    36    35    2
    33    28    29    1
    34    33    31    2
    35    35    34    1
    36    29    30    2
    37    31    30    1
    38    31    32    1
    39    34    32    2
