@<TRIPOS>MOLECULE
38573_out_ligand_01.pdbqt
 31 33 0 0 0
SMALL
GASTEIGER

@<TRIPOS>ATOM
      1  C         20.1810  -22.5530  -10.6500 C.2     1  UNL1        0.0330
      2  C         19.6690  -21.4570  -11.3570 C.2     1  UNL1        0.0170
      3  C         20.4800  -20.7700  -12.2620 C.2     1  UNL1        0.0030
      4  C         21.7980  -21.1790  -12.4680 C.2     1  UNL1        0.0240
      5  C         22.3050  -22.2800  -11.7780 C.2     1  UNL1        0.0230
      6  C         21.4980  -22.9770  -10.8800 C.2     1  UNL1        0.0410
      7  C         19.3590  -23.3130   -9.6700 C.2     1  UNL1        0.2520
      8  N         18.1100  -22.8050   -9.3960 N.am    1  UNL1       -0.3490
      9  H         17.8550  -21.8870   -9.7340 H       1  UNL1        0.1630
     10  O         19.8190  -24.3110   -9.1300 O.2     1  UNL1       -0.2680
     11  C         17.2320  -23.4090   -8.4050 C.3     1  UNL1        0.1140
     12  C         15.7620  -23.2710   -8.8200 C.3     1  UNL1        0.0370
     13  C         17.5560  -22.8140   -7.0370 C.2     1  UNL1       -0.0300
     14  C         18.6390  -21.9300   -6.8800 C.2     1  UNL1        0.0100
     15  C         18.9730  -21.4030   -5.6310 C.2     1  UNL1        0.0070
     16  C         18.2410  -21.7550   -4.4970 C.2     1  UNL1       -0.0610
     17  C         18.6000  -21.1760   -3.1610 C.3     1  UNL1        0.0480
     18  C         17.1700  -22.6450   -4.6340 C.2     1  UNL1        0.0140
     19  C         16.8270  -23.1910   -5.8840 C.2     1  UNL1       -0.0530
     20  C         15.6720  -24.1570   -5.9520 C.3     1  UNL1        0.0490
     21  N         23.6510  -22.7140  -12.0160 N.pl3   1  UNL1       -0.1810
     22  H         23.9540  -22.4870  -12.9640 H       1  UNL1        0.1460
     23  S         24.8090  -22.0530  -10.9480 S.O2    1  UNL1        0.2450
     24  O         24.0770  -21.3040   -9.9480 O.2     1  UNL1       -0.2060
     25  O         25.7900  -23.0560  -10.5950 O.2     1  UNL1       -0.2060
     26  C         25.6060  -20.8900  -12.0300 C.2     1  UNL1        0.0740
     27  C         25.3660  -20.9700  -13.4060 C.2     1  UNL1        0.0250
     28  C         25.9900  -20.0660  -14.2650 C.2     1  UNL1        0.0020
     29  C         26.8510  -19.0930  -13.7480 C.2     1  UNL1        0.0000
     30  C         27.0950  -19.0250  -12.3740 C.2     1  UNL1        0.0020
     31  C         26.4760  -19.9270  -11.5080 C.2     1  UNL1        0.0250
@<TRIPOS>BOND
     1    28    29    2
     2    28    27    1
     3    29    30    1
     4    27    26    2
     5    22    21    1
     6     4     3    2
     7     4     5    1
     8    30    31    2
     9     3     2    1
    10    26    31    1
    11    26    23    1
    12    21     5    1
    13    21    23    1
    14     5     6    2
    15     2     1    2
    16    23    25    2
    17    23    24    2
    18     6     1    1
    19     1     7    1
    20     9     8    1
    21     7     8   am
    22     7    10    2
    23     8    11    1
    24    12    11    1
    25    11    13    1
    26    13    14    2
    27    13    19    1
    28    14    15    1
    29    20    19    1
    30    19    18    2
    31    15    16    2
    32    18    16    1
    33    16    17    1
