@<TRIPOS>MOLECULE
3857_out_ligand_01.pdbqt
 39 42 0 0 0
SMALL
GASTEIGER

@<TRIPOS>ATOM
      1  C         19.9560  -21.9510  -11.0070 C.2     1  UNL1        0.0340
      2  C         18.7260  -21.3870  -11.3760 C.2     1  UNL1        0.0310
      3  C         17.5400  -21.7850  -10.7510 C.2     1  UNL1        0.0270
      4  C         17.5860  -22.7560   -9.7520 C.2     1  UNL1        0.0800
      5  C         18.8050  -23.3070   -9.3540 C.2     1  UNL1        0.0270
      6  C         19.9860  -22.9080   -9.9900 C.2     1  UNL1        0.0310
      7  N         21.0950  -21.4940  -11.6970 N.am    1  UNL1       -0.3260
      8  C         22.3660  -22.0430  -11.6940 C.2     1  UNL1        0.2410
      9  O         22.7180  -23.0490  -11.0820 O.2     1  UNL1       -0.2710
     10  H         20.9540  -20.6770  -12.2940 H       1  UNL1        0.1690
     11  C         23.3730  -21.2530  -12.5190 C.3     1  UNL1        0.2440
     12  N         24.6730  -21.9280  -12.6950 N.pl3   1  UNL1       -0.2670
     13  C         24.8570  -22.7830  -13.8290 C.2     1  UNL1        0.0510
     14  C         25.0850  -24.1470  -13.6060 C.2     1  UNL1        0.0310
     15  C         25.3150  -25.0050  -14.6740 C.2     1  UNL1        0.0030
     16  C         25.3290  -24.5040  -15.9730 C.2     1  UNL1        0.0070
     17  C         25.1160  -23.1390  -16.2200 C.2     1  UNL1       -0.0540
     18  C         25.1630  -22.6460  -17.6430 C.3     1  UNL1        0.0490
     19  C         24.8800  -22.2580  -15.1370 C.2     1  UNL1       -0.0290
     20  C         24.6590  -20.7930  -15.4090 C.3     1  UNL1        0.0510
     21  S         26.0220  -21.3760  -11.8550 S.O2    1  UNL1        0.2290
     22  C         26.4400  -22.8150  -10.8940 C.3     1  UNL1        0.1860
     23  O         27.1200  -21.1260  -12.7590 O.2     1  UNL1       -0.2060
     24  O         25.5590  -20.3490  -10.9390 O.2     1  UNL1       -0.2060
     25  S         16.0870  -23.2610   -8.9460 S.O2    1  UNL1        0.2630
     26  O         15.3760  -22.0830   -8.5030 O.2     1  UNL1       -0.2000
     27  O         15.4450  -24.2370   -9.8040 O.2     1  UNL1       -0.2000
     28  N         16.6610  -24.1310   -7.6170 N.pl3   1  UNL1       -0.2800
     29  H         16.5120  -25.1310   -7.7390 H       1  UNL1        0.1790
     30  C         16.4350  -23.5910   -6.3120 C.2     1  UNL1        0.0530
     31  C         15.3130  -24.0450   -5.6140 C.2     1  UNL1        0.0310
     32  C         15.0500  -23.5710   -4.3330 C.2     1  UNL1        0.0030
     33  C         15.9080  -22.6440   -3.7470 C.2     1  UNL1        0.0120
     34  C         17.0440  -22.1770   -4.4290 C.2     1  UNL1       -0.0240
     35  C         17.9010  -21.2440   -3.8240 C.2     1  UNL1        0.0120
     36  C         17.3290  -22.6550   -5.7330 C.2     1  UNL1        0.0010
     37  C         19.0380  -20.7800   -4.4840 C.2     1  UNL1        0.0010
     38  C         19.3350  -21.2440   -5.7590 C.2     1  UNL1        0.0010
     39  C         18.4910  -22.1700   -6.3750 C.2     1  UNL1        0.0140
@<TRIPOS>BOND
     1    18    17    1
     2    17    16    2
     3    17    19    1
     4    16    15    1
     5    20    19    1
     6    19    13    2
     7    15    14    2
     8    13    14    1
     9    13    12    1
    10    23    21    2
    11    12    11    1
    12    12    21    1
    13    11     8    1
    14    10     7    1
    15    21    24    2
    16    21    22    1
    17     7     8   am
    18     7     1    1
    19     8     9    2
    20     2     1    2
    21     2     3    1
    22     1     6    1
    23     3     4    2
    24     6     5    2
    25    27    25    2
    26     4     5    1
    27     4    25    1
    28    25    26    2
    29    25    28    1
    30    29    28    1
    31    28    30    1
    32    39    38    2
    33    39    36    1
    34    30    36    2
    35    30    31    1
    36    38    37    1
    37    36    34    1
    38    31    32    2
    39    37    35    2
    40    34    35    1
    41    34    33    2
    42    32    33    1
