@<TRIPOS>MOLECULE
38588_out_ligand_01.pdbqt
 34 36 0 0 0
SMALL
GASTEIGER

@<TRIPOS>ATOM
      1  C         21.1540  -22.9100  -10.2310 C.2     1  UNL1        0.0340
      2  C         21.0040  -23.8140   -9.1700 C.2     1  UNL1        0.0310
      3  C         19.7600  -23.9980   -8.5580 C.2     1  UNL1        0.0270
      4  C         18.6600  -23.2670   -9.0080 C.2     1  UNL1        0.0800
      5  C         18.7870  -22.3930  -10.0900 C.2     1  UNL1        0.0270
      6  C         20.0360  -22.2090  -10.6910 C.2     1  UNL1        0.0310
      7  N         22.4430  -22.7740  -10.7790 N.am    1  UNL1       -0.3250
      8  C         23.4330  -21.8800  -10.4080 C.2     1  UNL1        0.2510
      9  O         23.3640  -21.0380   -9.5180 O.2     1  UNL1       -0.2700
     10  H         22.7340  -23.4780  -11.4510 H       1  UNL1        0.1690
     11  C         24.7040  -22.0090  -11.2740 C.3     1  UNL1        0.2200
     12  C         25.8130  -21.1050  -10.7160 C.3     1  UNL1        0.0380
     13  C         26.3550  -20.1200  -11.7390 C.3     1  UNL1        0.0080
     14  O         24.4660  -21.5660  -12.6180 O.2     1  UNL1       -0.3370
     15  C         24.6730  -22.4510  -13.6400 C.2     1  UNL1        0.0700
     16  C         25.1680  -23.6940  -13.2370 C.2     1  UNL1        0.0370
     17  C         25.4360  -24.6900  -14.1730 C.2     1  UNL1        0.0030
     18  C         25.2190  -24.4470  -15.5280 C.2     1  UNL1        0.0070
     19  C         24.7400  -23.2020  -15.9520 C.2     1  UNL1       -0.0590
     20  C         24.4860  -22.9350  -17.4070 C.3     1  UNL1        0.0480
     21  C         24.4610  -22.2100  -14.9980 C.2     1  UNL1        0.0430
     22  S         17.0670  -23.5040   -8.2530 S.O2    1  UNL1        0.2630
     23  O         16.0950  -23.6240   -9.3170 O.2     1  UNL1       -0.2000
     24  O         17.2130  -24.5550   -7.2650 O.2     1  UNL1       -0.2000
     25  N         16.8010  -22.0910   -7.3690 N.pl3   1  UNL1       -0.2800
     26  H         16.1050  -21.4890   -7.8020 H       1  UNL1        0.1790
     27  C         16.8850  -22.1030   -5.9430 C.2     1  UNL1        0.0540
     28  C         18.1080  -21.8130   -5.3070 C.2     1  UNL1       -0.0340
     29  C         19.3420  -21.3700   -6.0470 C.3     1  UNL1        0.0500
     30  C         18.2000  -21.9390   -3.9110 C.2     1  UNL1        0.0090
     31  C         17.0950  -22.3110   -3.1540 C.2     1  UNL1        0.0010
     32  C         15.8770  -22.5510   -3.7820 C.2     1  UNL1        0.0090
     33  C         15.7490  -22.4400   -5.1770 C.2     1  UNL1       -0.0340
     34  C         14.3960  -22.7340   -5.7630 C.3     1  UNL1        0.0500
@<TRIPOS>BOND
     1    20    19    1
     2    19    18    2
     3    19    21    1
     4    18    17    1
     5    21    15    2
     6    17    16    2
     7    15    16    1
     8    15    14    1
     9    14    11    1
    10    13    12    1
    11    10     7    1
    12    11    12    1
    13    11     8    1
    14     7     8   am
    15     7     1    1
    16     6     1    2
    17     6     5    1
    18     8     9    2
    19     1     2    1
    20     5     4    2
    21    23    22    2
    22     2     3    2
    23     4     3    1
    24     4    22    1
    25    22    25    1
    26    22    24    2
    27    26    25    1
    28    25    27    1
    29    29    28    1
    30    27    28    2
    31    27    33    1
    32    34    33    1
    33    28    30    1
    34    33    32    2
    35    30    31    2
    36    32    31    1
