@<TRIPOS>MOLECULE
38584_out_ligand_01.pdbqt
 39 43 0 0 0
SMALL
GASTEIGER

@<TRIPOS>ATOM
      1  N         21.4580  -22.6430  -10.4410 N.am    1  UNL1       -0.3230
      2  C         22.7270  -23.1460  -10.2220 C.2     1  UNL1        0.2560
      3  O         23.0670  -23.9150   -9.3300 O.2     1  UNL1       -0.2670
      4  H         21.3730  -21.8950  -11.1170 H       1  UNL1        0.1690
      5  C         20.2720  -22.9920   -9.7630 C.2     1  UNL1        0.0350
      6  C         18.9990  -22.5660  -10.1510 C.2     1  UNL1        0.0310
      7  C         17.8670  -22.9410   -9.4180 C.2     1  UNL1        0.0270
      8  C         18.0110  -23.7610   -8.2970 C.2     1  UNL1        0.0800
      9  C         19.2760  -24.1810   -7.8860 C.2     1  UNL1        0.0270
     10  C         20.4020  -23.7960   -8.6200 C.2     1  UNL1        0.0310
     11  S         16.5820  -24.2210   -7.3500 S.O2    1  UNL1        0.2630
     12  O         16.9770  -25.1840   -6.3460 O.2     1  UNL1       -0.2000
     13  O         15.5240  -24.5240   -8.2930 O.2     1  UNL1       -0.2000
     14  N         16.1340  -22.7660   -6.6140 N.pl3   1  UNL1       -0.2800
     15  H         15.1210  -22.6940   -6.5400 H       1  UNL1        0.1790
     16  C         16.9100  -22.2980   -5.5150 C.2     1  UNL1        0.0480
     17  C         18.0380  -21.5200   -5.7830 C.2     1  UNL1        0.0300
     18  C         18.8510  -21.0760   -4.7400 C.2     1  UNL1        0.0020
     19  C         18.5400  -21.4160   -3.4270 C.2     1  UNL1        0.0010
     20  C         17.4150  -22.1960   -3.1550 C.2     1  UNL1        0.0090
     21  C         16.5810  -22.6430   -4.1940 C.2     1  UNL1       -0.0350
     22  C         15.3980  -23.5080   -3.8630 C.3     1  UNL1        0.0500
     23  C         23.7740  -22.6420  -11.1560 C.2     1  UNL1        0.0320
     24  C         23.3690  -21.9430  -12.2980 C.2     1  UNL1        0.0170
     25  C         24.3190  -21.4450  -13.1940 C.2     1  UNL1        0.0100
     26  C         25.6890  -21.6210  -12.9510 C.2     1  UNL1       -0.0400
     27  C         26.0870  -22.3220  -11.8010 C.2     1  UNL1        0.0100
     28  C         25.1390  -22.8200  -10.9020 C.2     1  UNL1        0.0170
     29  C         26.7120  -21.0930  -13.9390 C.3     1  UNL1        0.1610
     30  N         26.1040  -20.8620  -15.2580 N.pl3   1  UNL1       -0.3760
     31  C         25.9950  -22.0660  -16.0930 C.3     1  UNL1        0.1230
     32  C         25.1080  -21.8210  -17.2990 C.3     1  UNL1        0.0240
     33  C         25.7310  -20.7270  -18.1450 C.3     1  UNL1        0.0420
     34  C         26.0490  -19.5160  -17.3040 C.2     1  UNL1       -0.0320
     35  C         26.1920  -18.2790  -17.9600 C.2     1  UNL1        0.0090
     36  C         26.2260  -19.6270  -15.9060 C.2     1  UNL1        0.0360
     37  C         26.4600  -17.1220  -17.2380 C.2     1  UNL1        0.0010
     38  C         26.5760  -17.1950  -15.8580 C.2     1  UNL1        0.0020
     39  C         26.4520  -18.4290  -15.2060 C.2     1  UNL1        0.0300
@<TRIPOS>BOND
     1    33    34    1
     2    33    32    1
     3    35    34    2
     4    35    37    1
     5    34    36    1
     6    32    31    1
     7    37    38    2
     8    31    30    1
     9    36    30    1
    10    36    39    2
    11    38    39    1
    12    30    29    1
    13    29    26    1
    14    25    26    2
    15    25    24    1
    16    26    27    1
    17    24    23    2
    18    27    28    2
    19    23    28    1
    20    23     2    1
    21     4     1    1
    22     1     2   am
    23     1     5    1
    24     2     3    2
    25     6     5    2
    26     6     7    1
    27     5    10    1
    28     7     8    2
    29    10     9    2
    30     8     9    1
    31     8    11    1
    32    13    11    2
    33    11    14    1
    34    11    12    2
    35    14    15    1
    36    14    16    1
    37    17    16    2
    38    17    18    1
    39    16    21    1
    40    18    19    2
    41    21    22    1
    42    21    20    2
    43    19    20    1
