@<TRIPOS>MOLECULE
38600_out_ligand_01.pdbqt
 41 44 0 0 0
SMALL
GASTEIGER

@<TRIPOS>ATOM
      1  N         21.8940  -22.2550  -10.5110 N.am    1  UNL1       -0.3230
      2  C         22.2990  -22.5960   -9.2350 C.2     1  UNL1        0.2560
      3  O         23.4320  -22.8300   -8.8360 O.2     1  UNL1       -0.2670
      4  H         20.9280  -21.9700  -10.6190 H       1  UNL1        0.1690
      5  C         22.6760  -22.2510  -11.6820 C.2     1  UNL1        0.0350
      6  C         23.7780  -23.0850  -11.8840 C.2     1  UNL1        0.0310
      7  C         24.4770  -23.0590  -13.0950 C.2     1  UNL1        0.0270
      8  C         24.0800  -22.1820  -14.1060 C.2     1  UNL1        0.0750
      9  C         22.9790  -21.3440  -13.9210 C.2     1  UNL1        0.0270
     10  C         22.2830  -21.3800  -12.7080 C.2     1  UNL1        0.0310
     11  S         24.9030  -22.2050  -15.6800 S.O2    1  UNL1        0.2480
     12  O         24.7400  -23.5100  -16.2850 O.2     1  UNL1       -0.2050
     13  O         24.4550  -21.0200  -16.3880 O.2     1  UNL1       -0.2050
     14  N         26.5040  -21.9360  -15.3160 N.pl3   1  UNL1       -0.1480
     15  H         26.8880  -22.6660  -14.7270 H       1  UNL1        0.1490
     16  C         26.8060  -20.6690  -14.8310 C.cat   1  UNL1        0.2160
     17  N         26.8450  -20.4800  -13.5130 N.2     1  UNL1       -0.2230
     18  C         27.0170  -19.2070  -13.1070 C.2     1  UNL1        0.0360
     19  C         27.1210  -18.1560  -13.9990 C.2     1  UNL1        0.0530
     20  C         27.0730  -18.9570  -11.6300 C.3     1  UNL1        0.0700
     21  C         27.0430  -18.4710  -15.3450 C.2     1  UNL1        0.0360
     22  C         27.1210  -17.3940  -16.3840 C.3     1  UNL1        0.0700
     23  N         26.8490  -19.7300  -15.7800 N.2     1  UNL1       -0.2230
     24  C         21.1880  -22.6250   -8.2520 C.2     1  UNL1        0.0400
     25  C         21.1020  -21.5390   -7.3710 C.2     1  UNL1        0.0180
     26  C         20.0410  -21.4580   -6.4770 C.2     1  UNL1        0.0030
     27  C         19.0640  -22.4500   -6.4780 C.2     1  UNL1        0.0310
     28  C         19.1560  -23.5480   -7.3450 C.2     1  UNL1        0.0490
     29  C         20.2470  -23.6770   -8.2220 C.2     1  UNL1       -0.0190
     30  C         20.4070  -24.8730   -9.1230 C.3     1  UNL1        0.0520
     31  N         18.0740  -24.4740   -7.3720 N.pl3   1  UNL1       -0.2800
     32  H         18.2470  -25.4420   -7.6350 H       1  UNL1        0.1790
     33  S         16.5430  -23.9410   -7.8570 S.O2    1  UNL1        0.2630
     34  O         16.7720  -22.8040   -8.7220 O.2     1  UNL1       -0.2000
     35  O         15.7590  -25.0740   -8.2980 O.2     1  UNL1       -0.2000
     36  C         15.8270  -23.3310   -6.3450 C.2     1  UNL1        0.0790
     37  C         14.9320  -22.2550   -6.3850 C.2     1  UNL1        0.0250
     38  C         14.3800  -21.7750   -5.1970 C.2     1  UNL1        0.0020
     39  C         14.7310  -22.3590   -3.9790 C.2     1  UNL1        0.0000
     40  C         15.6390  -23.4200   -3.9420 C.2     1  UNL1        0.0020
     41  C         16.1950  -23.9070   -5.1260 C.2     1  UNL1        0.0250
@<TRIPOS>BOND
     1    13    11    2
     2    22    21    1
     3    12    11    2
     4    23    21    2
     5    23    16    1
     6    11    14    1
     7    11     8    1
     8    21    19    1
     9    14    16    1
    10    14    15    1
    11    16    17    2
    12     8     9    2
    13     8     7    1
    14    19    18    2
    15     9    10    1
    16    17    18    1
    17    18    20    1
    18     7     6    2
    19    10     5    2
    20     6     5    1
    21     5     1    1
    22     4     1    1
    23     1     2   am
    24     2     3    2
    25     2    24    1
    26    30    29    1
    27    34    33    2
    28    35    33    2
    29    24    29    2
    30    24    25    1
    31    29    28    1
    32    33    31    1
    33    33    36    1
    34    32    31    1
    35    31    28    1
    36    25    26    2
    37    28    27    2
    38    27    26    1
    39    37    36    2
    40    37    38    1
    41    36    41    1
    42    38    39    2
    43    41    40    2
    44    39    40    1
