@<TRIPOS>MOLECULE
38601_out_ligand_01.pdbqt
 40 43 0 0 0
SMALL
GASTEIGER

@<TRIPOS>ATOM
      1  C         21.3030  -22.3080  -10.9240 C.2     1  UNL1        0.2560
      2  O         20.2560  -21.8270  -11.3410 O.2     1  UNL1       -0.2670
      3  N         21.5470  -22.8040   -9.6560 N.am    1  UNL1       -0.3230
      4  H         22.5080  -23.0290   -9.4310 H       1  UNL1        0.1690
      5  C         22.4770  -22.3390  -11.8410 C.2     1  UNL1        0.0320
      6  C         22.4910  -21.4690  -12.9390 C.2     1  UNL1        0.0190
      7  C         23.5800  -21.4610  -13.8140 C.2     1  UNL1        0.0250
      8  C         24.6550  -22.3260  -13.5960 C.2     1  UNL1        0.0250
      9  C         24.6290  -23.2190  -12.5210 C.2     1  UNL1        0.0250
     10  C         23.5420  -23.2280  -11.6430 C.2     1  UNL1        0.0190
     11  N         25.7940  -22.3720  -14.4740 N.pl3   1  UNL1       -0.1760
     12  C         26.8010  -23.3980  -14.1080 C.3     1  UNL1        0.1360
     13  S         25.3650  -22.3370  -16.1410 S.O2    1  UNL1        0.2470
     14  O         23.9310  -22.5020  -16.2620 O.2     1  UNL1       -0.2050
     15  O         26.2820  -23.2020  -16.8580 O.2     1  UNL1       -0.2050
     16  C         25.7280  -20.6550  -16.5890 C.2     1  UNL1        0.0750
     17  C         25.3160  -20.1500  -17.8250 C.2     1  UNL1        0.0250
     18  C         25.6030  -18.8240  -18.1530 C.2     1  UNL1        0.0080
     19  C         26.3000  -18.0030  -17.2540 C.2     1  UNL1       -0.0620
     20  C         26.5700  -16.5660  -17.5970 C.3     1  UNL1        0.0480
     21  C         26.6840  -18.5170  -16.0080 C.2     1  UNL1        0.0080
     22  C         26.4030  -19.8420  -15.6730 C.2     1  UNL1        0.0250
     23  C         20.6260  -22.9320   -8.5950 C.2     1  UNL1        0.0350
     24  C         20.5330  -21.8570   -7.6980 C.2     1  UNL1        0.0310
     25  C         19.6420  -21.9000   -6.6220 C.2     1  UNL1        0.0270
     26  C         18.8340  -23.0240   -6.4440 C.2     1  UNL1        0.0800
     27  C         18.9310  -24.1100   -7.3150 C.2     1  UNL1        0.0270
     28  C         19.8240  -24.0580   -8.3910 C.2     1  UNL1        0.0310
     29  S         17.7150  -23.0800   -5.0670 S.O2    1  UNL1        0.2760
     30  O         17.6040  -24.4410   -4.5860 O.2     1  UNL1       -0.2000
     31  O         18.1330  -22.0240   -4.1620 O.2     1  UNL1       -0.2000
     32  N         16.2680  -22.5790   -5.7080 N.pl3   1  UNL1       -0.1090
     33  H         15.4880  -22.6440   -5.0640 H       1  UNL1        0.1980
     34  C         15.9550  -23.0050   -6.9930 C.cat   1  UNL1        0.7360
     35  N         15.5210  -24.2520   -7.1760 N.2     1  UNL1       -0.0740
     36  C         15.3980  -24.6390   -8.4570 C.2     1  UNL1        0.1380
     37  C         15.7340  -23.8400   -9.5260 C.2     1  UNL1        0.0470
     38  C         16.2240  -22.5850   -9.2170 C.2     1  UNL1        0.0510
     39  C         16.6350  -21.6460  -10.3100 C.3     1  UNL1        0.0710
     40  N         16.3640  -22.1580   -7.9440 N.2     1  UNL1       -0.0670
@<TRIPOS>BOND
     1    18    17    1
     2    18    19    2
     3    17    16    2
     4    20    19    1
     5    19    21    1
     6    15    13    2
     7    16    13    1
     8    16    22    1
     9    14    13    2
    10    13    11    1
    11    21    22    2
    12    11    12    1
    13    11     8    1
    14     7     8    2
    15     7     6    1
    16     8     9    1
    17     6     5    2
    18     9    10    2
    19     5    10    1
    20     5     1    1
    21     2     1    2
    22     1     3   am
    23    39    38    1
    24     3     4    1
    25     3    23    1
    26    37    38    1
    27    37    36    2
    28    38    40    2
    29    23    28    2
    30    23    24    1
    31    36    35    1
    32    28    27    1
    33    40    34    1
    34    24    25    2
    35    27    26    2
    36    35    34    2
    37    34    32    1
    38    25    26    1
    39    26    29    1
    40    32    29    1
    41    32    33    1
    42    29    30    2
    43    29    31    2
