@<TRIPOS>MOLECULE
38625_out_ligand_01.pdbqt
 39 43 0 0 0
SMALL
GASTEIGER

@<TRIPOS>ATOM
      1  O         20.4050  -22.2080  -11.0470 O.2     1  UNL1       -0.2670
      2  C         21.4620  -22.1690  -10.4270 C.2     1  UNL1        0.2560
      3  N         21.6240  -22.2950   -9.0590 N.am    1  UNL1       -0.3230
      4  H         22.5480  -22.1130   -8.6890 H       1  UNL1        0.1690
      5  C         20.6240  -22.5480   -8.0970 C.2     1  UNL1        0.0350
      6  C         20.3910  -21.5490   -7.1400 C.2     1  UNL1        0.0310
      7  C         19.4200  -21.7180   -6.1500 C.2     1  UNL1        0.0270
      8  C         18.6780  -22.9000   -6.1110 C.2     1  UNL1        0.0800
      9  C         18.8890  -23.8990   -7.0620 C.2     1  UNL1        0.0270
     10  C         19.8660  -23.7220   -8.0480 C.2     1  UNL1        0.0310
     11  S         17.4250  -23.1060   -4.8720 S.O2    1  UNL1        0.2630
     12  O         17.2920  -24.5270   -4.6270 O.2     1  UNL1       -0.2000
     13  O         17.6760  -22.1830   -3.7860 O.2     1  UNL1       -0.2000
     14  N         16.0150  -22.6460   -5.6900 N.pl3   1  UNL1       -0.2810
     15  H         15.7520  -21.6970   -5.4260 H       1  UNL1        0.1790
     16  C         15.9000  -23.0010   -7.0630 C.2     1  UNL1        0.0440
     17  C         15.4310  -24.2680   -7.4090 C.2     1  UNL1        0.0300
     18  C         15.3500  -24.6370   -8.7530 C.2     1  UNL1        0.0040
     19  C         15.7460  -23.7390   -9.7450 C.2     1  UNL1        0.0240
     20  C         16.2230  -22.4790   -9.3890 C.2     1  UNL1        0.0360
     21 CL         16.7150  -21.3760  -10.6150 Cl      1  UNL1       -0.0840
     22  C         16.3060  -22.1020   -8.0490 C.2     1  UNL1        0.0540
     23  C         22.7200  -21.9160  -11.1900 C.2     1  UNL1        0.0320
     24  C         22.6370  -21.7600  -12.5780 C.2     1  UNL1        0.0170
     25  C         23.7890  -21.5120  -13.3310 C.2     1  UNL1        0.0100
     26  C         25.0420  -21.4350  -12.7070 C.2     1  UNL1       -0.0400
     27  C         25.1180  -21.6030  -11.3150 C.2     1  UNL1        0.0100
     28  C         23.9680  -21.8530  -10.5600 C.2     1  UNL1        0.0170
     29  C         26.2840  -21.1280  -13.5230 C.3     1  UNL1        0.1610
     30  N         26.6390  -22.2540  -14.4040 N.pl3   1  UNL1       -0.3760
     31  C         26.9170  -23.5330  -13.7340 C.3     1  UNL1        0.1230
     32  C         25.6660  -24.3930  -13.6520 C.3     1  UNL1        0.0240
     33  C         25.2040  -24.7290  -15.0620 C.3     1  UNL1        0.0420
     34  C         25.1860  -23.5110  -15.9480 C.2     1  UNL1       -0.0320
     35  C         24.4720  -23.5690  -17.1580 C.2     1  UNL1        0.0090
     36  C         25.8900  -22.3420  -15.5930 C.2     1  UNL1        0.0360
     37  C         24.4400  -22.4730  -18.0160 C.2     1  UNL1        0.0010
     38  C         25.1340  -21.3160  -17.6820 C.2     1  UNL1        0.0020
     39  C         25.8540  -21.2570  -16.4860 C.2     1  UNL1        0.0300
@<TRIPOS>BOND
     1    37    38    2
     2    37    35    1
     3    38    39    1
     4    35    34    2
     5    39    36    2
     6    34    36    1
     7    34    33    1
     8    36    30    1
     9    33    32    1
    10    30    31    1
    11    30    29    1
    12    31    32    1
    13    29    26    1
    14    25    26    2
    15    25    24    1
    16    26    27    1
    17    24    23    2
    18    27    28    2
    19    23    28    1
    20    23     2    1
    21     1     2    2
    22    21    20    1
    23     2     3   am
    24    19    20    2
    25    19    18    1
    26    20    22    1
    27     3     4    1
    28     3     5    1
    29    18    17    2
    30     5    10    2
    31     5     6    1
    32    22    16    2
    33    10     9    1
    34    17    16    1
    35     6     7    2
    36    16    14    1
    37     9     8    2
    38     7     8    1
    39     8    11    1
    40    14    15    1
    41    14    11    1
    42    11    12    2
    43    11    13    2
