@<TRIPOS>MOLECULE
38621_out_ligand_01.pdbqt
 34 38 0 0 0
SMALL
GASTEIGER

@<TRIPOS>ATOM
      1  C         22.5460  -21.8940  -10.5900 C.2     1  UNL1        0.0350
      2  C         23.8760  -21.7100  -10.1790 C.2     1  UNL1        0.0310
      3  C         24.9020  -21.5590  -11.1170 C.2     1  UNL1        0.0270
      4  C         24.5990  -21.5990  -12.4770 C.2     1  UNL1        0.0800
      5  C         23.2800  -21.7660  -12.9020 C.2     1  UNL1        0.0270
      6  C         22.2580  -21.9180  -11.9570 C.2     1  UNL1        0.0310
      7  N         21.5780  -22.0350   -9.5710 N.am    1  UNL1       -0.3210
      8  C         21.1660  -23.2020   -8.9410 C.2     1  UNL1        0.2800
      9  O         21.6340  -24.3130   -9.1720 O.2     1  UNL1       -0.2650
     10  H         21.1600  -21.1730   -9.2530 H       1  UNL1        0.1690
     11  C         20.1180  -22.9980   -7.9470 C.2     1  UNL1        0.1440
     12  C         18.8860  -23.5890   -7.7160 C.2     1  UNL1        0.0580
     13  C         18.3120  -22.9520   -6.5750 C.2     1  UNL1        0.0120
     14  C         19.2450  -22.0050   -6.1790 C.2     1  UNL1        0.0870
     15  C         17.1090  -23.0680   -5.8270 C.2     1  UNL1       -0.0130
     16  C         19.0880  -21.1500   -5.0930 C.2     1  UNL1        0.0390
     17  O         20.3280  -22.0320   -6.9970 O.2     1  UNL1       -0.3040
     18  C         17.9000  -21.2720   -4.3650 C.2     1  UNL1        0.0150
     19  C         16.9140  -22.2110   -4.7110 C.2     1  UNL1       -0.0250
     20  C         15.7260  -22.3260   -3.9730 C.2     1  UNL1        0.0120
     21  C         14.7520  -23.2640   -4.3270 C.2     1  UNL1        0.0010
     22  C         14.9480  -24.1040   -5.4210 C.2     1  UNL1        0.0010
     23  C         16.1190  -24.0110   -6.1720 C.2     1  UNL1        0.0130
     24  S         25.8830  -21.3780  -13.6850 S.O2    1  UNL1        0.2760
     25  O         26.4110  -22.6720  -14.0620 O.2     1  UNL1       -0.2000
     26  O         26.7680  -20.3600  -13.1550 O.2     1  UNL1       -0.2000
     27  N         25.1010  -20.6820  -14.9710 N.pl3   1  UNL1       -0.1090
     28  H         25.3720  -19.7230  -15.1490 H       1  UNL1        0.1980
     29  C         24.9550  -21.4380  -16.1250 C.cat   1  UNL1        0.7350
     30  N         25.8120  -21.2640  -17.1330 N.2     1  UNL1       -0.0740
     31  C         25.7000  -22.1420  -18.1470 C.2     1  UNL1        0.1380
     32  C         24.8020  -23.1830  -18.1530 C.2     1  UNL1        0.0400
     33  C         24.0090  -23.2890  -17.0330 C.2     1  UNL1        0.1380
     34  N         24.0790  -22.4390  -15.9920 N.2     1  UNL1       -0.0740
@<TRIPOS>BOND
     1    32    31    2
     2    32    33    1
     3    31    30    1
     4    30    29    2
     5    33    34    2
     6    29    34    1
     7    29    27    1
     8    28    27    1
     9    27    24    1
    10    25    24    2
    11    24    26    2
    12    24     4    1
    13     5     4    2
    14     5     6    1
    15     4     3    1
    16     6     1    2
    17     3     2    2
    18     1     2    1
    19     1     7    1
    20     7    10    1
    21     7     8   am
    22     9     8    2
    23     8    11    1
    24    11    12    2
    25    11    17    1
    26    12    13    1
    27    17    14    1
    28    13    14    2
    29    13    15    1
    30    14    16    1
    31    23    15    2
    32    23    22    1
    33    15    19    1
    34    22    21    2
    35    16    18    2
    36    19    18    1
    37    19    20    2
    38    21    20    1
