@<TRIPOS>MOLECULE
38620_out_ligand_01.pdbqt
 38 42 0 0 0
SMALL
GASTEIGER

@<TRIPOS>ATOM
      1  N         21.4450  -22.8680   -9.7320 N.am    1  UNL1       -0.3230
      2  C         21.2050  -22.2500  -10.9450 C.2     1  UNL1        0.2560
      3  O         20.1520  -21.7600  -11.3280 O.2     1  UNL1       -0.2670
      4  H         22.3240  -23.3610   -9.6410 H       1  UNL1        0.1690
      5  C         20.5470  -23.0010   -8.6520 C.2     1  UNL1        0.0350
      6  C         19.7780  -24.1430   -8.4200 C.2     1  UNL1        0.0310
      7  C         18.9070  -24.2050   -7.3270 C.2     1  UNL1        0.0270
      8  C         18.8230  -23.1250   -6.4470 C.2     1  UNL1        0.0800
      9  C         19.5650  -21.9660   -6.6800 C.2     1  UNL1        0.0270
     10  C         20.4220  -21.9080   -7.7830 C.2     1  UNL1        0.0310
     11  S         17.7180  -23.2010   -5.0530 S.O2    1  UNL1        0.2630
     12  O         17.6680  -24.5820   -4.6190 O.2     1  UNL1       -0.2000
     13  O         18.0800  -22.1440   -4.1350 O.2     1  UNL1       -0.2000
     14  N         16.2080  -22.8790   -5.7370 N.pl3   1  UNL1       -0.2810
     15  H         15.4470  -23.0720   -5.0900 H       1  UNL1        0.1790
     16  C         15.9900  -23.1480   -7.1160 C.2     1  UNL1        0.0430
     17  C         15.4550  -24.3780   -7.4910 C.2     1  UNL1        0.0300
     18  C         15.2800  -24.6760   -8.8410 C.2     1  UNL1        0.0030
     19  C         15.6350  -23.7420   -9.8160 C.2     1  UNL1        0.0070
     20  C         16.1560  -22.4970   -9.4490 C.2     1  UNL1       -0.0600
     21  C         16.5610  -21.4970  -10.4890 C.3     1  UNL1        0.0480
     22  C         16.3410  -22.2120   -8.0910 C.2     1  UNL1        0.0370
     23  C         22.3610  -22.2650  -11.8790 C.2     1  UNL1        0.0320
     24  C         22.3580  -21.5050  -13.0540 C.2     1  UNL1        0.0170
     25  C         23.4720  -21.5260  -13.8990 C.2     1  UNL1        0.0090
     26  C         24.5930  -22.3060  -13.5790 C.2     1  UNL1       -0.0450
     27  C         24.5740  -23.0790  -12.4080 C.2     1  UNL1        0.0090
     28  C         23.4630  -23.0650  -11.5660 C.2     1  UNL1        0.0170
     29  C         25.8160  -22.3180  -14.4740 C.3     1  UNL1        0.1340
     30  N         26.6520  -21.1490  -14.2140 N.pl3   1  UNL1       -0.2780
     31  C         26.5660  -20.5070  -12.8880 C.3     1  UNL1        0.1010
     32  C         27.0760  -19.0650  -13.0380 C.3     1  UNL1        0.0550
     33  C         26.7930  -18.8350  -14.4810 C.2     1  UNL1       -0.0360
     34  C         26.7820  -17.6360  -15.1720 C.2     1  UNL1        0.0090
     35  C         26.5630  -20.0640  -15.1110 C.2     1  UNL1        0.0170
     36  C         26.5240  -17.6710  -16.5420 C.2     1  UNL1        0.0010
     37  C         26.3050  -18.8930  -17.1900 C.2     1  UNL1        0.0020
     38  C         26.3300  -20.0960  -16.4770 C.2     1  UNL1        0.0240
@<TRIPOS>BOND
     1    37    36    2
     2    37    38    1
     3    36    34    1
     4    38    35    2
     5    34    33    2
     6    35    33    1
     7    35    30    1
     8    33    32    1
     9    29    30    1
    10    29    26    1
    11    30    31    1
    12    25    26    2
    13    25    24    1
    14    26    27    1
    15    24    23    2
    16    32    31    1
    17    27    28    2
    18    23    28    1
    19    23     2    1
    20     3     2    2
    21     2     1   am
    22    21    20    1
    23    19    20    2
    24    19    18    1
    25     1     4    1
    26     1     5    1
    27    20    22    1
    28    18    17    2
    29     5     6    2
    30     5    10    1
    31     6     7    1
    32    22    16    2
    33    10     9    2
    34    17    16    1
    35     7     8    2
    36    16    14    1
    37     9     8    1
    38     8    11    1
    39    14    15    1
    40    14    11    1
    41    11    12    2
    42    11    13    2
