@<TRIPOS>MOLECULE
38631_out_ligand_01.pdbqt
 35 38 0 0 0
SMALL
GASTEIGER

@<TRIPOS>ATOM
      1  C         18.0400  -23.2910   -8.7560 C.2     1  UNL1        0.0860
      2  C         18.7400  -22.5330   -9.7090 C.2     1  UNL1        0.0420
      3  C         20.1080  -22.7290   -9.9050 C.2     1  UNL1        0.0330
      4  C         20.7870  -23.6850   -9.1490 C.2     1  UNL1        0.0170
      5  C         20.0970  -24.4230   -8.1850 C.2     1  UNL1        0.0090
      6  C         18.7180  -24.2390   -7.9660 C.2     1  UNL1       -0.0390
      7  C         18.0620  -25.0690   -6.8990 C.3     1  UNL1        0.0500
      8  C         20.7920  -21.9420  -10.9660 C.2     1  UNL1        0.2560
      9  O         20.2140  -20.9570  -11.4070 O.2     1  UNL1       -0.2670
     10  N         22.0460  -22.4090  -11.3120 N.am    1  UNL1       -0.3230
     11  H         22.4270  -23.1570  -10.7500 H       1  UNL1        0.1690
     12  C         22.9040  -21.8930  -12.3060 C.2     1  UNL1        0.0350
     13  C         22.3120  -21.2690  -13.4060 C.2     1  UNL1        0.0320
     14  C         23.0980  -20.7300  -14.4350 C.2     1  UNL1        0.0320
     15  C         24.4980  -20.7920  -14.3920 C.2     1  UNL1        0.0370
     16  C         25.0760  -21.4120  -13.2800 C.2     1  UNL1        0.0320
     17  C         24.2930  -21.9580  -12.2500 C.2     1  UNL1        0.0320
     18  N         25.2830  -20.2460  -15.4450 N.am    1  UNL1       -0.3180
     19  C         26.3890  -19.3480  -15.2100 C.3     1  UNL1        0.1330
     20  C         26.6580  -18.7270  -16.5630 C.3     1  UNL1        0.0290
     21  C         26.2870  -19.8280  -17.5340 C.3     1  UNL1        0.1050
     22  C         25.1890  -20.5710  -16.8080 C.2     1  UNL1        0.2240
     23  O         24.4300  -21.3420  -17.3750 O.2     1  UNL1       -0.2730
     24  S         16.2910  -22.9340   -8.6190 S.O2    1  UNL1        0.2630
     25  O         15.6550  -24.1550   -8.1680 O.2     1  UNL1       -0.2000
     26  O         15.8250  -22.2680   -9.8160 O.2     1  UNL1       -0.2000
     27  N         16.2190  -21.8630   -7.3180 N.pl3   1  UNL1       -0.2800
     28  H         15.6750  -21.0290   -7.5270 H       1  UNL1        0.1790
     29  C         16.2630  -22.3400   -5.9770 C.2     1  UNL1        0.0480
     30  C         15.1540  -23.0100   -5.4520 C.2     1  UNL1        0.0300
     31  C         15.1550  -23.4700   -4.1350 C.2     1  UNL1        0.0020
     32  C         16.2720  -23.2640   -3.3330 C.2     1  UNL1        0.0010
     33  C         17.3920  -22.6150   -3.8530 C.2     1  UNL1        0.0090
     34  C         17.4120  -22.1620   -5.1850 C.2     1  UNL1       -0.0350
     35  C         18.6480  -21.4610   -5.6770 C.3     1  UNL1        0.0500
@<TRIPOS>BOND
     1    21    22    1
     2    21    20    1
     3    23    22    2
     4    22    18   am
     5    20    19    1
     6    18    19    1
     7    18    15    1
     8    14    15    2
     9    14    13    1
    10    15    16    1
    11    13    12    2
    12    16    17    2
    13    12    17    1
    14    12    10    1
    15     9     8    2
    16    10     8   am
    17    10    11    1
    18     8     3    1
    19     3     2    1
    20     3     4    2
    21    26    24    2
    22     2     1    2
    23     4     5    1
    24     1    24    1
    25     1     6    1
    26    24    25    2
    27    24    27    1
    28     5     6    2
    29     6     7    1
    30    28    27    1
    31    27    29    1
    32    29    30    2
    33    29    34    1
    34    35    34    1
    35    30    31    1
    36    34    33    2
    37    31    32    2
    38    33    32    1
