@<TRIPOS>MOLECULE
38638_out_ligand_01.pdbqt
 35 37 0 0 0
SMALL
GASTEIGER

@<TRIPOS>ATOM
      1  C         19.6690  -23.3710   -9.6060 C.2     1  UNL1        0.0330
      2  C         19.1460  -22.5750  -10.6240 C.2     1  UNL1        0.0170
      3  C         17.7790  -22.3070  -10.6550 C.2     1  UNL1        0.0090
      4  C         16.9130  -22.8090   -9.6620 C.2     1  UNL1       -0.0390
      5  C         15.4490  -22.4950   -9.7890 C.3     1  UNL1        0.0500
      6  C         17.4670  -23.5870   -8.6210 C.2     1  UNL1        0.0860
      7  C         18.8450  -23.8580   -8.5910 C.2     1  UNL1        0.0420
      8  C         21.1170  -23.6570   -9.5560 C.2     1  UNL1        0.2530
      9  N         22.0030  -22.6920  -10.0330 N.am    1  UNL1       -0.3480
     10  C         21.5930  -21.4420  -10.6590 C.3     1  UNL1        0.1530
     11  O         21.4570  -24.7390   -9.0870 O.2     1  UNL1       -0.2670
     12  C         23.4220  -22.8540   -9.7310 C.3     1  UNL1        0.1640
     13  C         24.3000  -22.4590  -10.8960 C.2     1  UNL1       -0.0370
     14  C         25.2550  -21.4480  -10.7390 C.2     1  UNL1        0.0120
     15  C         26.0760  -21.0680  -11.8050 C.2     1  UNL1        0.0400
     16  C         25.9540  -21.6990  -13.0450 C.2     1  UNL1        0.1010
     17  C         24.9780  -22.7030  -13.2210 C.2     1  UNL1        0.1020
     18  C         24.1610  -23.0800  -12.1460 C.2     1  UNL1        0.0480
     19  O         26.7210  -21.4000  -14.1450 O.2     1  UNL1       -0.3530
     20  C         26.3440  -20.2720  -14.9180 C.3     1  UNL1        0.2100
     21  O         24.9250  -23.2720  -14.4680 O.2     1  UNL1       -0.3530
     22  C         25.4530  -24.5880  -14.6090 C.3     1  UNL1        0.2100
     23  S         16.4890  -24.3320   -7.3210 S.O2    1  UNL1        0.2630
     24  O         17.4020  -25.0980   -6.4960 O.2     1  UNL1       -0.2000
     25  O         15.3180  -24.9640   -7.8860 O.2     1  UNL1       -0.2000
     26  N         16.0500  -23.0000   -6.4020 N.pl3   1  UNL1       -0.2800
     27  H         15.3310  -22.4090   -6.8180 H       1  UNL1        0.1790
     28  C         16.9400  -22.4380   -5.4490 C.2     1  UNL1        0.0490
     29  C         17.9950  -21.6270   -5.8760 C.2     1  UNL1        0.0370
     30  C         18.8640  -21.0400   -4.9480 C.2     1  UNL1       -0.0600
     31  C         19.9950  -20.1750   -5.4210 C.3     1  UNL1        0.0480
     32  C         18.6340  -21.2340   -3.5830 C.2     1  UNL1        0.0070
     33  C         17.5580  -22.0130   -3.1530 C.2     1  UNL1        0.0090
     34  C         16.6860  -22.6050   -4.0790 C.2     1  UNL1       -0.0350
     35  C         15.5240  -23.4200   -3.5820 C.3     1  UNL1        0.0500
@<TRIPOS>BOND
     1    20    19    1
     2    22    21    1
     3    21    17    1
     4    19    16    1
     5    17    16    2
     6    17    18    1
     7    16    15    1
     8    18    13    2
     9    15    14    2
    10    13    14    1
    11    13    12    1
    12    10     9    1
    13     3     2    1
    14     3     4    2
    15     2     1    2
    16     9    12    1
    17     9     8   am
    18     5     4    1
    19     4     6    1
    20     1     8    1
    21     1     7    1
    22     8    11    2
    23     6     7    2
    24     6    23    1
    25    25    23    2
    26    23    24    2
    27    23    26    1
    28    27    26    1
    29    26    28    1
    30    29    28    2
    31    29    30    1
    32    28    34    1
    33    31    30    1
    34    30    32    2
    35    34    35    1
    36    34    33    2
    37    32    33    1
