@<TRIPOS>MOLECULE
38642_out_ligand_01.pdbqt
 38 42 0 0 0
SMALL
GASTEIGER

@<TRIPOS>ATOM
      1  O         22.8640  -21.3230   -8.7720 O.2     1  UNL1       -0.2670
      2  C         22.7650  -21.8360   -9.8800 C.2     1  UNL1        0.2560
      3  N         21.7530  -22.6720  -10.3210 N.am    1  UNL1       -0.3230
      4  H         21.8850  -23.1080  -11.2230 H       1  UNL1        0.1690
      5  C         20.5900  -23.0540   -9.6210 C.2     1  UNL1        0.0350
      6  C         19.3740  -22.5100  -10.0580 C.2     1  UNL1        0.0310
      7  C         18.1760  -22.8230   -9.4130 C.2     1  UNL1        0.0270
      8  C         18.1930  -23.6840   -8.3130 C.2     1  UNL1        0.0750
      9  C         19.3930  -24.2490   -7.8750 C.2     1  UNL1        0.0270
     10  C         20.5880  -23.9250   -8.5270 C.2     1  UNL1        0.0310
     11  S         16.6700  -24.0810   -7.4940 S.O2    1  UNL1        0.2450
     12  O         15.6940  -24.3570   -8.5280 O.2     1  UNL1       -0.2060
     13  O         16.9380  -25.0300   -6.4370 O.2     1  UNL1       -0.2060
     14  N         16.2260  -22.5850   -6.8210 N.pl3   1  UNL1       -0.1800
     15  H         15.2080  -22.5680   -6.7240 H       1  UNL1        0.1460
     16  C         16.9540  -22.1640   -5.6600 C.2     1  UNL1        0.0440
     17  C         18.1570  -21.4740   -5.8220 C.2     1  UNL1        0.0260
     18  C         18.9090  -21.1090   -4.7030 C.2     1  UNL1        0.0020
     19  C         18.4650  -21.4370   -3.4210 C.2     1  UNL1        0.0020
     20  C         17.2650  -22.1290   -3.2530 C.2     1  UNL1        0.0260
     21  C         16.5110  -22.4950   -4.3700 C.2     1  UNL1        0.0560
     22 CL         15.0200  -23.3340   -4.1270 Cl      1  UNL1       -0.0820
     23  C         23.8480  -21.5890  -10.8730 C.2     1  UNL1        0.0320
     24  C         23.5190  -21.5930  -12.2330 C.2     1  UNL1        0.0170
     25  C         24.5060  -21.3680  -13.1950 C.2     1  UNL1        0.0090
     26  C         25.8360  -21.1500  -12.8090 C.2     1  UNL1       -0.0450
     27  C         26.1610  -21.1660  -11.4430 C.2     1  UNL1        0.0090
     28  C         25.1750  -21.3880  -10.4780 C.2     1  UNL1        0.0170
     29  C         26.9140  -20.9090  -13.8470 C.3     1  UNL1        0.1340
     30  N         26.9590  -22.0000  -14.8200 N.pl3   1  UNL1       -0.2780
     31  C         26.7040  -23.3740  -14.3330 C.3     1  UNL1        0.1010
     32  C         26.2180  -24.2100  -15.5280 C.3     1  UNL1        0.0550
     33  C         25.6390  -23.1340  -16.3800 C.2     1  UNL1       -0.0360
     34  C         24.8040  -23.2660  -17.4790 C.2     1  UNL1        0.0090
     35  C         26.0980  -21.8890  -15.9360 C.2     1  UNL1        0.0170
     36  C         24.4140  -22.1080  -18.1500 C.2     1  UNL1        0.0010
     37  C         24.8730  -20.8550  -17.7240 C.2     1  UNL1        0.0020
     38  C         25.7240  -20.7420  -16.6170 C.2     1  UNL1        0.0240
@<TRIPOS>BOND
     1    36    37    2
     2    36    34    1
     3    37    38    1
     4    34    33    2
     5    38    35    2
     6    33    35    1
     7    33    32    1
     8    35    30    1
     9    32    31    1
    10    30    31    1
    11    30    29    1
    12    29    26    1
    13    25    26    2
    14    25    24    1
    15    26    27    1
    16    24    23    2
    17    27    28    2
    18     4     3    1
    19    23    28    1
    20    23     2    1
    21     3     2   am
    22     3     5    1
    23     6     5    2
    24     6     7    1
    25     2     1    2
    26     5    10    1
    27     7     8    2
    28    12    11    2
    29    10     9    2
    30     8     9    1
    31     8    11    1
    32    11    14    1
    33    11    13    2
    34    14    15    1
    35    14    16    1
    36    17    16    2
    37    17    18    1
    38    16    21    1
    39    18    19    2
    40    21    22    1
    41    21    20    2
    42    19    20    1
