@<TRIPOS>MOLECULE
38657_out_ligand_01.pdbqt
 39 42 0 0 0
SMALL
GASTEIGER

@<TRIPOS>ATOM
      1  C         19.8000  -21.9630   -6.7420 C.2     1  UNL1        0.2570
      2  O         19.9930  -20.9210   -6.1300 O.2     1  UNL1       -0.2670
      3  N         18.6510  -22.7220   -6.7870 N.am    1  UNL1       -0.3220
      4  H         18.6510  -23.5380   -7.4060 H       1  UNL1        0.1690
      5  C         20.8800  -22.4570   -7.6220 C.2     1  UNL1        0.0540
      6  C         22.0060  -21.6370   -7.7760 C.2     1  UNL1        0.0210
      7  C         23.0260  -22.0140   -8.6490 C.2     1  UNL1        0.0310
      8  C         22.9330  -23.2190   -9.3480 C.2     1  UNL1        0.0440
      9  C         21.8340  -24.0600   -9.1610 C.2     1  UNL1        0.0550
     10  C         20.8020  -23.6780   -8.3000 C.2     1  UNL1        0.0510
     11 CL         19.4670  -24.7580   -8.1200 Cl      1  UNL1       -0.0830
     12  N         23.8940  -23.5380  -10.3490 N.pl3   1  UNL1       -0.2810
     13  H         23.6210  -24.1990  -11.0760 H       1  UNL1        0.1790
     14  S         24.8090  -22.2600  -11.0030 S.O2    1  UNL1        0.2630
     15  O         24.1320  -21.0080  -10.7390 O.2     1  UNL1       -0.2000
     16  O         26.1740  -22.4840  -10.5810 O.2     1  UNL1       -0.2000
     17  C         24.7230  -22.5810  -12.7520 C.2     1  UNL1        0.0790
     18  C         25.2740  -23.7560  -13.2670 C.2     1  UNL1        0.0260
     19  C         25.2950  -23.9550  -14.6450 C.2     1  UNL1        0.0080
     20  C         24.7410  -23.0000  -15.5100 C.2     1  UNL1       -0.0620
     21  C         24.7810  -23.2290  -16.9940 C.3     1  UNL1        0.0480
     22  C         24.1450  -21.8510  -14.9770 C.2     1  UNL1        0.0080
     23  C         24.1340  -21.6370  -13.5980 C.2     1  UNL1        0.0260
     24  C         17.4510  -22.5460   -6.0550 C.2     1  UNL1        0.0500
     25  C         17.4560  -22.2790   -4.6800 C.2     1  UNL1        0.0300
     26  C         16.2620  -22.1520   -3.9680 C.2     1  UNL1        0.0020
     27  C         15.0400  -22.2980   -4.6160 C.2     1  UNL1        0.0010
     28  C         15.0100  -22.5560   -5.9860 C.2     1  UNL1        0.0190
     29  C         16.2060  -22.6610   -6.7210 C.2     1  UNL1        0.0580
     30  C         16.1470  -22.9020   -8.2010 C.2     1  UNL1        0.2540
     31  O         15.8580  -24.0120   -8.6410 O.2     1  UNL1       -0.2680
     32  N         16.4690  -21.8380   -9.0140 N.am    1  UNL1       -0.3510
     33  H         16.9820  -21.0580   -8.6230 H       1  UNL1        0.1630
     34  C         16.5620  -21.9700  -10.4520 C.3     1  UNL1        0.1870
     35  C         17.9540  -21.6800  -10.8760 C.2     1  UNL1        0.0700
     36  C         19.1290  -22.4040  -10.8380 C.2     1  UNL1        0.0360
     37  C         20.1230  -21.5850  -11.4240 C.2     1  UNL1        0.0270
     38  C         19.4970  -20.4120  -11.7760 C.2     1  UNL1        0.1420
     39  O         18.1780  -20.4620  -11.4560 O.2     1  UNL1       -0.3250
@<TRIPOS>BOND
     1    21    20    1
     2    20    22    2
     3    20    19    1
     4    22    23    1
     5    19    18    2
     6    23    17    2
     7    18    17    1
     8    17    14    1
     9    38    39    1
    10    38    37    2
    11    39    35    1
    12    37    36    1
    13    13    12    1
    14    14    15    2
    15    14    16    2
    16    14    12    1
    17    35    36    2
    18    35    34    1
    19    34    32    1
    20    12     8    1
    21     8     9    2
    22     8     7    1
    23     9    10    1
    24    32    33    1
    25    32    30   am
    26     7     6    2
    27    31    30    2
    28    10    11    1
    29    10     5    2
    30    30    29    1
    31     6     5    1
    32     5     1    1
    33     4     3    1
    34     3     1   am
    35     3    24    1
    36     1     2    2
    37    29    24    2
    38    29    28    1
    39    24    25    1
    40    28    27    2
    41    25    26    2
    42    27    26    1
