@<TRIPOS>MOLECULE
38651_out_ligand_01.pdbqt
 31 33 0 0 0
SMALL
GASTEIGER

@<TRIPOS>ATOM
      1  C         21.1560  -23.2950   -9.8740 C.2     1  UNL1        0.0340
      2  C         20.2280  -22.4870  -10.5350 C.2     1  UNL1        0.0310
      3  C         18.8850  -22.4770  -10.1410 C.2     1  UNL1        0.0270
      4  C         18.4660  -23.2950   -9.0910 C.2     1  UNL1        0.0800
      5  C         19.3830  -24.0910   -8.4050 C.2     1  UNL1        0.0270
      6  C         20.7240  -24.0910   -8.8040 C.2     1  UNL1        0.0310
      7  N         22.5230  -23.3650  -10.2090 N.am    1  UNL1       -0.3270
      8  C         23.5250  -22.4660   -9.8880 C.2     1  UNL1        0.2260
      9  O         23.3740  -21.4100   -9.2760 O.2     1  UNL1       -0.2730
     10  H         22.8100  -24.2010  -10.7050 H       1  UNL1        0.1690
     11  C         24.9030  -22.8360  -10.4270 C.3     1  UNL1        0.1420
     12  C         25.4850  -21.8780  -11.4500 C.2     1  UNL1       -0.0430
     13  C         25.4880  -22.1640  -12.8300 C.2     1  UNL1       -0.0550
     14  C         26.0030  -21.2110  -13.7210 C.2     1  UNL1        0.0080
     15  C         24.9290  -23.4470  -13.3850 C.3     1  UNL1        0.0490
     16  C         26.5210  -20.0000  -13.2600 C.2     1  UNL1        0.0070
     17  C         26.5250  -19.7090  -11.8950 C.2     1  UNL1       -0.0610
     18  C         27.1210  -18.4260  -11.3930 C.3     1  UNL1        0.0480
     19  C         26.0170  -20.6550  -10.9980 C.2     1  UNL1        0.0140
     20  S         16.7590  -23.2910   -8.5890 S.O2    1  UNL1        0.2630
     21  O         15.9650  -22.9630   -9.7560 O.2     1  UNL1       -0.2000
     22  O         16.5100  -24.4990   -7.8310 O.2     1  UNL1       -0.2000
     23  N         16.6590  -21.9510   -7.5600 N.pl3   1  UNL1       -0.2790
     24  H         17.3360  -21.2360   -7.8330 H       1  UNL1        0.1790
     25  C         16.5340  -22.1780   -6.1510 C.2     1  UNL1        0.0640
     26  C         15.3040  -22.5660   -5.6170 C.2     1  UNL1        0.0320
     27  C         15.1840  -22.8300   -4.2500 C.2     1  UNL1        0.0020
     28  C         16.2930  -22.7050   -3.4130 C.2     1  UNL1        0.0020
     29  C         17.5250  -22.3120   -3.9380 C.2     1  UNL1        0.0260
     30  C         17.6450  -22.0470   -5.3030 C.2     1  UNL1        0.0610
     31 CL         19.1840  -21.5600   -5.9210 Cl      1  UNL1       -0.0820
@<TRIPOS>BOND
     1    14    16    2
     2    14    13    1
     3    15    13    1
     4    16    17    1
     5    13    12    2
     6    17    18    1
     7    17    19    2
     8    12    19    1
     9    12    11    1
    10    10     7    1
    11     2     3    1
    12     2     1    2
    13    11     8    1
    14     7     8   am
    15     7     1    1
    16     3     4    2
    17     8     9    2
    18     1     6    1
    19    21    20    2
    20     4    20    1
    21     4     5    1
    22     6     5    2
    23    20    22    2
    24    20    23    1
    25    24    23    1
    26    23    25    1
    27    25    26    2
    28    25    30    1
    29    31    30    1
    30    26    27    1
    31    30    29    2
    32    27    28    2
    33    29    28    1
