@<TRIPOS>MOLECULE
38655_out_ligand_01.pdbqt
 30 32 0 0 0
SMALL
GASTEIGER

@<TRIPOS>ATOM
      1  C         21.2180  -23.2390   -9.8400 C.2     1  UNL1        0.0340
      2  C         20.8780  -24.0240   -8.7350 C.2     1  UNL1        0.0310
      3  C         19.5500  -24.1050   -8.3020 C.2     1  UNL1        0.0270
      4  C         18.5580  -23.3880   -8.9730 C.2     1  UNL1        0.0800
      5  C         18.8780  -22.6120  -10.0880 C.2     1  UNL1        0.0270
      6  C         20.2060  -22.5380  -10.5150 C.2     1  UNL1        0.0310
      7  N         22.5280  -23.1050  -10.3400 N.am    1  UNL1       -0.3270
      8  C         23.4170  -22.0640  -10.1240 C.2     1  UNL1        0.2260
      9  O         23.2060  -21.0630   -9.4440 O.2     1  UNL1       -0.2730
     10  H         22.8300  -23.8250  -10.9870 H       1  UNL1        0.1690
     11  C         24.7800  -22.2770  -10.7720 C.3     1  UNL1        0.1410
     12  C         24.7390  -22.5050  -12.2650 C.2     1  UNL1       -0.0490
     13  C         24.1210  -21.5760  -13.1110 C.2     1  UNL1        0.0080
     14  C         24.1000  -21.7810  -14.4930 C.2     1  UNL1        0.0070
     15  C         24.7010  -22.9140  -15.0510 C.2     1  UNL1       -0.0620
     16  C         24.6450  -23.1520  -16.5320 C.3     1  UNL1        0.0480
     17  C         25.2970  -23.8540  -14.2060 C.2     1  UNL1        0.0070
     18  C         25.3190  -23.6520  -12.8240 C.2     1  UNL1        0.0080
     19  S         16.8760  -23.4980   -8.4200 S.O2    1  UNL1        0.2630
     20  O         16.0040  -23.4710   -9.5750 O.2     1  UNL1       -0.2000
     21  O         16.8110  -24.5840   -7.4650 O.2     1  UNL1       -0.2000
     22  N         16.6840  -22.0780   -7.5240 N.pl3   1  UNL1       -0.2800
     23  H         17.2710  -21.3310   -7.8920 H       1  UNL1        0.1790
     24  C         16.5520  -22.1820   -6.1110 C.2     1  UNL1        0.0480
     25  C         15.3140  -22.5620   -5.5840 C.2     1  UNL1        0.0300
     26  C         15.1530  -22.7160   -4.2080 C.2     1  UNL1        0.0020
     27  C         16.2310  -22.4980   -3.3560 C.2     1  UNL1        0.0010
     28  C         17.4700  -22.1220   -3.8780 C.2     1  UNL1        0.0090
     29  C         17.6470  -21.9540   -5.2610 C.2     1  UNL1       -0.0350
     30  C         19.0000  -21.5720   -5.7880 C.3     1  UNL1        0.0500
@<TRIPOS>BOND
     1    16    15    1
     2    15    14    2
     3    15    17    1
     4    14    13    1
     5    17    18    2
     6    13    12    2
     7    18    12    1
     8    12    11    1
     9    10     7    1
    10    11     8    1
    11     6     5    1
    12     6     1    2
    13     7     8   am
    14     7     1    1
    15     8     9    2
    16     5     4    2
    17     1     2    1
    18    20    19    2
    19     4    19    1
    20     4     3    1
    21     2     3    2
    22    19    22    1
    23    19    21    2
    24    23    22    1
    25    22    24    1
    26    24    25    2
    27    24    29    1
    28    30    29    1
    29    25    26    1
    30    29    28    2
    31    26    27    2
    32    28    27    1
