@<TRIPOS>MOLECULE
38671_out_ligand_01.pdbqt
 35 39 0 0 0
SMALL
GASTEIGER

@<TRIPOS>ATOM
      1  C         24.8590  -21.5050  -12.1970 C.2     1  UNL1        0.0750
      2  C         24.9680  -21.4230  -10.8090 C.2     1  UNL1        0.0270
      3  C         23.8420  -21.6420  -10.0090 C.2     1  UNL1        0.0310
      4  C         22.6040  -21.9310  -10.5900 C.2     1  UNL1        0.0350
      5  C         22.5050  -21.9910  -11.9880 C.2     1  UNL1        0.0310
      6  C         23.6260  -21.7770  -12.7940 C.2     1  UNL1        0.0270
      7  N         21.4260  -22.1650   -9.8560 N.am    1  UNL1       -0.3210
      8  C         21.0370  -23.3170   -9.1970 C.2     1  UNL1        0.2800
      9  O         21.6740  -24.3630   -9.1490 O.2     1  UNL1       -0.2650
     10  H         20.7620  -21.4010   -9.7970 H       1  UNL1        0.1690
     11  C         19.7480  -23.1730   -8.5430 C.2     1  UNL1        0.1440
     12  C         19.4220  -22.9570   -7.2190 C.2     1  UNL1        0.0580
     13  C         18.0030  -22.8990   -7.1370 C.2     1  UNL1        0.0120
     14  C         17.5520  -23.0870   -8.4380 C.2     1  UNL1        0.0870
     15  C         17.0370  -22.7070   -6.1100 C.2     1  UNL1       -0.0130
     16  C         16.2120  -23.1020   -8.8120 C.2     1  UNL1        0.0390
     17  O         18.6010  -23.2530   -9.2900 O.2     1  UNL1       -0.3040
     18  C         15.2730  -22.9130   -7.7920 C.2     1  UNL1        0.0150
     19  C         15.6610  -22.7170   -6.4560 C.2     1  UNL1       -0.0250
     20  C         14.7110  -22.5290   -5.4410 C.2     1  UNL1        0.0120
     21  C         15.1100  -22.3350   -4.1150 C.2     1  UNL1        0.0010
     22  C         16.4630  -22.3260   -3.7810 C.2     1  UNL1        0.0010
     23  C         17.4280  -22.5110   -4.7710 C.2     1  UNL1        0.0130
     24  S         26.2770  -21.2050  -13.2250 S.O2    1  UNL1        0.2480
     25  O         26.9470  -22.4580  -13.5010 O.2     1  UNL1       -0.2050
     26  O         27.0060  -20.1160  -12.6020 O.2     1  UNL1       -0.2050
     27  N         25.6350  -20.5780  -14.6210 N.pl3   1  UNL1       -0.1480
     28  H         25.8850  -19.6100  -14.7840 H       1  UNL1        0.1490
     29  C         25.7160  -21.3610  -15.7660 C.cat   1  UNL1        0.2150
     30  N         26.7720  -21.0730  -16.5320 N.2     1  UNL1       -0.2300
     31  C         26.8100  -21.7090  -17.7160 C.2     1  UNL1        0.1220
     32  C         25.8240  -22.5640  -18.1530 C.2     1  UNL1        0.0460
     33  C         24.7520  -22.7420  -17.3000 C.2     1  UNL1        0.0350
     34  C         23.6130  -23.6360  -17.6860 C.3     1  UNL1        0.0700
     35  N         24.6750  -22.1230  -16.1040 N.2     1  UNL1       -0.2230
@<TRIPOS>BOND
     1    32    31    2
     2    32    33    1
     3    31    30    1
     4    34    33    1
     5    33    35    2
     6    30    29    2
     7    35    29    1
     8    29    27    1
     9    28    27    1
    10    27    24    1
    11    25    24    2
    12    24    26    2
    13    24     1    1
    14     6     1    2
    15     6     5    1
    16     1     2    1
    17     5     4    2
    18     2     3    2
    19     4     3    1
    20     4     7    1
    21     7    10    1
    22     7     8   am
    23    17    11    1
    24    17    14    1
    25     8     9    2
    26     8    11    1
    27    16    14    1
    28    16    18    2
    29    11    12    2
    30    14    13    2
    31    18    19    1
    32    12    13    1
    33    13    15    1
    34    19    15    2
    35    19    20    1
    36    15    23    1
    37    20    21    2
    38    23    22    2
    39    21    22    1
