@<TRIPOS>MOLECULE
38674_out_ligand_01.pdbqt
 31 33 0 0 0
SMALL
GASTEIGER

@<TRIPOS>ATOM
      1  C         17.5900  -23.6000   -8.5530 C.2     1  UNL1        0.0860
      2  C         18.9610  -23.8940   -8.4560 C.2     1  UNL1        0.0420
      3  C         19.8740  -23.3290   -9.3490 C.2     1  UNL1        0.0330
      4  C         19.4180  -22.4670  -10.3470 C.2     1  UNL1        0.0170
      5  C         18.0520  -22.1920  -10.4590 C.2     1  UNL1        0.0090
      6  C         17.1140  -22.7530   -9.5720 C.2     1  UNL1       -0.0390
      7  C         15.6650  -22.4050   -9.7690 C.3     1  UNL1        0.0500
      8  S         16.5460  -24.3620   -7.3120 S.O2    1  UNL1        0.2630
      9  O         17.4250  -25.0980   -6.4260 O.2     1  UNL1       -0.2000
     10  O         15.4180  -25.0130   -7.9390 O.2     1  UNL1       -0.2000
     11  N         15.9870  -23.0350   -6.4260 N.pl3   1  UNL1       -0.2810
     12  H         14.9980  -23.1180   -6.1950 H       1  UNL1        0.1790
     13  C         16.8450  -22.4280   -5.4660 C.2     1  UNL1        0.0430
     14  C         16.5900  -22.6280   -4.1100 C.2     1  UNL1        0.0300
     15  C         17.4380  -22.0710   -3.1530 C.2     1  UNL1        0.0030
     16  C         18.5390  -21.3120   -3.5520 C.2     1  UNL1        0.0070
     17  C         18.8030  -21.1080   -4.9120 C.2     1  UNL1       -0.0600
     18  C         19.9700  -20.2750   -5.3530 C.3     1  UNL1        0.0480
     19  C         17.9410  -21.6630   -5.8650 C.2     1  UNL1        0.0370
     20  C         21.3170  -23.6390   -9.1680 C.2     1  UNL1        0.2510
     21  O         21.6570  -24.7760   -8.8620 O.2     1  UNL1       -0.2680
     22  N         22.1960  -22.6030   -9.3920 N.am    1  UNL1       -0.3530
     23  H         21.8620  -21.7750   -9.8650 H       1  UNL1        0.1630
     24  C         23.6260  -22.8220   -9.4020 C.3     1  UNL1        0.1610
     25  C         24.2270  -22.3570  -10.7060 C.2     1  UNL1       -0.0400
     26  C         23.7650  -22.8850  -11.9220 C.2     1  UNL1        0.0120
     27  C         24.2980  -22.4430  -13.1340 C.2     1  UNL1        0.0430
     28  C         25.2880  -21.4690  -13.1290 C.2     1  UNL1        0.1160
     29  F         25.7980  -21.0400  -14.2900 F       1  UNL1       -0.2060
     30  C         25.7560  -20.9280  -11.9360 C.2     1  UNL1        0.0430
     31  C         25.2230  -21.3680  -10.7250 C.2     1  UNL1        0.0120
@<TRIPOS>BOND
     1    29    28    1
     2    27    28    2
     3    27    26    1
     4    28    30    1
     5    30    31    2
     6    26    25    2
     7    31    25    1
     8    25    24    1
     9     5     4    2
    10     5     6    1
    11     4     3    1
    12    23    22    1
    13     7     6    1
    14     6     1    2
    15    24    22    1
    16    22    20   am
    17     3    20    1
    18     3     2    2
    19    20    21    2
    20     1     2    1
    21     1     8    1
    22    10     8    2
    23     8    11    1
    24     8     9    2
    25    11    12    1
    26    11    13    1
    27    19    13    2
    28    19    17    1
    29    13    14    1
    30    18    17    1
    31    17    16    2
    32    14    15    2
    33    16    15    1
