@<TRIPOS>MOLECULE
38675_out_ligand_01.pdbqt
 36 40 0 0 0
SMALL
GASTEIGER

@<TRIPOS>ATOM
      1  O         19.6450  -21.1630   -6.1270 O.2     1  UNL1       -0.2670
      2  C         19.6310  -22.2370   -6.7190 C.2     1  UNL1        0.2560
      3  N         18.6630  -23.2140   -6.6200 N.am    1  UNL1       -0.3220
      4  H         18.8340  -24.0980   -7.0990 H       1  UNL1        0.1690
      5  C         20.7880  -22.5700   -7.6080 C.2     1  UNL1        0.0320
      6  C         21.8110  -21.6230   -7.7450 C.2     1  UNL1        0.0170
      7  C         22.9150  -21.8840   -8.5610 C.2     1  UNL1        0.0090
      8  C         23.0100  -23.0940   -9.2600 C.2     1  UNL1       -0.0450
      9  C         21.9770  -24.0360   -9.1280 C.2     1  UNL1        0.0090
     10  C         20.8700  -23.7750   -8.3170 C.2     1  UNL1        0.0170
     11  C         24.2160  -23.3930  -10.1290 C.3     1  UNL1        0.1340
     12  N         24.7750  -22.1710  -10.7030 N.pl3   1  UNL1       -0.2780
     13  C         26.2380  -22.1030  -10.9090 C.3     1  UNL1        0.1010
     14  C         26.5040  -21.0490  -11.9950 C.3     1  UNL1        0.0550
     15  C         25.2120  -21.1030  -12.7340 C.2     1  UNL1       -0.0360
     16  C         24.9140  -20.5800  -13.9830 C.2     1  UNL1        0.0090
     17  C         24.2540  -21.7530  -11.9480 C.2     1  UNL1        0.0170
     18  C         23.6110  -20.7230  -14.4610 C.2     1  UNL1        0.0010
     19  C         22.6380  -21.3650  -13.6820 C.2     1  UNL1        0.0020
     20  C         22.9550  -21.8760  -12.4190 C.2     1  UNL1        0.0240
     21  C         17.4350  -23.1750   -5.9100 C.2     1  UNL1        0.0500
     22  C         17.3790  -23.1910   -4.5120 C.2     1  UNL1        0.0300
     23  C         16.1550  -23.1240   -3.8400 C.2     1  UNL1        0.0020
     24  C         14.9660  -23.0310   -4.5530 C.2     1  UNL1        0.0010
     25  C         14.9950  -23.0170   -5.9470 C.2     1  UNL1        0.0190
     26  C         16.2200  -23.1040   -6.6340 C.2     1  UNL1        0.0580
     27  C         16.2230  -23.1070   -8.1320 C.2     1  UNL1        0.2540
     28  O         15.8270  -24.0900   -8.7540 O.2     1  UNL1       -0.2680
     29  N         16.6310  -21.9440   -8.7540 N.am    1  UNL1       -0.3540
     30  H         16.6000  -21.0850   -8.2180 H       1  UNL1        0.1620
     31  C         16.4850  -21.7820  -10.1930 C.3     1  UNL1        0.1550
     32  C         17.6710  -22.3950  -10.9520 C.3     1  UNL1        0.1390
     33  C         18.9860  -22.2530  -10.2000 C.3     1  UNL1        0.0350
     34  C         19.5620  -20.9790  -10.7630 C.3     1  UNL1        0.0290
     35  C         19.1190  -21.0510  -12.2040 C.3     1  UNL1        0.1680
     36  O         17.8310  -21.6800  -12.2000 O.3     1  UNL1       -0.3840
@<TRIPOS>BOND
     1    18    16    1
     2    18    19    2
     3    16    15    2
     4    19    20    1
     5    15    14    1
     6    15    17    1
     7    20    17    2
     8    35    36    1
     9    35    34    1
    10    36    32    1
    11    14    13    1
    12    17    12    1
    13    32    33    1
    14    32    31    1
    15    13    12    1
    16    34    33    1
    17    12    11    1
    18    31    29    1
    19    11     8    1
    20     8     9    2
    21     8     7    1
    22     9    10    1
    23    28    27    2
    24    29    30    1
    25    29    27   am
    26     7     6    2
    27    10     5    2
    28    27    26    1
    29     6     5    1
    30     5     2    1
    31     4     3    1
    32     2     3   am
    33     2     1    2
    34    26    25    1
    35    26    21    2
    36     3    21    1
    37    25    24    2
    38    21    22    1
    39    24    23    1
    40    22    23    2
