@<TRIPOS>MOLECULE
38683_out_ligand_01.pdbqt
 33 35 0 0 0
SMALL
GASTEIGER

@<TRIPOS>ATOM
      1  C         22.8010  -22.8730  -11.2580 C.2     1  UNL1        0.0240
      2  C         22.3080  -22.0750  -12.2860 C.2     1  UNL1        0.0260
      3  C         21.0110  -21.5690  -12.2080 C.2     1  UNL1        0.0260
      4  C         20.1970  -21.8560  -11.1030 C.2     1  UNL1        0.0490
      5 CL         18.6260  -21.1330  -11.1170 Cl      1  UNL1       -0.0830
      6  C         20.6830  -22.6640  -10.0610 C.2     1  UNL1        0.0550
      7  C         22.0040  -23.1540  -10.1490 C.2     1  UNL1        0.0430
      8  C         19.9280  -23.0540   -8.8260 C.2     1  UNL1        0.2570
      9  O         19.9110  -24.2430   -8.5220 O.2     1  UNL1       -0.2670
     10  N         19.2630  -22.0470   -8.1550 N.am    1  UNL1       -0.3230
     11  H         19.3570  -21.1100   -8.5270 H       1  UNL1        0.1690
     12  C         18.5020  -22.1510   -6.9710 C.2     1  UNL1        0.0350
     13  C         19.0360  -21.5620   -5.8190 C.2     1  UNL1        0.0290
     14  C         18.3530  -21.6190   -4.6030 C.2     1  UNL1        0.0030
     15  C         17.1240  -22.2710   -4.5260 C.2     1  UNL1        0.0160
     16  C         16.5750  -22.8790   -5.6620 C.2     1  UNL1        0.0500
     17  C         17.2710  -22.8040   -6.8840 C.2     1  UNL1        0.0450
     18  C         15.2390  -23.5770   -5.5920 C.3     1  UNL1        0.4170
     19  F         15.0510  -24.4400   -6.6290 F       1  UNL1       -0.1660
     20  F         15.0700  -24.3080   -4.4560 F       1  UNL1       -0.1660
     21  F         14.1830  -22.7150   -5.6340 F       1  UNL1       -0.1660
     22  N         24.1510  -23.3490  -11.3170 N.pl3   1  UNL1       -0.1810
     23  H         24.3300  -24.0570  -10.5990 H       1  UNL1        0.1460
     24  S         25.3310  -22.1270  -11.1070 S.O2    1  UNL1        0.2450
     25  O         26.5400  -22.7960  -10.6750 O.2     1  UNL1       -0.2060
     26  O         24.7610  -21.0160  -10.3780 O.2     1  UNL1       -0.2060
     27  C         25.5540  -21.6010  -12.7870 C.2     1  UNL1        0.0740
     28  C         25.5900  -22.5630  -13.7990 C.2     1  UNL1        0.0250
     29  C         25.7470  -22.1600  -15.1270 C.2     1  UNL1        0.0080
     30  C         25.8710  -20.8010  -15.4450 C.2     1  UNL1       -0.0620
     31  C         26.0170  -20.3570  -16.8720 C.3     1  UNL1        0.0480
     32  C         25.8200  -19.8470  -14.4190 C.2     1  UNL1        0.0080
     33  C         25.6610  -20.2410  -13.0890 C.2     1  UNL1        0.0250
@<TRIPOS>BOND
     1    31    30    1
     2    30    29    2
     3    30    32    1
     4    29    28    1
     5    32    33    2
     6    28    27    2
     7    33    27    1
     8    27    24    1
     9     2     3    1
    10     2     1    2
    11     3     4    2
    12    22     1    1
    13    22    24    1
    14    22    23    1
    15     1     7    1
    16     5     4    1
    17    24    25    2
    18    24    26    2
    19     4     6    1
    20     7     6    2
    21     6     8    1
    22     8     9    2
    23     8    10   am
    24    11    10    1
    25    10    12    1
    26    12    17    2
    27    12    13    1
    28    17    16    1
    29    19    18    1
    30    13    14    2
    31    16    18    1
    32    16    15    2
    33    21    18    1
    34    18    20    1
    35    14    15    1
