@<TRIPOS>MOLECULE
38688_out_ligand_01.pdbqt
 36 39 0 0 0
SMALL
GASTEIGER

@<TRIPOS>ATOM
      1  C         18.5910  -22.4760  -10.0230 C.2     1  UNL1        0.0860
      2  C         19.9430  -22.8550   -9.9010 C.2     1  UNL1        0.0420
      3  C         20.9070  -22.3190  -10.7570 C.2     1  UNL1        0.0330
      4  C         20.5190  -21.4180  -11.7500 C.2     1  UNL1        0.0170
      5  C         19.1830  -21.0260  -11.8590 C.2     1  UNL1        0.0090
      6  C         18.1970  -21.5380  -10.9950 C.2     1  UNL1       -0.0390
      7  C         16.7900  -21.0360  -11.1630 C.3     1  UNL1        0.0500
      8  C         22.3420  -22.7000  -10.6650 C.2     1  UNL1        0.2510
      9  O         22.8360  -22.9590   -9.5740 O.2     1  UNL1       -0.2680
     10  N         23.0320  -22.7660  -11.8540 N.am    1  UNL1       -0.3530
     11  H         22.5410  -22.6870  -12.7340 H       1  UNL1        0.1630
     12  C         24.4300  -23.1490  -11.9150 C.3     1  UNL1        0.1630
     13  C         25.3260  -21.9730  -12.2490 C.2     1  UNL1       -0.0130
     14  C         25.6760  -21.0860  -11.2090 C.2     1  UNL1        0.0110
     15  C         26.5680  -20.0340  -11.4180 C.2     1  UNL1        0.0010
     16  C         27.1210  -19.8330  -12.6770 C.2     1  UNL1        0.0020
     17  C         26.7640  -20.6690  -13.7340 C.2     1  UNL1        0.0300
     18  C         25.8580  -21.7260  -13.5350 C.2     1  UNL1        0.0480
     19  N         25.4530  -22.4730  -14.6750 N.pl3   1  UNL1       -0.3090
     20  C         24.5130  -22.0700  -15.6000 C.2     1  UNL1        0.1180
     21  C         24.4910  -23.0390  -16.5700 C.2     1  UNL1        0.1360
     22  N         25.3760  -24.0350  -16.2760 N.2     1  UNL1       -0.2460
     23  C         25.9470  -23.6890  -15.1360 C.2     1  UNL1        0.1060
     24  C         26.9100  -24.5490  -14.3990 C.3     1  UNL1        0.0910
     25  S         17.4670  -23.2370   -8.8520 S.O2    1  UNL1        0.2630
     26  O         18.1700  -24.2080   -8.0440 O.2     1  UNL1       -0.2000
     27  O         16.2900  -23.6210   -9.6060 O.2     1  UNL1       -0.2000
     28  N         16.9900  -21.9380   -7.8850 N.pl3   1  UNL1       -0.2810
     29  H         17.4350  -21.0630   -8.1500 H       1  UNL1        0.1790
     30  C         16.7160  -22.1560   -6.5080 C.2     1  UNL1        0.0430
     31  C         15.4380  -22.5570   -6.1210 C.2     1  UNL1        0.0300
     32  C         15.1440  -22.7260   -4.7690 C.2     1  UNL1        0.0030
     33  C         16.1290  -22.5010   -3.8050 C.2     1  UNL1        0.0070
     34  C         17.4200  -22.1150   -4.1870 C.2     1  UNL1       -0.0600
     35  C         18.4710  -21.8390   -3.1530 C.3     1  UNL1        0.0480
     36  C         17.7020  -21.9330   -5.5470 C.2     1  UNL1        0.0370
@<TRIPOS>BOND
     1    21    22    1
     2    21    20    2
     3    22    23    2
     4    20    19    1
     5    23    19    1
     6    23    24    1
     7    19    18    1
     8    17    18    1
     9    17    16    2
    10    18    13    2
    11    11    10    1
    12    16    15    1
    13    13    12    1
    14    13    14    1
    15    12    10    1
    16     5     4    2
    17     5     6    1
    18    10     8   am
    19     4     3    1
    20    15    14    2
    21     7     6    1
    22     6     1    2
    23     3     8    1
    24     3     2    2
    25     8     9    2
    26     1     2    1
    27     1    25    1
    28    27    25    2
    29    25    26    2
    30    25    28    1
    31    29    28    1
    32    28    30    1
    33    30    31    2
    34    30    36    1
    35    31    32    1
    36    36    34    2
    37    32    33    2
    38    34    33    1
    39    34    35    1
