@<TRIPOS>MOLECULE
38697_out_ligand_01.pdbqt
 33 36 0 0 0
SMALL
GASTEIGER

@<TRIPOS>ATOM
      1  C         18.8390  -22.3610  -10.1260 C.2     1  UNL1        0.0810
      2  C         20.1420  -22.8430   -9.9140 C.2     1  UNL1        0.0420
      3  C         21.1830  -22.4400  -10.7540 C.2     1  UNL1        0.0330
      4  C         20.9150  -21.5720  -11.8170 C.2     1  UNL1        0.0170
      5  C         19.6220  -21.0850  -12.0210 C.2     1  UNL1        0.0090
      6  C         18.5630  -21.4680  -11.1820 C.2     1  UNL1       -0.0390
      7  C         17.2000  -20.8850  -11.4390 C.3     1  UNL1        0.0500
      8  C         22.5760  -22.9320  -10.5770 C.2     1  UNL1        0.2520
      9  O         22.8500  -23.6680   -9.6370 O.2     1  UNL1       -0.2680
     10  N         23.4890  -22.5310  -11.5240 N.am    1  UNL1       -0.3480
     11  H         23.1940  -22.0150  -12.3420 H       1  UNL1        0.1630
     12  C         24.8880  -22.9320  -11.4650 C.3     1  UNL1        0.1180
     13  C         25.7150  -21.9160  -10.6610 C.3     1  UNL1        0.0300
     14  C         25.9410  -20.6390  -11.4630 C.3     1  UNL1        0.0070
     15  C         26.7370  -20.9360  -12.7320 C.3     1  UNL1        0.0390
     16  C         26.2380  -22.1450  -13.4860 C.2     1  UNL1       -0.0500
     17  C         26.6690  -22.3410  -14.8070 C.2     1  UNL1        0.0070
     18  C         25.4100  -23.1070  -12.8790 C.2     1  UNL1       -0.0290
     19  C         26.2670  -23.4670  -15.5270 C.2     1  UNL1        0.0010
     20  C         25.4390  -24.4130  -14.9330 C.2     1  UNL1        0.0010
     21  C         25.0110  -24.2350  -13.6180 C.2     1  UNL1        0.0100
     22  S         17.5610  -22.9170   -9.0030 S.O2    1  UNL1        0.2460
     23  O         16.9240  -21.7380   -8.4510 O.2     1  UNL1       -0.2060
     24  O         16.8010  -23.9460   -9.6750 O.2     1  UNL1       -0.2060
     25  N         18.5050  -23.5820   -7.7470 N.pl3   1  UNL1       -0.1810
     26  H         19.4430  -23.7460   -8.1170 H       1  UNL1        0.1460
     27  C         18.5550  -22.7680   -6.5670 C.2     1  UNL1        0.0230
     28  C         19.4050  -21.6640   -6.5160 C.2     1  UNL1        0.0240
     29  C         19.4280  -20.8600   -5.3770 C.2     1  UNL1        0.0020
     30  C         18.5890  -21.1500   -4.2990 C.2     1  UNL1        0.0070
     31  C         17.7070  -22.2360   -4.3580 C.2     1  UNL1       -0.0600
     32  C         16.8150  -22.5570   -3.1960 C.3     1  UNL1        0.0480
     33  C         17.7020  -23.0480   -5.4990 C.2     1  UNL1        0.0310
@<TRIPOS>BOND
     1    19    20    2
     2    19    17    1
     3    20    21    1
     4    17    16    2
     5    21    18    2
     6    16    18    1
     7    16    15    1
     8    18    12    1
     9    15    14    1
    10    11    10    1
    11     5     4    2
    12     5     6    1
    13     4     3    1
    14    10    12    1
    15    10     8   am
    16    12    13    1
    17    14    13    1
    18     7     6    1
    19     6     1    2
    20     3     8    1
    21     3     2    2
    22     8     9    2
    23     1     2    1
    24     1    22    1
    25    24    22    2
    26    22    23    2
    27    22    25    1
    28    26    25    1
    29    25    27    1
    30    27    28    2
    31    27    33    1
    32    28    29    1
    33    33    31    2
    34    29    30    2
    35    31    30    1
    36    31    32    1
