@<TRIPOS>MOLECULE
38692_out_ligand_01.pdbqt
 33 35 0 0 0
SMALL
GASTEIGER

@<TRIPOS>ATOM
      1  C         22.6480  -21.6940   -9.9620 C.2     1  UNL1        0.0240
      2  C         22.7580  -21.7760   -8.5720 C.2     1  UNL1        0.0250
      3  C         21.6920  -22.2800   -7.8250 C.2     1  UNL1        0.0200
      4  C         20.5180  -22.6890   -8.4740 C.2     1  UNL1        0.0540
      5  C         20.4050  -22.5930   -9.8640 C.2     1  UNL1        0.0510
      6 CL         18.9640  -23.0250  -10.7100 Cl      1  UNL1       -0.0830
      7  C         21.4730  -22.0840  -10.6060 C.2     1  UNL1        0.0490
      8  C         19.4160  -23.2140   -7.6440 C.2     1  UNL1        0.2570
      9  O         19.2880  -24.4250   -7.5560 O.2     1  UNL1       -0.2670
     10  N         18.6410  -22.2190   -7.0790 N.am    1  UNL1       -0.3220
     11  H         18.7210  -21.3210   -7.5320 H       1  UNL1        0.1690
     12  C         17.4930  -22.4090   -6.2750 C.2     1  UNL1        0.0470
     13  C         17.4510  -21.9980   -4.9190 C.2     1  UNL1       -0.0350
     14  C         18.5520  -21.2430   -4.2210 C.3     1  UNL1        0.0500
     15  C         16.2990  -22.2520   -4.1520 C.2     1  UNL1        0.0090
     16  C         15.1760  -22.8350   -4.7200 C.2     1  UNL1        0.0010
     17  C         15.1870  -23.1720   -6.0680 C.2     1  UNL1        0.0100
     18  C         16.3310  -22.9680   -6.8720 C.2     1  UNL1       -0.0270
     19  C         16.1980  -23.4220   -8.3280 C.3     1  UNL1        0.0130
     20  C         15.4550  -24.7540   -8.4630 C.3     1  UNL1        0.0150
     21  C         15.6520  -22.3530   -9.2780 C.3     1  UNL1        0.0150
     22  N         23.6990  -21.1070  -10.7390 N.pl3   1  UNL1       -0.1810
     23  H         23.3680  -20.8600  -11.6740 H       1  UNL1        0.1460
     24  S         25.0390  -22.1460  -10.9670 S.O2    1  UNL1        0.2450
     25  O         24.7270  -23.3560  -10.2350 O.2     1  UNL1       -0.2060
     26  O         26.2690  -21.4170  -10.7520 O.2     1  UNL1       -0.2060
     27  C         24.9050  -22.4830  -12.7020 C.2     1  UNL1        0.0740
     28  C         24.2660  -21.5760  -13.5470 C.2     1  UNL1        0.0250
     29  C         24.1630  -21.8650  -14.9100 C.2     1  UNL1        0.0080
     30  C         24.7010  -23.0520  -15.4290 C.2     1  UNL1       -0.0620
     31  C         24.5560  -23.3760  -16.8870 C.3     1  UNL1        0.0480
     32  C         25.3200  -23.9620  -14.5620 C.2     1  UNL1        0.0080
     33  C         25.4260  -23.6810  -13.2000 C.2     1  UNL1        0.0250
@<TRIPOS>BOND
     1    31    30    1
     2    30    29    2
     3    30    32    1
     4    29    28    1
     5    32    33    2
     6    28    27    2
     7    33    27    1
     8    27    24    1
     9    23    22    1
    10    24    26    2
    11    24    22    1
    12    24    25    2
    13    22     1    1
    14     6     5    1
    15     7     1    2
    16     7     5    1
    17     1     2    1
    18     5     4    2
    19    21    19    1
    20     2     3    2
    21     4     3    1
    22     4     8    1
    23    20    19    1
    24    19    18    1
    25     8     9    2
    26     8    10   am
    27    11    10    1
    28    10    12    1
    29    18    12    2
    30    18    17    1
    31    12    13    1
    32    17    16    2
    33    13    14    1
    34    13    15    2
    35    16    15    1
