@<TRIPOS>MOLECULE
38691_out_ligand_01.pdbqt
 38 42 0 0 0
SMALL
GASTEIGER

@<TRIPOS>ATOM
      1  O         20.6300  -21.6880  -12.4780 O.2     1  UNL1       -0.2670
      2  C         21.5780  -22.0450  -11.7900 C.2     1  UNL1        0.2560
      3  N         21.5260  -22.6770  -10.5590 N.am    1  UNL1       -0.3230
      4  H         22.4010  -23.0020  -10.1750 H       1  UNL1        0.1690
      5  C         22.9540  -21.8180  -12.3170 C.2     1  UNL1        0.0320
      6  C         24.0890  -21.9860  -11.5150 C.2     1  UNL1        0.0170
      7  C         25.3630  -21.7540  -12.0450 C.2     1  UNL1        0.0100
      8  C         25.5180  -21.3360  -13.3760 C.2     1  UNL1       -0.0400
      9  C         24.3720  -21.1600  -14.1670 C.2     1  UNL1        0.0100
     10  C         23.1000  -21.3930  -13.6410 C.2     1  UNL1        0.0170
     11  C         26.9030  -21.0960  -13.9500 C.3     1  UNL1        0.1610
     12  N         26.8280  -20.7660  -15.3790 N.pl3   1  UNL1       -0.3760
     13  C         26.3820  -21.8640  -16.2450 C.3     1  UNL1        0.1230
     14  C         26.7520  -21.6040  -17.6940 C.3     1  UNL1        0.0240
     15  C         26.0540  -20.3370  -18.1520 C.3     1  UNL1        0.0420
     16  C         26.3060  -19.2030  -17.1870 C.2     1  UNL1       -0.0320
     17  C         26.1360  -17.8870  -17.6600 C.2     1  UNL1        0.0090
     18  C         26.6740  -19.4580  -15.8430 C.2     1  UNL1        0.0360
     19  C         26.3700  -16.7990  -16.8280 C.2     1  UNL1        0.0010
     20  C         26.7800  -17.0220  -15.5200 C.2     1  UNL1        0.0020
     21  C         26.9340  -18.3320  -15.0430 C.2     1  UNL1        0.0300
     22  C         20.3730  -23.0030   -9.8120 C.2     1  UNL1        0.0350
     23  C         19.1210  -22.4160  -10.0120 C.2     1  UNL1        0.0310
     24  C         18.0240  -22.7960   -9.2310 C.2     1  UNL1        0.0270
     25  C         18.1800  -23.7720   -8.2450 C.2     1  UNL1        0.0800
     26  C         19.4280  -24.3550   -8.0190 C.2     1  UNL1        0.0270
     27  C         20.5180  -23.9740   -8.8080 C.2     1  UNL1        0.0310
     28  S         16.8080  -24.2330   -7.2200 S.O2    1  UNL1        0.2640
     29  O         15.7380  -24.6300   -8.1200 O.2     1  UNL1       -0.2000
     30  O         17.2520  -25.1380   -6.1780 O.2     1  UNL1       -0.2000
     31  N         16.2880  -22.7970   -6.5360 N.pl3   1  UNL1       -0.2640
     32  H         15.2800  -22.7060   -6.5520 H       1  UNL1        0.1800
     33  C         17.0110  -22.2600   -5.4550 C.2     1  UNL1        0.1360
     34  C         18.1290  -21.4780   -5.7000 C.2     1  UNL1        0.0510
     35  C         18.8830  -21.0450   -4.6130 C.2     1  UNL1        0.0050
     36  C         18.5020  -21.4230   -3.3300 C.2     1  UNL1        0.0190
     37  C         17.3830  -22.2260   -3.1900 C.2     1  UNL1        0.1190
     38  N         16.6390  -22.6630   -4.2300 N.2     1  UNL1       -0.2430
@<TRIPOS>BOND
     1    15    14    1
     2    15    16    1
     3    14    13    1
     4    17    16    2
     5    17    19    1
     6    16    18    1
     7    19    20    2
     8    13    12    1
     9    18    12    1
    10    18    21    2
    11    20    21    1
    12    12    11    1
    13     9    10    1
    14     9     8    2
    15    11     8    1
    16    10     5    2
    17     8     7    1
    18     1     2    2
    19     5     2    1
    20     5     6    1
    21     7     6    2
    22     2     3   am
    23     3     4    1
    24     3    22    1
    25    23    22    2
    26    23    24    1
    27    22    27    1
    28    24    25    2
    29    27    26    2
    30    25    26    1
    31    25    28    1
    32    29    28    2
    33    28    31    1
    34    28    30    2
    35    32    31    1
    36    31    33    1
    37    34    33    2
    38    34    35    1
    39    33    38    1
    40    35    36    2
    41    38    37    2
    42    36    37    1
