@<TRIPOS>MOLECULE
38702_out_ligand_01.pdbqt
 36 39 0 0 0
SMALL
GASTEIGER

@<TRIPOS>ATOM
      1  C         20.9810  -22.5220  -10.6620 C.2     1  UNL1        0.0340
      2  C         20.7150  -23.4750   -9.6650 C.2     1  UNL1        0.0310
      3  C         19.4230  -23.6360   -9.1570 C.2     1  UNL1        0.0270
      4  C         18.3870  -22.8450   -9.6540 C.2     1  UNL1        0.0800
      5  C         18.6460  -21.8550  -10.6040 C.2     1  UNL1        0.0270
      6  C         19.9420  -21.7030  -11.1100 C.2     1  UNL1        0.0310
      7  N         22.2960  -22.4780  -11.1660 N.am    1  UNL1       -0.3250
      8  C         23.3760  -21.7660  -10.6500 C.2     1  UNL1        0.2510
      9  O         23.3780  -21.1280   -9.6010 O.2     1  UNL1       -0.2700
     10  H         22.4490  -22.9720  -12.0350 H       1  UNL1        0.1690
     11  C         24.6330  -21.8680  -11.5560 C.3     1  UNL1        0.2200
     12  C         25.7890  -21.0710  -10.9260 C.3     1  UNL1        0.0380
     13  C         26.3100  -19.9390  -11.8060 C.3     1  UNL1        0.0080
     14  O         24.4590  -21.4070  -12.8960 O.2     1  UNL1       -0.3370
     15  C         24.7070  -22.3770  -13.8280 C.2     1  UNL1        0.0700
     16  C         25.1410  -23.6140  -13.3600 C.2     1  UNL1        0.0370
     17  C         25.3800  -24.6520  -14.2580 C.2     1  UNL1        0.0030
     18  C         25.1690  -24.4530  -15.6240 C.2     1  UNL1        0.0070
     19  C         24.7180  -23.2160  -16.1020 C.2     1  UNL1       -0.0590
     20  C         24.4430  -23.0210  -17.5620 C.3     1  UNL1        0.0480
     21  C         24.4650  -22.1830  -15.1890 C.2     1  UNL1        0.0430
     22  S         16.7270  -23.0940   -9.0710 S.O2    1  UNL1        0.2630
     23  O         16.2460  -21.8180   -8.5810 O.2     1  UNL1       -0.2000
     24  O         15.9980  -23.8310  -10.0800 O.2     1  UNL1       -0.2000
     25  N         16.9290  -24.0640   -7.7020 N.pl3   1  UNL1       -0.2800
     26  H         16.7880  -25.0500   -7.8990 H       1  UNL1        0.1790
     27  C         16.5010  -23.5600   -6.4350 C.2     1  UNL1        0.0530
     28  C         15.3050  -24.0570   -5.9070 C.2     1  UNL1        0.0310
     29  C         14.8840  -23.6640   -4.6400 C.2     1  UNL1        0.0030
     30  C         15.6630  -22.7810   -3.8940 C.2     1  UNL1        0.0120
     31  C         16.8640  -22.2710   -4.4040 C.2     1  UNL1       -0.0240
     32  C         17.6390  -21.3940   -3.6270 C.2     1  UNL1        0.0120
     33  C         17.3030  -22.6480   -5.6980 C.2     1  UNL1        0.0010
     34  C         18.8410  -20.8770   -4.1090 C.2     1  UNL1        0.0010
     35  C         19.2810  -21.2260   -5.3830 C.2     1  UNL1        0.0010
     36  C         18.5250  -22.1010   -6.1660 C.2     1  UNL1        0.0140
@<TRIPOS>BOND
     1    20    19    1
     2    19    18    2
     3    19    21    1
     4    18    17    1
     5    21    15    2
     6    17    16    2
     7    15    16    1
     8    15    14    1
     9    14    11    1
    10    10     7    1
    11    13    12    1
    12    11    12    1
    13    11     8    1
    14     7     1    1
    15     7     8   am
    16     6     1    2
    17     6     5    1
    18     1     2    1
    19     8     9    2
    20     5     4    2
    21    24    22    2
    22     2     3    2
    23     4     3    1
    24     4    22    1
    25    22    23    2
    26    22    25    1
    27    26    25    1
    28    25    27    1
    29    27    28    2
    30    27    33    1
    31    36    33    1
    32    36    35    2
    33    28    29    1
    34    33    31    2
    35    35    34    1
    36    29    30    2
    37    31    30    1
    38    31    32    1
    39    34    32    2
