@<TRIPOS>MOLECULE
38703_out_ligand_01.pdbqt
 36 39 0 0 0
SMALL
GASTEIGER

@<TRIPOS>ATOM
      1  C         23.9310  -22.3410  -11.0800 C.2     1  UNL1        0.0250
      2  C         22.6060  -22.0940  -11.4470 C.2     1  UNL1        0.0250
      3  C         21.5620  -22.6200  -10.6840 C.2     1  UNL1        0.0190
      4  C         21.8380  -23.3640   -9.5300 C.2     1  UNL1        0.0320
      5  C         23.1650  -23.5930   -9.1520 C.2     1  UNL1        0.0190
      6  C         24.2080  -23.0730   -9.9230 C.2     1  UNL1        0.0250
      7  C         20.6980  -23.9080   -8.7460 C.2     1  UNL1        0.2520
      8  O         20.4270  -25.1010   -8.8120 O.2     1  UNL1       -0.2680
      9  N         19.9920  -22.9920   -7.9990 N.am    1  UNL1       -0.3440
     10  H         20.1160  -22.0160   -8.2170 H       1  UNL1        0.1630
     11  C         18.7350  -23.3550   -7.3570 C.3     1  UNL1        0.1520
     12  C         18.5460  -22.7100   -5.9830 C.2     1  UNL1       -0.0310
     13  C         19.0200  -21.4020   -5.7550 C.2     1  UNL1        0.0090
     14  C         18.8470  -20.7780   -4.5190 C.2     1  UNL1        0.0010
     15  C         18.1800  -21.4430   -3.4910 C.2     1  UNL1        0.0000
     16  C         17.6710  -22.7200   -3.7060 C.2     1  UNL1        0.0010
     17  C         17.8460  -23.3460   -4.9420 C.2     1  UNL1        0.0090
     18  C         17.5860  -23.1190   -8.3470 C.2     1  UNL1       -0.0250
     19  C         17.7950  -22.1490   -9.3520 C.2     1  UNL1        0.0100
     20  C         16.8130  -21.8550  -10.3000 C.2     1  UNL1        0.0010
     21  C         15.5980  -22.5240  -10.2640 C.2     1  UNL1        0.0010
     22  C         15.3600  -23.4740   -9.2730 C.2     1  UNL1        0.0070
     23  C         16.3330  -23.7760   -8.2990 C.2     1  UNL1       -0.0530
     24  C         15.9900  -24.8310   -7.2820 C.3     1  UNL1        0.0490
     25  N         25.0420  -21.7820  -11.8080 N.pl3   1  UNL1       -0.1760
     26  C         26.0430  -21.0690  -10.9780 C.3     1  UNL1        0.1360
     27  S         25.7110  -22.8990  -12.9380 S.O2    1  UNL1        0.2470
     28  O         24.8380  -24.0500  -13.0420 O.2     1  UNL1       -0.2050
     29  O         27.1200  -23.0510  -12.6290 O.2     1  UNL1       -0.2050
     30  C         25.5790  -22.0140  -14.4750 C.2     1  UNL1        0.0750
     31  C         24.8670  -22.5640  -15.5420 C.2     1  UNL1        0.0250
     32  C         24.7740  -21.8550  -16.7400 C.2     1  UNL1        0.0080
     33  C         25.3910  -20.6070  -16.8760 C.2     1  UNL1       -0.0620
     34  C         25.2540  -19.8290  -18.1530 C.3     1  UNL1        0.0480
     35  C         26.0810  -20.0570  -15.7870 C.2     1  UNL1        0.0080
     36  C         26.1790  -20.7600  -14.5850 C.2     1  UNL1        0.0250
@<TRIPOS>BOND
     1    34    33    1
     2    33    32    2
     3    33    35    1
     4    32    31    1
     5    35    36    2
     6    31    30    2
     7    36    30    1
     8    30    27    1
     9    28    27    2
    10    27    29    2
    11    27    25    1
    12    25     1    1
    13    25    26    1
    14     2     1    2
    15     2     3    1
    16     1     6    1
    17     3     4    2
    18    20    21    2
    19    20    19    1
    20    21    22    1
    21     6     5    2
    22     4     5    1
    23     4     7    1
    24    19    18    2
    25    22    23    2
    26     8     7    2
    27     7     9   am
    28    18    23    1
    29    18    11    1
    30    23    24    1
    31    10     9    1
    32     9    11    1
    33    11    12    1
    34    12    13    2
    35    12    17    1
    36    13    14    1
    37    17    16    2
    38    14    15    2
    39    16    15    1
