@<TRIPOS>MOLECULE
38710_out_ligand_01.pdbqt
 34 38 0 0 0
SMALL
GASTEIGER

@<TRIPOS>ATOM
      1  C         20.8790  -22.4810   -7.7310 C.2     1  UNL1        0.0320
      2  C         21.9470  -21.5770   -7.7700 C.2     1  UNL1        0.0170
      3  C         23.0690  -21.8480   -8.5590 C.2     1  UNL1        0.0100
      4  C         23.1390  -23.0250   -9.3160 C.2     1  UNL1       -0.0400
      5  C         22.0770  -23.9420   -9.2460 C.2     1  UNL1        0.0100
      6  C         20.9550  -23.6750   -8.4590 C.2     1  UNL1        0.0170
      7  C         19.6960  -22.1500   -6.8860 C.2     1  UNL1        0.2560
      8  O         19.7500  -21.1610   -6.1650 O.2     1  UNL1       -0.2670
      9  N         18.6250  -23.0060   -7.0370 N.am    1  UNL1       -0.3210
     10  H         18.6910  -23.7080   -7.7640 H       1  UNL1        0.1690
     11  C         17.4030  -23.0130   -6.3300 C.2     1  UNL1        0.0690
     12  C         17.2680  -22.5600   -5.0170 C.2     1  UNL1        0.0320
     13  C         16.0190  -22.5800   -4.3830 C.2     1  UNL1        0.0020
     14  C         14.8920  -23.0490   -5.0540 C.2     1  UNL1        0.0030
     15  C         15.0100  -23.5110   -6.3620 C.2     1  UNL1        0.0390
     16  C         16.2600  -23.5130   -6.9850 C.2     1  UNL1        0.1020
     17  O         16.3100  -23.9590   -8.2880 O.2     1  UNL1       -0.3090
     18  C         16.7120  -23.0690   -9.2640 C.2     1  UNL1        0.0760
     19  C         17.8770  -23.4250   -9.9500 C.2     1  UNL1        0.0370
     20  C         18.3650  -22.6150  -10.9760 C.2     1  UNL1        0.0030
     21  C         17.6940  -21.4410  -11.3130 C.2     1  UNL1        0.0000
     22  C         16.5390  -21.0750  -10.6220 C.2     1  UNL1        0.0030
     23  C         16.0500  -21.8840   -9.5940 C.2     1  UNL1        0.0370
     24  C         24.3640  -23.3290  -10.1560 C.3     1  UNL1        0.1610
     25  N         24.8800  -22.1080  -10.8020 N.pl3   1  UNL1       -0.3760
     26  C         26.3280  -21.8820  -10.6900 C.3     1  UNL1        0.1230
     27  C         27.0690  -22.4780  -11.8770 C.3     1  UNL1        0.0240
     28  C         26.6170  -21.7740  -13.1470 C.3     1  UNL1        0.0420
     29  C         25.1160  -21.6570  -13.2140 C.2     1  UNL1       -0.0320
     30  C         24.5210  -21.3490  -14.4500 C.2     1  UNL1        0.0090
     31  C         24.3210  -21.8230  -12.0630 C.2     1  UNL1        0.0360
     32  C         23.1390  -21.2130  -14.5580 C.2     1  UNL1        0.0010
     33  C         22.3430  -21.3690  -13.4300 C.2     1  UNL1        0.0020
     34  C         22.9300  -21.6640  -12.1970 C.2     1  UNL1        0.0300
@<TRIPOS>BOND
     1    32    30    1
     2    32    33    2
     3    30    29    2
     4    33    34    1
     5    29    28    1
     6    29    31    1
     7    28    27    1
     8    34    31    2
     9    31    25    1
    10    27    26    1
    11    21    20    2
    12    21    22    1
    13    20    19    1
    14    25    26    1
    15    25    24    1
    16    22    23    2
    17    24     4    1
    18    19    18    2
    19    23    18    1
    20     4     5    2
    21     4     3    1
    22    18    17    1
    23     5     6    1
    24     3     2    2
    25     6     1    2
    26    17    16    1
    27     2     1    1
    28    10     9    1
    29     1     7    1
    30     9     7   am
    31     9    11    1
    32    16    15    1
    33    16    11    2
    34     7     8    2
    35    15    14    2
    36    11    12    1
    37    14    13    1
    38    12    13    2
