@<TRIPOS>MOLECULE
38720_out_ligand_01.pdbqt
 43 46 0 0 0
SMALL
GASTEIGER

@<TRIPOS>ATOM
      1  N         21.1500  -22.3160   -7.9910 N.am    1  UNL1       -0.3230
      2  C         20.9200  -21.4610   -6.9310 C.2     1  UNL1        0.2560
      3  O         21.6840  -20.6340   -6.4520 O.2     1  UNL1       -0.2670
      4  H         20.4280  -22.9940   -8.2030 H       1  UNL1        0.1690
      5  C         19.5890  -21.6190   -6.2910 C.2     1  UNL1        0.0340
      6  C         19.3170  -21.1040   -5.0230 C.2     1  UNL1        0.0190
      7  C         18.0500  -21.2870   -4.4660 C.2     1  UNL1        0.0260
      8  C         17.0450  -21.9870   -5.1560 C.2     1  UNL1        0.0570
      9 CL         15.5440  -22.1330   -4.3260 Cl      1  UNL1       -0.0830
     10  C         17.3270  -22.5190   -6.4160 C.2     1  UNL1        0.1020
     11  C         18.6020  -22.3260   -6.9820 C.2     1  UNL1        0.0440
     12  S         16.1500  -23.4040   -7.4130 S.O2    1  UNL1        0.2650
     13  O         15.1800  -22.4280   -7.8700 O.2     1  UNL1       -0.2000
     14  O         15.6990  -24.5920   -6.7300 O.2     1  UNL1       -0.2000
     15  N         17.0350  -23.8280   -8.7840 N.pl3   1  UNL1       -0.2800
     16  H         16.8330  -24.7650   -9.1230 H       1  UNL1        0.1790
     17  C         17.4370  -22.8270   -9.7130 C.2     1  UNL1        0.0490
     18  C         16.5380  -21.7980  -10.0050 C.2     1  UNL1        0.0310
     19  C         16.8700  -20.8140  -10.9300 C.2     1  UNL1        0.0030
     20  C         18.1090  -20.8510  -11.5630 C.2     1  UNL1        0.0070
     21  C         19.0330  -21.8670  -11.2750 C.2     1  UNL1       -0.0540
     22  C         20.3630  -21.8520  -11.9830 C.3     1  UNL1        0.0490
     23  C         18.6960  -22.8810  -10.3450 C.2     1  UNL1       -0.0290
     24  C         19.7050  -23.9570  -10.0260 C.3     1  UNL1        0.0510
     25  C         22.3370  -22.4420   -8.7420 C.2     1  UNL1        0.0350
     26  C         22.9310  -21.3940   -9.4500 C.2     1  UNL1        0.0310
     27  C         24.1260  -21.5950  -10.1510 C.2     1  UNL1        0.0270
     28  C         24.7260  -22.8560  -10.1520 C.2     1  UNL1        0.0750
     29  C         24.1480  -23.9100   -9.4440 C.2     1  UNL1        0.0270
     30  C         22.9530  -23.7040   -8.7510 C.2     1  UNL1        0.0310
     31  S         26.2780  -23.0870  -10.9830 S.O2    1  UNL1        0.2480
     32  O         26.7490  -21.7650  -11.3490 O.2     1  UNL1       -0.2050
     33  O         27.1170  -23.9560  -10.1850 O.2     1  UNL1       -0.2050
     34  N         25.8630  -23.8320  -12.4080 N.pl3   1  UNL1       -0.1480
     35  H         25.1480  -24.5420  -12.2940 H       1  UNL1        0.1490
     36  C         25.6330  -23.0070  -13.5000 C.cat   1  UNL1        0.2160
     37  N         24.5150  -22.2830  -13.3930 N.2     1  UNL1       -0.2230
     38  C         24.1850  -21.5490  -14.4740 C.2     1  UNL1        0.0360
     39  C         24.9280  -21.5730  -15.6400 C.2     1  UNL1        0.0530
     40  C         22.9680  -20.6810  -14.3730 C.3     1  UNL1        0.0700
     41  C         26.0380  -22.3990  -15.6520 C.2     1  UNL1        0.0360
     42  C         26.8890  -22.5060  -16.8800 C.3     1  UNL1        0.0700
     43  N         26.3930  -23.1430  -14.5870 N.2     1  UNL1       -0.2230
@<TRIPOS>BOND
     1    42    41    1
     2    41    39    1
     3    41    43    2
     4    39    38    2
     5    43    36    1
     6    38    40    1
     7    38    37    1
     8    36    37    2
     9    36    34    1
    10    34    35    1
    11    34    31    1
    12    22    21    1
    13    20    21    2
    14    20    19    1
    15    32    31    2
    16    21    23    1
    17    31    33    2
    18    31    28    1
    19    19    18    2
    20    23    24    1
    21    23    17    2
    22    28    27    2
    23    28    29    1
    24    27    26    1
    25    18    17    1
    26    17    15    1
    27    26    25    2
    28    29    30    2
    29    16    15    1
    30    15    12    1
    31    30    25    1
    32    25     1    1
    33     4     1    1
    34     1     2   am
    35    13    12    2
    36    12    14    2
    37    12    10    1
    38    11    10    1
    39    11     5    2
    40     2     3    2
    41     2     5    1
    42    10     8    2
    43     5     6    1
    44     8     7    1
    45     8     9    1
    46     6     7    2
