@<TRIPOS>MOLECULE
38724_out_ligand_01.pdbqt
 38 41 0 0 0
SMALL
GASTEIGER

@<TRIPOS>ATOM
      1  C         19.0860  -22.1670  -10.5340 C.2     1  UNL1        0.0860
      2  C         20.4210  -22.6020  -10.5790 C.2     1  UNL1        0.0420
      3  C         21.3530  -21.9450  -11.3840 C.2     1  UNL1        0.0330
      4  C         20.9370  -20.8820  -12.1930 C.2     1  UNL1        0.0170
      5  C         19.6040  -20.4640  -12.1690 C.2     1  UNL1        0.0090
      6  C         18.6590  -21.0870  -11.3330 C.2     1  UNL1       -0.0390
      7  C         17.2430  -20.5850  -11.3710 C.3     1  UNL1        0.0500
      8  C         22.7650  -22.4160  -11.3620 C.2     1  UNL1        0.2520
      9  O         23.1540  -23.1410  -10.4560 O.2     1  UNL1       -0.2680
     10  N         23.5710  -21.9500  -12.3730 N.am    1  UNL1       -0.3440
     11  H         23.2500  -21.2120  -12.9780 H       1  UNL1        0.1630
     12  C         24.9900  -22.2770  -12.4370 C.3     1  UNL1        0.1520
     13  C         25.7740  -20.9650  -12.4130 C.2     1  UNL1       -0.0310
     14  C         26.1200  -20.4060  -11.1690 C.2     1  UNL1        0.0090
     15  C         26.7890  -19.1850  -11.0950 C.2     1  UNL1        0.0010
     16  C         27.1180  -18.4990  -12.2610 C.2     1  UNL1        0.0000
     17  C         26.7800  -19.0330  -13.5010 C.2     1  UNL1        0.0010
     18  C         26.1050  -20.2550  -13.5780 C.2     1  UNL1        0.0090
     19  C         25.3320  -23.2100  -13.6060 C.2     1  UNL1       -0.0250
     20  C         24.6610  -23.0890  -14.8420 C.2     1  UNL1        0.0100
     21  C         24.9630  -23.9240  -15.9200 C.2     1  UNL1        0.0010
     22  C         25.9470  -24.8960  -15.7880 C.2     1  UNL1        0.0010
     23  C         26.6290  -25.0320  -14.5810 C.2     1  UNL1        0.0070
     24  C         26.3410  -24.1990  -13.4860 C.2     1  UNL1       -0.0530
     25  C         27.1060  -24.4090  -12.2050 C.3     1  UNL1        0.0490
     26  S         17.9830  -23.0510   -9.4350 S.O2    1  UNL1        0.2630
     27  O         16.8180  -23.4670  -10.1880 O.2     1  UNL1       -0.2000
     28  O         18.7610  -24.0280   -8.7030 O.2     1  UNL1       -0.2000
     29  N         17.4610  -21.8460   -8.3730 N.pl3   1  UNL1       -0.2800
     30  H         17.9550  -20.9670   -8.5080 H       1  UNL1        0.1790
     31  C         17.0090  -22.1900   -7.0650 C.2     1  UNL1        0.0480
     32  C         15.7230  -22.7120   -6.8920 C.2     1  UNL1        0.0310
     33  C         15.2770  -23.1090   -5.6300 C.2     1  UNL1        0.0090
     34  C         16.1070  -22.9760   -4.5160 C.2     1  UNL1       -0.0610
     35  C         15.6500  -23.4120   -3.1540 C.3     1  UNL1        0.0480
     36  C         17.3900  -22.4390   -4.6870 C.2     1  UNL1        0.0150
     37  C         17.8510  -22.0300   -5.9520 C.2     1  UNL1       -0.0340
     38  C         19.2440  -21.4780   -6.0660 C.3     1  UNL1        0.0500
@<TRIPOS>BOND
     1    21    22    2
     2    21    20    1
     3    22    23    1
     4    20    19    2
     5    23    24    2
     6    19    24    1
     7    19    12    1
     8    18    17    1
     9    18    13    2
    10    17    16    2
    11    24    25    1
    12    11    10    1
    13    12    13    1
    14    12    10    1
    15    13    14    1
    16    10     8   am
    17    16    15    1
    18     4     5    2
    19     4     3    1
    20     5     6    1
    21     3     8    1
    22     3     2    2
    23     7     6    1
    24     8     9    2
    25     6     1    2
    26    14    15    2
    27     2     1    1
    28     1    26    1
    29    27    26    2
    30    26    28    2
    31    26    29    1
    32    30    29    1
    33    29    31    1
    34    31    32    2
    35    31    37    1
    36    32    33    1
    37    38    37    1
    38    37    36    2
    39    33    34    2
    40    36    34    1
    41    34    35    1
