@<TRIPOS>MOLECULE
38727_out_ligand_01.pdbqt
 35 38 0 0 0
SMALL
GASTEIGER

@<TRIPOS>ATOM
      1  C         17.7400  -23.2760   -8.8950 C.2     1  UNL1        0.0860
      2  C         19.1380  -23.4160   -8.9120 C.2     1  UNL1        0.0420
      3  C         19.8960  -22.8110   -9.9170 C.2     1  UNL1        0.0330
      4  C         19.2600  -22.0600  -10.9080 C.2     1  UNL1        0.0170
      5  C         17.8700  -21.9250  -10.8970 C.2     1  UNL1        0.0090
      6  C         17.0860  -22.5240   -9.8920 C.2     1  UNL1       -0.0390
      7  C         15.5960  -22.3430   -9.9590 C.3     1  UNL1        0.0500
      8  C         21.3720  -22.9750   -9.8900 C.2     1  UNL1        0.2510
      9  O         21.8640  -24.0520   -9.5770 O.2     1  UNL1       -0.2680
     10  N         22.1050  -21.8720  -10.2740 N.am    1  UNL1       -0.3530
     11  H         21.6260  -21.1250  -10.7570 H       1  UNL1        0.1630
     12  C         23.5340  -21.9630  -10.4740 C.3     1  UNL1        0.1610
     13  C         23.8630  -22.0640  -11.9420 C.2     1  UNL1       -0.0400
     14  C         23.0710  -21.4250  -12.9030 C.2     1  UNL1        0.0110
     15  C         23.3640  -21.5490  -14.2670 C.2     1  UNL1        0.0300
     16  C         24.4530  -22.3240  -14.6940 C.2     1  UNL1        0.0390
     17  C         25.2400  -22.9730  -13.7320 C.2     1  UNL1        0.0300
     18  C         24.9430  -22.8440  -12.3700 C.2     1  UNL1        0.0110
     19  N         24.7530  -22.4520  -16.0820 N.pl3   1  UNL1       -0.3150
     20  C         25.4320  -21.5540  -16.8810 C.2     1  UNL1        0.1170
     21  C         25.4760  -22.1110  -18.1370 C.2     1  UNL1        0.1350
     22  N         24.8480  -23.3210  -18.1510 N.2     1  UNL1       -0.2540
     23  C         24.4280  -23.5010  -16.9180 C.2     1  UNL1        0.2140
     24  S         16.8580  -24.1280   -7.5900 S.O2    1  UNL1        0.2630
     25  O         17.8170  -24.9090   -6.8390 O.2     1  UNL1       -0.2000
     26  O         15.6970  -24.7710   -8.1660 O.2     1  UNL1       -0.2000
     27  N         16.2760  -22.8710   -6.6300 N.pl3   1  UNL1       -0.2800
     28  H         15.6800  -22.2270   -7.1420 H       1  UNL1        0.1790
     29  C         17.0500  -22.3720   -5.5400 C.2     1  UNL1        0.0480
     30  C         18.1600  -21.5600   -5.7900 C.2     1  UNL1        0.0300
     31  C         18.9020  -21.0300   -4.7350 C.2     1  UNL1        0.0020
     32  C         18.5480  -21.3220   -3.4220 C.2     1  UNL1        0.0010
     33  C         17.4570  -22.1510   -3.1650 C.2     1  UNL1        0.0090
     34  C         16.7000  -22.6930   -4.2160 C.2     1  UNL1       -0.0350
     35  C         15.5270  -23.5720   -3.8840 C.3     1  UNL1        0.0500
@<TRIPOS>BOND
     1    22    21    1
     2    22    23    2
     3    21    20    2
     4    23    19    1
     5    20    19    1
     6    19    16    1
     7    16    15    2
     8    16    17    1
     9    15    14    1
    10    17    18    2
    11    14    13    2
    12    18    13    1
    13    13    12    1
    14     4     5    2
    15     4     3    1
    16     5     6    1
    17    11    10    1
    18    12    10    1
    19    10     8   am
    20     7     6    1
    21     3     8    1
    22     3     2    2
    23     6     1    2
    24     8     9    2
    25     2     1    1
    26     1    24    1
    27    26    24    2
    28    24    25    2
    29    24    27    1
    30    28    27    1
    31    27    29    1
    32    30    29    2
    33    30    31    1
    34    29    34    1
    35    31    32    2
    36    34    35    1
    37    34    33    2
    38    32    33    1
