@<TRIPOS>MOLECULE
38737_out_ligand_01.pdbqt
 34 36 0 0 0
SMALL
GASTEIGER

@<TRIPOS>ATOM
      1  C         19.9070  -23.2600   -9.2710 C.2     1  UNL1        0.0330
      2  C         19.4150  -22.5140  -10.3460 C.2     1  UNL1        0.0170
      3  C         18.0410  -22.3060  -10.4890 C.2     1  UNL1        0.0090
      4  C         17.1230  -22.8510   -9.5760 C.2     1  UNL1       -0.0390
      5  C         15.6620  -22.5710   -9.7900 C.3     1  UNL1        0.0500
      6  C         17.6260  -23.6140   -8.5040 C.2     1  UNL1        0.0860
      7  C         19.0110  -23.8140   -8.3540 C.2     1  UNL1        0.0420
      8  C         21.3790  -23.4510   -9.1560 C.2     1  UNL1        0.2510
      9  N         22.1580  -22.3240   -9.3080 N.am    1  UNL1       -0.3530
     10  H         21.7400  -21.4900   -9.6970 H       1  UNL1        0.1630
     11  O         21.8360  -24.5740   -8.9650 O.2     1  UNL1       -0.2680
     12  C         23.5990  -22.4080   -9.3640 C.3     1  UNL1        0.1610
     13  C         24.1050  -21.9840  -10.7200 C.2     1  UNL1       -0.0380
     14  C         23.3580  -22.2700  -11.8690 C.2     1  UNL1        0.0120
     15  C         23.8030  -21.8570  -13.1260 C.2     1  UNL1        0.0400
     16  C         25.0010  -21.1470  -13.2560 C.2     1  UNL1        0.1010
     17  C         25.7590  -20.8490  -12.1060 C.2     1  UNL1        0.1020
     18  C         25.3030  -21.2650  -10.8470 C.2     1  UNL1        0.0480
     19  O         25.5150  -20.7030  -14.4490 O.2     1  UNL1       -0.3530
     20  C         24.7050  -20.8450  -15.6070 C.3     1  UNL1        0.2100
     21  O         26.9190  -20.1460  -12.3160 O.2     1  UNL1       -0.3530
     22  C         27.0790  -18.9110  -11.6330 C.3     1  UNL1        0.2100
     23  S         16.5680  -24.3410   -7.2540 S.O2    1  UNL1        0.2630
     24  O         15.4320  -24.9320   -7.9320 O.2     1  UNL1       -0.2000
     25  O         17.3840  -25.1430   -6.3690 O.2     1  UNL1       -0.2000
     26  N         16.0560  -23.0060   -6.3600 N.pl3   1  UNL1       -0.2800
     27  H         15.0580  -23.0210   -6.1620 H       1  UNL1        0.1790
     28  C         16.9330  -22.3930   -5.4170 C.2     1  UNL1        0.0480
     29  C         17.9300  -21.5240   -5.8720 C.2     1  UNL1        0.0300
     30  C         18.8270  -20.9420   -4.9750 C.2     1  UNL1        0.0020
     31  C         18.7270  -21.2230   -3.6160 C.2     1  UNL1        0.0010
     32  C         17.7230  -22.0730   -3.1530 C.2     1  UNL1        0.0090
     33  C         16.8050  -22.6590   -4.0420 C.2     1  UNL1       -0.0350
     34  C         15.7470  -23.5700   -3.4900 C.3     1  UNL1        0.0500
@<TRIPOS>BOND
     1    20    19    1
     2    19    16    1
     3    16    15    2
     4    16    17    1
     5    15    14    1
     6    21    17    1
     7    21    22    1
     8    17    18    2
     9    14    13    2
    10    18    13    1
    11    13    12    1
    12     3     2    1
    13     3     4    2
    14     2     1    2
    15     5     4    1
    16    10     9    1
    17     4     6    1
    18    12     9    1
    19     9     8   am
    20     1     8    1
    21     1     7    1
    22     8    11    2
    23     6     7    2
    24     6    23    1
    25    24    23    2
    26    23    25    2
    27    23    26    1
    28    26    27    1
    29    26    28    1
    30    29    28    2
    31    29    30    1
    32    28    33    1
    33    30    31    2
    34    33    34    1
    35    33    32    2
    36    31    32    1
