@<TRIPOS>MOLECULE
38735_out_ligand_01.pdbqt
 33 35 0 0 0
SMALL
GASTEIGER

@<TRIPOS>ATOM
      1  C         21.1870  -22.0600  -11.1820 C.2     1  UNL1        0.0330
      2  C         20.6580  -21.1120  -12.0610 C.2     1  UNL1        0.0170
      3  C         19.3050  -20.7700  -11.9900 C.2     1  UNL1        0.0090
      4  C         18.4560  -21.3500  -11.0300 C.2     1  UNL1       -0.0390
      5  C         17.0100  -20.9400  -11.0290 C.3     1  UNL1        0.0500
      6  C         19.0020  -22.2980  -10.1420 C.2     1  UNL1        0.0860
      7  C         20.3600  -22.6500  -10.2240 C.2     1  UNL1        0.0420
      8  C         22.6250  -22.4450  -11.2150 C.2     1  UNL1        0.2520
      9  N         23.4160  -21.7450  -12.1010 N.am    1  UNL1       -0.3480
     10  H         22.9550  -21.2240  -12.8340 H       1  UNL1        0.1630
     11  O         23.0310  -23.3510  -10.4980 O.2     1  UNL1       -0.2680
     12  C         24.7890  -22.1520  -12.3740 C.3     1  UNL1        0.1170
     13  C         25.7350  -20.9400  -12.2800 C.3     1  UNL1        0.0250
     14  C         26.1830  -20.6670  -10.8480 C.3     1  UNL1        0.0070
     15  C         24.8270  -22.8660  -13.7180 C.2     1  UNL1       -0.0350
     16  C         24.4300  -22.1650  -14.8700 C.2     1  UNL1        0.0090
     17  C         24.4760  -22.7660  -16.1290 C.2     1  UNL1        0.0010
     18  C         24.9290  -24.0760  -16.2580 C.2     1  UNL1        0.0000
     19  C         25.3410  -24.7820  -15.1300 C.2     1  UNL1        0.0010
     20  C         25.2970  -24.1800  -13.8690 C.2     1  UNL1        0.0090
     21  S         18.0230  -23.1290   -8.8930 S.O2    1  UNL1        0.2630
     22  O         16.7690  -23.5370   -9.4910 O.2     1  UNL1       -0.2000
     23  O         18.8650  -24.1090   -8.2400 O.2     1  UNL1       -0.2000
     24  N         17.6490  -21.8930   -7.8070 N.pl3   1  UNL1       -0.2800
     25  H         18.1270  -21.0240   -8.0260 H       1  UNL1        0.1790
     26  C         17.3600  -22.1930   -6.4420 C.2     1  UNL1        0.0490
     27  C         16.2040  -22.9110   -6.1160 C.2     1  UNL1        0.0370
     28  C         15.9200  -23.2580   -4.7890 C.2     1  UNL1       -0.0600
     29  C         14.7130  -24.0860   -4.4650 C.3     1  UNL1        0.0480
     30  C         16.8120  -22.8800   -3.7860 C.2     1  UNL1        0.0070
     31  C         17.9530  -22.1380   -4.0980 C.2     1  UNL1        0.0090
     32  C         18.2380  -21.7780   -5.4250 C.2     1  UNL1       -0.0350
     33  C         19.4860  -20.9910   -5.7100 C.3     1  UNL1        0.0500
@<TRIPOS>BOND
     1    18    17    2
     2    18    19    1
     3    17    16    1
     4    19    20    2
     5    16    15    2
     6    20    15    1
     7    15    12    1
     8    10     9    1
     9    12    13    1
    10    12     9    1
    11    13    14    1
    12     9     8   am
    13     2     3    1
    14     2     1    2
    15     3     4    2
    16     8     1    1
    17     8    11    2
    18     1     7    1
    19     4     5    1
    20     4     6    1
    21     7     6    2
    22     6    21    1
    23    22    21    2
    24    21    23    2
    25    21    24    1
    26    25    24    1
    27    24    26    1
    28    26    27    2
    29    26    32    1
    30    27    28    1
    31    33    32    1
    32    32    31    2
    33    28    29    1
    34    28    30    2
    35    31    30    1
