@<TRIPOS>MOLECULE
38752_out_ligand_01.pdbqt
 37 40 0 0 0
SMALL
GASTEIGER

@<TRIPOS>ATOM
      1  C         23.0120  -23.6220   -9.6270 C.2     1  UNL1        0.0330
      2  C         24.1570  -24.0360   -8.9470 C.2     1  UNL1        0.0170
      3  C         25.4210  -23.7240   -9.4550 C.2     1  UNL1        0.0090
      4  C         25.5730  -23.0110  -10.6590 C.2     1  UNL1       -0.0390
      5  C         26.9710  -22.7110  -11.1240 C.3     1  UNL1        0.0500
      6  C         24.4120  -22.6220  -11.3500 C.2     1  UNL1        0.0860
      7  C         23.1410  -22.9190  -10.8270 C.2     1  UNL1        0.0420
      8  C         21.6410  -23.9350   -9.1420 C.2     1  UNL1        0.2520
      9  N         20.7820  -22.8700   -9.0210 N.am    1  UNL1       -0.3440
     10  H         21.0440  -21.9600   -9.3670 H       1  UNL1        0.1630
     11  O         21.3360  -25.0980   -8.9080 O.2     1  UNL1       -0.2680
     12  C         19.3900  -23.0380   -8.6330 C.3     1  UNL1        0.1510
     13  C         19.1080  -22.5800   -7.2020 C.2     1  UNL1       -0.0310
     14  C         19.6840  -21.4300   -6.6400 C.2     1  UNL1        0.0100
     15  C         19.3810  -21.0400   -5.3310 C.2     1  UNL1        0.0070
     16  C         18.5010  -21.7950   -4.5500 C.2     1  UNL1       -0.0620
     17  C         18.1500  -21.3660   -3.1560 C.3     1  UNL1        0.0480
     18  C         17.9170  -22.9380   -5.1020 C.2     1  UNL1        0.0070
     19  C         18.2210  -23.3290   -6.4080 C.2     1  UNL1        0.0100
     20  C         18.5250  -22.3550   -9.6890 C.2     1  UNL1       -0.0310
     21  C         17.1270  -22.2640   -9.5710 C.2     1  UNL1        0.0090
     22  C         16.3730  -21.5930  -10.5360 C.2     1  UNL1        0.0010
     23  C         17.0040  -20.9900  -11.6220 C.2     1  UNL1        0.0000
     24  C         18.3900  -21.0540  -11.7440 C.2     1  UNL1        0.0010
     25  C         19.1460  -21.7280  -10.7830 C.2     1  UNL1        0.0090
     26  S         24.4190  -21.7420  -12.9100 S.O2    1  UNL1        0.2630
     27  O         25.2630  -20.5710  -12.8200 O.2     1  UNL1       -0.2000
     28  O         23.0360  -21.6190  -13.3240 O.2     1  UNL1       -0.2000
     29  N         25.1280  -22.8550  -13.9690 N.pl3   1  UNL1       -0.2810
     30  H         26.0480  -23.1510  -13.6440 H       1  UNL1        0.1790
     31  C         24.9520  -22.6750  -15.3700 C.2     1  UNL1        0.0430
     32  C         24.4580  -23.7090  -16.1610 C.2     1  UNL1        0.0300
     33  C         24.2510  -23.5010  -17.5230 C.2     1  UNL1        0.0030
     34  C         24.5270  -22.2550  -18.0920 C.2     1  UNL1        0.0070
     35  C         25.0100  -21.2060  -17.3000 C.2     1  UNL1       -0.0600
     36  C         25.3340  -19.8750  -17.9130 C.3     1  UNL1        0.0480
     37  C         25.2370  -21.4300  -15.9360 C.2     1  UNL1        0.0370
@<TRIPOS>BOND
     1    34    33    2
     2    34    35    1
     3    36    35    1
     4    33    32    1
     5    35    37    2
     6    32    31    2
     7    37    31    1
     8    31    29    1
     9    29    30    1
    10    29    26    1
    11    28    26    2
    12    26    27    2
    13    26     6    1
    14    24    23    2
    15    24    25    1
    16    23    22    1
    17     6     7    1
    18     6     4    2
    19     5     4    1
    20     7     1    2
    21    25    20    2
    22     4     3    1
    23    22    21    2
    24    20    21    1
    25    20    12    1
    26     1     8    1
    27     1     2    1
    28     3     2    2
    29    10     9    1
    30     8     9   am
    31     8    11    2
    32     9    12    1
    33    12    13    1
    34    13    14    2
    35    13    19    1
    36    14    15    1
    37    19    18    2
    38    15    16    2
    39    18    16    1
    40    16    17    1
