@<TRIPOS>MOLECULE
38753_out_ligand_01.pdbqt
 34 37 0 0 0
SMALL
GASTEIGER

@<TRIPOS>ATOM
      1  C         18.4610  -22.2440  -10.2240 C.2     1  UNL1        0.0810
      2  C         19.7720  -22.7460  -10.2090 C.2     1  UNL1        0.0420
      3  C         20.7410  -22.2090  -11.0620 C.2     1  UNL1        0.0330
      4  C         20.4040  -21.1620  -11.9230 C.2     1  UNL1        0.0170
      5  C         19.0970  -20.6650  -11.9400 C.2     1  UNL1        0.0090
      6  C         18.1070  -21.1910  -11.0910 C.2     1  UNL1       -0.0390
      7  C         16.7190  -20.6180  -11.1750 C.3     1  UNL1        0.0500
      8  C         22.1230  -22.7560  -10.9920 C.2     1  UNL1        0.2520
      9  O         22.4100  -23.5720  -10.1250 O.2     1  UNL1       -0.2680
     10  N         23.0070  -22.3080  -11.9450 N.am    1  UNL1       -0.3480
     11  H         22.7110  -21.6670  -12.6660 H       1  UNL1        0.1630
     12  C         24.4020  -22.7310  -11.9600 C.3     1  UNL1        0.1180
     13  C         25.1260  -22.1120  -10.7520 C.3     1  UNL1        0.0300
     14  C         26.6360  -22.2480  -10.8870 C.3     1  UNL1        0.0070
     15  C         27.1200  -21.4750  -12.1080 C.3     1  UNL1        0.0390
     16  C         26.3400  -21.8110  -13.3560 C.2     1  UNL1       -0.0500
     17  C         26.9040  -21.5110  -14.6060 C.2     1  UNL1        0.0070
     18  C         25.0550  -22.3860  -13.2900 C.2     1  UNL1       -0.0290
     19  C         26.2240  -21.8110  -15.7840 C.2     1  UNL1        0.0010
     20  C         24.9740  -22.4170  -15.7290 C.2     1  UNL1        0.0010
     21  C         24.3970  -22.7080  -14.4930 C.2     1  UNL1        0.0100
     22  S         17.2750  -22.9970   -9.1160 S.O2    1  UNL1        0.2460
     23  O         16.6160  -24.0700   -9.8310 O.2     1  UNL1       -0.2060
     24  O         16.5230  -21.9350   -8.4830 O.2     1  UNL1       -0.2060
     25  N         18.3290  -23.7380   -7.9950 N.pl3   1  UNL1       -0.1810
     26  H         18.0600  -24.7210   -7.9340 H       1  UNL1        0.1460
     27  C         18.3150  -23.1290   -6.6960 C.2     1  UNL1        0.0230
     28  C         18.9090  -21.8810   -6.5170 C.2     1  UNL1        0.0310
     29  C         18.8890  -21.2650   -5.2590 C.2     1  UNL1       -0.0600
     30  C         18.2280  -21.9010   -4.1990 C.2     1  UNL1        0.0130
     31  C         19.5080  -19.9130   -5.0640 C.3     1  UNL1        0.0480
     32  C         17.5960  -23.1380   -4.3820 C.2     1  UNL1       -0.0600
     33  C         16.9130  -23.8150   -3.2310 C.3     1  UNL1        0.0480
     34  C         17.6510  -23.7540   -5.6390 C.2     1  UNL1        0.0310
@<TRIPOS>BOND
     1    19    20    2
     2    19    17    1
     3    20    21    1
     4    17    16    2
     5    21    18    2
     6    16    18    1
     7    16    15    1
     8    18    12    1
     9    11    10    1
    10    15    14    1
    11    12    10    1
    12    12    13    1
    13    10     8   am
    14     5     4    2
    15     5     6    1
    16     4     3    1
    17     7     6    1
    18     6     1    2
    19     3     8    1
    20     3     2    2
    21     8     9    2
    22    14    13    1
    23     1     2    1
    24     1    22    1
    25    23    22    2
    26    22    24    2
    27    22    25    1
    28    25    26    1
    29    25    27    1
    30    27    28    2
    31    27    34    1
    32    28    29    1
    33    34    32    2
    34    29    31    1
    35    29    30    2
    36    32    30    1
    37    32    33    1
