@<TRIPOS>MOLECULE
38765_out_ligand_01.pdbqt
 35 38 0 0 0
SMALL
GASTEIGER

@<TRIPOS>ATOM
      1  C         18.1650  -23.0770   -6.3600 C.2     1  UNL1        0.0290
      2  C         19.3300  -22.9560   -7.1240 C.2     1  UNL1        0.0420
      3  C         20.2270  -21.9060   -6.8870 C.2     1  UNL1        0.0340
      4  C         19.9680  -21.0020   -5.8480 C.2     1  UNL1        0.0170
      5  C         18.8040  -21.1250   -5.0840 C.2     1  UNL1        0.0090
      6  C         17.8890  -22.1590   -5.3320 C.2     1  UNL1       -0.0400
      7  C         16.6420  -22.2540   -4.4980 C.3     1  UNL1        0.0500
      8  C         21.4540  -21.8180   -7.7370 C.2     1  UNL1        0.2560
      9  O         22.3930  -21.1390   -7.3300 O.2     1  UNL1       -0.2670
     10  N         21.4200  -22.5510   -8.9120 N.am    1  UNL1       -0.3230
     11  H         20.6180  -23.1480   -9.0680 H       1  UNL1        0.1690
     12  C         22.4190  -22.6150   -9.9080 C.2     1  UNL1        0.0350
     13  C         22.0750  -22.1780  -11.1890 C.2     1  UNL1        0.0320
     14  C         23.0110  -22.2020  -12.2340 C.2     1  UNL1        0.0320
     15  C         24.3130  -22.6720  -12.0320 C.2     1  UNL1        0.0370
     16  C         24.6480  -23.1090  -10.7420 C.2     1  UNL1        0.0320
     17  C         23.7160  -23.0760   -9.6930 C.2     1  UNL1        0.0320
     18  N         25.2640  -22.7260  -13.0850 N.am    1  UNL1       -0.3180
     19  C         25.9530  -21.5550  -13.5730 C.3     1  UNL1        0.1330
     20  C         27.1210  -22.1100  -14.3600 C.3     1  UNL1        0.0290
     21  C         26.5810  -23.4160  -14.9120 C.3     1  UNL1        0.1050
     22  C         25.5760  -23.8480  -13.8680 C.2     1  UNL1        0.2240
     23  O         25.1160  -24.9780  -13.8210 O.2     1  UNL1       -0.2730
     24  N         17.2890  -24.1980   -6.5870 N.pl3   1  UNL1       -0.1810
     25  H         16.8550  -24.4900   -5.7050 H       1  UNL1        0.1460
     26  S         15.9820  -23.8400   -7.6390 S.O2    1  UNL1        0.2450
     27  O         15.5090  -25.1200   -8.1300 O.2     1  UNL1       -0.2060
     28  O         15.0980  -22.8680   -7.0330 O.2     1  UNL1       -0.2060
     29  C         16.8180  -23.0230   -8.9770 C.2     1  UNL1        0.0740
     30  C         17.8740  -23.6780   -9.6260 C.2     1  UNL1        0.0250
     31  C         18.5360  -23.0360  -10.6740 C.2     1  UNL1        0.0080
     32  C         18.1480  -21.7460  -11.0760 C.2     1  UNL1       -0.0620
     33  C         18.8830  -21.0560  -12.1880 C.3     1  UNL1        0.0480
     34  C         17.0940  -21.1010  -10.4090 C.2     1  UNL1        0.0080
     35  C         16.4230  -21.7370   -9.3650 C.2     1  UNL1        0.0250
@<TRIPOS>BOND
     1    21    20    1
     2    21    22    1
     3    20    19    1
     4    22    23    2
     5    22    18   am
     6    19    18    1
     7    18    15    1
     8    14    15    2
     9    14    13    1
    10    33    32    1
    11    15    16    1
    12    13    12    2
    13    32    31    2
    14    32    34    1
    15    16    17    2
    16    31    30    1
    17    34    35    2
    18    12    17    1
    19    12    10    1
    20    30    29    2
    21    35    29    1
    22    11    10    1
    23    29    26    1
    24    10     8   am
    25    27    26    2
    26     8     9    2
    27     8     3    1
    28    26    28    2
    29    26    24    1
    30     2     3    1
    31     2     1    2
    32     3     4    2
    33    24     1    1
    34    24    25    1
    35     1     6    1
    36     4     5    1
    37     6     5    2
    38     6     7    1
