@<TRIPOS>MOLECULE
38769_out_ligand_01.pdbqt
 30 33 0 0 0
SMALL
GASTEIGER

@<TRIPOS>ATOM
      1  C         19.6320  -21.9240  -11.0130 C.2     1  UNL1        0.0320
      2  C         20.1110  -21.2770  -12.1580 C.2     1  UNL1        0.0170
      3  C         21.4540  -21.4070  -12.5250 C.2     1  UNL1        0.0100
      4  C         22.3400  -22.1720  -11.7510 C.2     1  UNL1       -0.0300
      5  C         21.8520  -22.8100  -10.6010 C.2     1  UNL1        0.0100
      6  C         20.5100  -22.6820  -10.2310 C.2     1  UNL1        0.0170
      7  C         18.2110  -21.8150  -10.5770 C.2     1  UNL1        0.2520
      8  N         17.8050  -22.6940   -9.5960 N.am    1  UNL1       -0.3490
      9  H         18.5060  -23.1970   -9.0730 H       1  UNL1        0.1630
     10  O         17.4810  -20.9570  -11.0610 O.2     1  UNL1       -0.2680
     11  C         16.4720  -22.6240   -9.0140 C.3     1  UNL1        0.1140
     12  C         15.5930  -23.7910   -9.4760 C.3     1  UNL1        0.0370
     13  C         16.5880  -22.5600   -7.5000 C.2     1  UNL1       -0.0360
     14  C         15.4380  -22.6870   -6.7080 C.2     1  UNL1        0.0100
     15  C         15.5160  -22.6070   -5.3150 C.2     1  UNL1        0.0070
     16  C         16.7470  -22.4030   -4.6840 C.2     1  UNL1       -0.0620
     17  C         16.8240  -22.2860   -3.1900 C.3     1  UNL1        0.0480
     18  C         17.8940  -22.2490   -5.4690 C.2     1  UNL1        0.0070
     19  C         17.8160  -22.3290   -6.8620 C.2     1  UNL1        0.0100
     20  C         23.7960  -22.3090  -12.1480 C.3     1  UNL1        0.3110
     21  N         24.2150  -21.6590  -13.3930 N.3     1  UNL1        0.0970
     22  C         25.2910  -20.6790  -13.2290 C.3     1  UNL1        0.2770
     23  C         25.4050  -19.7970  -14.4810 C.3     1  UNL1        0.0690
     24  C         25.4090  -20.5960  -15.7610 C.2     1  UNL1       -0.0490
     25  C         25.8110  -20.0000  -16.9630 C.2     1  UNL1        0.0070
     26  C         24.9480  -21.9260  -15.7600 C.2     1  UNL1       -0.0240
     27  C         25.7830  -20.7270  -18.1530 C.2     1  UNL1        0.0010
     28  C         25.3450  -22.0480  -18.1520 C.2     1  UNL1        0.0010
     29  C         24.9330  -22.6480  -16.9620 C.2     1  UNL1        0.0090
     30  C         24.5420  -22.6070  -14.4660 C.3     1  UNL1        0.3110
@<TRIPOS>BOND
     1    27    28    2
     2    27    25    1
     3    28    29    1
     4    25    24    2
     5    29    26    2
     6    24    26    1
     7    24    23    1
     8    26    30    1
     9    23    22    1
    10    30    21    1
    11    21    22    1
    12    21    20    1
    13     3     2    1
    14     3     4    2
    15     2     1    2
    16    20     4    1
    17     4     5    1
    18    10     7    2
    19     1     7    1
    20     1     6    1
    21     5     6    2
    22     7     8   am
    23     8     9    1
    24     8    11    1
    25    12    11    1
    26    11    13    1
    27    13    19    2
    28    13    14    1
    29    19    18    1
    30    14    15    2
    31    18    16    2
    32    15    16    1
    33    16    17    1
