@<TRIPOS>MOLECULE
3876_out_ligand_01.pdbqt
 41 44 0 0 0
SMALL
GASTEIGER

@<TRIPOS>ATOM
      1  O         21.2930  -24.6680   -9.1500 O.2     1  UNL1       -0.2720
      2  C         20.9190  -23.5670   -8.7500 C.2     1  UNL1        0.2360
      3  N         21.4220  -22.3390   -9.1590 N.am    1  UNL1       -0.3260
      4  H         21.1010  -21.5180   -8.6600 H       1  UNL1        0.1690
      5  C         19.8380  -23.4440   -7.6760 C.3     1  UNL1        0.2170
      6  N         18.4860  -23.7680   -8.2090 N.pl3   1  UNL1       -0.1630
      7  C         18.0570  -22.9280   -9.3020 C.2     1  UNL1        0.0250
      8  C         18.6460  -23.1410  -10.5500 C.2     1  UNL1        0.0240
      9  C         18.2990  -22.3360  -11.6360 C.2     1  UNL1        0.0020
     10  C         17.3710  -21.3080  -11.4720 C.2     1  UNL1        0.0000
     11  C         16.7940  -21.0820  -10.2220 C.2     1  UNL1        0.0020
     12  C         17.1410  -21.8860   -9.1330 C.2     1  UNL1        0.0240
     13  S         17.2790  -24.0290   -7.0300 S.O2    1  UNL1        0.2510
     14  O         17.4990  -25.3150   -6.3990 O.2     1  UNL1       -0.2050
     15  O         15.9980  -23.7190   -7.6230 O.2     1  UNL1       -0.2050
     16  C         17.6670  -22.8160   -5.7960 C.2     1  UNL1        0.1080
     17  C         18.6620  -21.8760   -6.1100 C.2     1  UNL1        0.0270
     18  C         19.0670  -20.9340   -5.1600 C.2     1  UNL1        0.0020
     19  C         18.4920  -20.9240   -3.8880 C.2     1  UNL1        0.0030
     20  C         17.5050  -21.8550   -3.5630 C.2     1  UNL1        0.0380
     21  C         17.1000  -22.7970   -4.5230 C.2     1  UNL1        0.1250
     22  N         16.0420  -23.6960   -4.1330 N.pl3   1  UNL1       -0.1140
     23  O         14.9060  -23.4290   -4.5470 O.2     1  UNL1       -0.5320
     24  O         16.3410  -24.6030   -3.3500 O.2     1  UNL1       -0.5320
     25  C         22.3910  -22.1020  -10.1570 C.2     1  UNL1        0.0340
     26  C         23.6770  -21.7450   -9.7240 C.2     1  UNL1        0.0310
     27  C         24.7020  -21.5130  -10.6450 C.2     1  UNL1        0.0270
     28  C         24.4320  -21.6140  -12.0130 C.2     1  UNL1        0.0800
     29  C         23.1530  -21.9470  -12.4610 C.2     1  UNL1        0.0270
     30  C         22.1360  -22.1920  -11.5310 C.2     1  UNL1        0.0310
     31  S         25.7450  -21.3500  -13.1760 S.O2    1  UNL1        0.2630
     32  O         26.5520  -20.2660  -12.6530 O.2     1  UNL1       -0.2000
     33  O         26.3400  -22.6240  -13.5180 O.2     1  UNL1       -0.2000
     34  N         24.9390  -20.7220  -14.5260 N.pl3   1  UNL1       -0.2810
     35  H         25.0430  -19.7080  -14.5580 H       1  UNL1        0.1790
     36  C         25.0600  -21.4240  -15.7580 C.2     1  UNL1        0.0420
     37  C         24.2910  -22.5620  -15.9910 C.2     1  UNL1        0.0300
     38  C         24.4290  -23.2590  -17.1930 C.2     1  UNL1        0.0020
     39  C         25.3450  -22.8240  -18.1530 C.2     1  UNL1        0.0000
     40  C         26.1280  -21.6950  -17.9080 C.2     1  UNL1        0.0020
     41  C         25.9870  -20.9940  -16.7080 C.2     1  UNL1        0.0300
@<TRIPOS>BOND
     1    39    40    2
     2    39    38    1
     3    40    41    1
     4    38    37    2
     5    41    36    2
     6    37    36    1
     7    36    34    1
     8    35    34    1
     9    34    31    1
    10    33    31    2
    11    31    32    2
    12    31    28    1
    13    29    28    2
    14    29    30    1
    15    28    27    1
    16     9    10    2
    17     9     8    1
    18    30    25    2
    19    10    11    1
    20    27    26    2
    21     8     7    2
    22    11    12    2
    23    25    26    1
    24    25     3    1
    25     7    12    1
    26     7     6    1
    27     3     2   am
    28     3     4    1
    29     1     2    2
    30     2     5    1
    31     6     5    1
    32     6    13    1
    33    15    13    2
    34    13    14    2
    35    13    16    1
    36    17    16    2
    37    17    18    1
    38    16    21    1
    39    18    19    2
    40    23    22    2
    41    21    22    1
    42    21    20    2
    43    22    24    2
    44    19    20    1
