@<TRIPOS>MOLECULE
38761_out_ligand_01.pdbqt
 33 35 0 0 0
SMALL
GASTEIGER

@<TRIPOS>ATOM
      1  C         19.3150  -22.3340  -10.2000 C.2     1  UNL1        0.0550
      2  C         20.5930  -22.9080  -10.3210 C.2     1  UNL1        0.0430
      3  C         21.4820  -22.4540  -11.2930 C.2     1  UNL1        0.0240
      4  C         21.1170  -21.4090  -12.1390 C.2     1  UNL1        0.0260
      5  C         19.8470  -20.8400  -12.0340 C.2     1  UNL1        0.0260
      6  C         18.9390  -21.3020  -11.0740 C.2     1  UNL1        0.0490
      7 CL         17.3750  -20.5690  -11.0760 Cl      1  UNL1       -0.0830
      8  C         18.4430  -22.9090   -9.1410 C.2     1  UNL1        0.2530
      9  N         18.9940  -23.0690   -7.8950 N.am    1  UNL1       -0.3520
     10  H         19.9760  -22.8760   -7.7440 H       1  UNL1        0.1630
     11  O         17.3020  -23.2550   -9.4250 O.2     1  UNL1       -0.2680
     12  C         18.2660  -23.7000   -6.8180 C.3     1  UNL1        0.1640
     13  C         18.1910  -22.7900   -5.6220 C.2     1  UNL1       -0.0070
     14  C         18.9340  -21.5960   -5.6180 C.2     1  UNL1        0.0110
     15  C         18.9170  -20.7460   -4.5110 C.2     1  UNL1        0.0010
     16  C         18.1680  -21.0830   -3.3860 C.2     1  UNL1        0.0030
     17  C         17.4280  -22.2640   -3.3720 C.2     1  UNL1        0.0370
     18  C         17.4250  -23.1000   -4.4910 C.2     1  UNL1        0.0760
     19  O         16.7230  -24.2770   -4.4550 O.2     1  UNL1       -0.3510
     20  C         15.3420  -24.0360   -4.1530 C.3     1  UNL1        0.1710
     21  C         14.7130  -23.3560   -5.3560 C.3     1  UNL1        0.0340
     22  N         22.7990  -23.0080  -11.3810 N.pl3   1  UNL1       -0.1810
     23  H         22.8030  -24.0060  -11.1570 H       1  UNL1        0.1460
     24  S         23.9430  -22.2510  -10.3640 S.O2    1  UNL1        0.2450
     25  O         23.2780  -21.2870   -9.5130 O.2     1  UNL1       -0.2060
     26  O         24.7800  -23.3020   -9.8250 O.2     1  UNL1       -0.2060
     27  C         24.8900  -21.3450  -11.5620 C.2     1  UNL1        0.0740
     28  C         25.9590  -20.5460  -11.1530 C.2     1  UNL1        0.0250
     29  C         26.6890  -19.8360  -12.1090 C.2     1  UNL1        0.0080
     30  C         26.3560  -19.9250  -13.4690 C.2     1  UNL1       -0.0620
     31  C         27.1210  -19.1320  -14.4890 C.3     1  UNL1        0.0480
     32  C         25.2650  -20.7120  -13.8600 C.2     1  UNL1        0.0080
     33  C         24.5310  -21.4260  -12.9100 C.2     1  UNL1        0.0250
@<TRIPOS>BOND
     1    31    30    1
     2    32    30    2
     3    32    33    1
     4    30    29    1
     5    33    27    2
     6     4     5    2
     7     4     3    1
     8    29    28    2
     9     5     6    1
    10    27    28    1
    11    27    24    1
    12    22     3    1
    13    22    23    1
    14    22    24    1
    15     3     2    2
    16     7     6    1
    17     6     1    2
    18    24    26    2
    19    24    25    2
    20     2     1    1
    21     1     8    1
    22    11     8    2
    23     8     9   am
    24     9    10    1
    25     9    12    1
    26    12    13    1
    27    13    14    2
    28    13    18    1
    29    14    15    1
    30    21    20    1
    31    15    16    2
    32    18    19    1
    33    18    17    2
    34    19    20    1
    35    16    17    1
