@<TRIPOS>MOLECULE
38779_out_ligand_01.pdbqt
 31 35 0 0 0
SMALL
GASTEIGER

@<TRIPOS>ATOM
      1  C         21.9640  -23.0030  -10.0580 C.2     1  UNL1        0.0320
      2  C         21.1150  -22.1010  -10.7190 C.2     1  UNL1        0.0170
      3  C         19.7300  -22.1760  -10.5360 C.2     1  UNL1        0.0100
      4  C         19.1730  -23.1400   -9.6800 C.2     1  UNL1       -0.0300
      5  C         20.0300  -24.0450   -9.0320 C.2     1  UNL1        0.0100
      6  C         21.4140  -23.9680   -9.2090 C.2     1  UNL1        0.0170
      7  C         23.4470  -22.9490  -10.2030 C.2     1  UNL1        0.2520
      8  O         24.1690  -23.5500   -9.4140 O.2     1  UNL1       -0.2680
      9  N         23.9250  -22.2170  -11.2650 N.am    1  UNL1       -0.3480
     10  H         23.2880  -21.8410  -11.9640 H       1  UNL1        0.1630
     11  C         25.3480  -22.0930  -11.5530 C.3     1  UNL1        0.1180
     12  C         25.7460  -20.6070  -11.4430 C.3     1  UNL1        0.0300
     13  C         27.1210  -20.3500  -12.0420 C.3     1  UNL1        0.0070
     14  C         27.1140  -20.6840  -13.5360 C.3     1  UNL1        0.0390
     15  C         26.5230  -22.0480  -13.8360 C.2     1  UNL1       -0.0500
     16  C         26.7860  -22.6380  -15.0870 C.2     1  UNL1        0.0070
     17  C         25.6730  -22.7030  -12.9190 C.2     1  UNL1       -0.0290
     18  C         26.2410  -23.8830  -15.4250 C.2     1  UNL1        0.0010
     19  C         25.4330  -24.5560  -14.5120 C.2     1  UNL1        0.0010
     20  C         25.1560  -23.9740  -13.2650 C.2     1  UNL1        0.0100
     21  C         17.6690  -23.2070   -9.4850 C.3     1  UNL1        0.3110
     22  N         17.2570  -23.1950   -8.0720 N.3     1  UNL1        0.0970
     23  C         15.7940  -23.1780   -7.9570 C.3     1  UNL1        0.2770
     24  C         15.2590  -23.1880   -6.4870 C.3     1  UNL1        0.0690
     25  C         16.2460  -22.6650   -5.4650 C.2     1  UNL1       -0.0490
     26  C         15.9540  -22.7660   -4.0990 C.2     1  UNL1        0.0070
     27  C         17.4720  -22.1060   -5.8780 C.2     1  UNL1       -0.0240
     28  C         16.8750  -22.3090   -3.1530 C.2     1  UNL1        0.0010
     29  C         18.0790  -21.7360   -3.5570 C.2     1  UNL1        0.0010
     30  C         18.3710  -21.6180   -4.9150 C.2     1  UNL1        0.0090
     31  C         17.7990  -22.0260   -7.3540 C.3     1  UNL1        0.3110
@<TRIPOS>BOND
     1    18    16    1
     2    18    19    2
     3    16    15    2
     4    19    20    1
     5    15    14    1
     6    15    17    1
     7    14    13    1
     8    20    17    2
     9    17    11    1
    10    13    12    1
    11    10     9    1
    12    11    12    1
    13    11     9    1
    14     9     7   am
    15     2     3    1
    16     2     1    2
    17     3     4    2
    18     7     1    1
    19     7     8    2
    20     1     6    1
    21     4    21    1
    22     4     5    1
    23    21    22    1
    24     6     5    2
    25    22    23    1
    26    22    31    1
    27    23    24    1
    28    31    27    1
    29    24    25    1
    30    27    25    2
    31    27    30    1
    32    25    26    1
    33    30    29    2
    34    26    28    2
    35    29    28    1
