@<TRIPOS>MOLECULE
38780_out_ligand_01.pdbqt
 38 42 0 0 0
SMALL
GASTEIGER

@<TRIPOS>ATOM
      1  O         20.6470  -20.7820  -11.4650 O.2     1  UNL1       -0.2670
      2  C         21.3530  -21.7810  -11.5390 C.2     1  UNL1        0.2560
      3  N         21.1310  -22.9950  -10.9100 N.am    1  UNL1       -0.3230
      4  H         21.7040  -23.7730  -11.2000 H       1  UNL1        0.1690
      5  C         22.5580  -21.7280  -12.4210 C.2     1  UNL1        0.0320
      6  C         23.7100  -22.4160  -12.0140 C.2     1  UNL1        0.0170
      7  C         24.8590  -22.4100  -12.8090 C.2     1  UNL1        0.0100
      8  C         24.8670  -21.7200  -14.0290 C.2     1  UNL1       -0.0300
      9  C         23.7080  -21.0430  -14.4390 C.2     1  UNL1        0.0100
     10  C         22.5570  -21.0500  -13.6460 C.2     1  UNL1        0.0170
     11  C         26.1000  -21.7260  -14.9080 C.3     1  UNL1        0.3110
     12  N         26.6360  -20.3800  -15.1630 N.3     1  UNL1        0.0970
     13  C         26.3790  -19.5090  -14.0040 C.3     1  UNL1        0.2770
     14  C         27.0930  -18.1620  -14.1670 C.3     1  UNL1        0.0690
     15  C         26.8310  -17.5330  -15.5110 C.2     1  UNL1       -0.0490
     16  C         27.1130  -16.1780  -15.7170 C.2     1  UNL1        0.0070
     17  C         26.3600  -18.3220  -16.5770 C.2     1  UNL1       -0.0240
     18  C         26.9030  -15.6020  -16.9680 C.2     1  UNL1        0.0010
     19  C         26.4150  -16.3730  -18.0220 C.2     1  UNL1        0.0010
     20  C         26.1410  -17.7250  -17.8280 C.2     1  UNL1        0.0090
     21  C         26.0270  -19.7890  -16.3750 C.3     1  UNL1        0.3110
     22  C         20.1220  -23.2980   -9.9710 C.2     1  UNL1        0.0350
     23  C         18.7980  -23.0230  -10.3440 C.2     1  UNL1        0.0310
     24  C         17.7360  -23.2960   -9.4740 C.2     1  UNL1        0.0270
     25  C         18.0040  -23.8400   -8.2170 C.2     1  UNL1        0.0750
     26  C         19.3140  -24.1400   -7.8410 C.2     1  UNL1        0.0270
     27  C         20.3680  -23.8670   -8.7190 C.2     1  UNL1        0.0310
     28  S         16.6570  -24.1830   -7.1080 S.O2    1  UNL1        0.2470
     29  O         17.1520  -25.0390   -6.0490 O.2     1  UNL1       -0.2050
     30  O         15.5270  -24.5850   -7.9220 O.2     1  UNL1       -0.2050
     31  N         16.2750  -22.6820   -6.4620 N.pl3   1  UNL1       -0.1650
     32  H         16.1240  -21.9830   -7.1820 H       1  UNL1        0.1470
     33  C         17.0910  -22.1770   -5.4320 C.2     1  UNL1        0.1160
     34  C         18.2190  -21.4110   -5.6480 C.2     1  UNL1        0.0450
     35  C         18.9490  -20.9980   -4.5350 C.2     1  UNL1        0.0050
     36  C         18.5270  -21.3790   -3.2620 C.2     1  UNL1        0.0190
     37  C         17.3920  -22.1630   -3.1580 C.2     1  UNL1        0.1180
     38  N         16.6570  -22.5750   -4.2160 N.2     1  UNL1       -0.2480
@<TRIPOS>BOND
     1    19    20    2
     2    19    18    1
     3    20    17    1
     4    18    16    2
     5    17    21    1
     6    17    15    2
     7    21    12    1
     8    16    15    1
     9    15    14    1
    10    12    11    1
    11    12    13    1
    12    11     8    1
    13     9     8    2
    14     9    10    1
    15    14    13    1
    16     8     7    1
    17    10     5    2
    18     7     6    2
    19     5     6    1
    20     5     2    1
    21     2     1    2
    22     2     3   am
    23     4     3    1
    24     3    22    1
    25    23    22    2
    26    23    24    1
    27    22    27    1
    28    24    25    2
    29    27    26    2
    30    25    26    1
    31    25    28    1
    32    30    28    2
    33    32    31    1
    34    28    31    1
    35    28    29    2
    36    31    33    1
    37    34    33    2
    38    34    35    1
    39    33    38    1
    40    35    36    2
    41    38    37    2
    42    36    37    1
