@<TRIPOS>MOLECULE
38814_out_ligand_01.pdbqt
 34 36 0 0 0
SMALL
GASTEIGER

@<TRIPOS>ATOM
      1  C         20.0780  -23.3750   -9.3220 C.2     1  UNL1        0.0330
      2  C         19.6720  -22.5540  -10.3690 C.2     1  UNL1        0.0170
      3  C         18.3210  -22.2380  -10.5120 C.2     1  UNL1        0.0090
      4  C         17.3620  -22.7220   -9.6030 C.2     1  UNL1       -0.0390
      5  C         15.9240  -22.3480   -9.8370 C.3     1  UNL1        0.0500
      6  C         17.7930  -23.5650   -8.5570 C.2     1  UNL1        0.0860
      7  C         19.1470  -23.9050   -8.4290 C.2     1  UNL1        0.0420
      8  C         21.5010  -23.7290   -9.1700 C.2     1  UNL1        0.2530
      9  N         22.4590  -22.7630   -9.4640 N.am    1  UNL1       -0.3480
     10  C         22.1420  -21.4040   -9.8780 C.3     1  UNL1        0.1530
     11  O         21.7580  -24.8710   -8.7970 O.2     1  UNL1       -0.2670
     12  C         23.8510  -23.1870   -9.5640 C.3     1  UNL1        0.1640
     13  C         24.4840  -22.7320  -10.8610 C.2     1  UNL1       -0.0370
     14  C         24.0920  -23.2910  -12.0850 C.2     1  UNL1        0.0120
     15  C         24.7100  -22.8900  -13.2720 C.2     1  UNL1        0.0400
     16  C         25.7260  -21.9270  -13.2560 C.2     1  UNL1        0.1010
     17  C         26.1180  -21.3500  -12.0300 C.2     1  UNL1        0.1020
     18  C         25.4960  -21.7600  -10.8440 C.2     1  UNL1        0.0480
     19  O         26.3920  -21.4820  -14.3720 O.2     1  UNL1       -0.3530
     20  C         25.6820  -21.4820  -15.6050 C.3     1  UNL1        0.2100
     21  O         27.1210  -20.4100  -12.0930 O.2     1  UNL1       -0.3530
     22  C         26.8460  -19.1320  -11.5340 C.3     1  UNL1        0.2100
     23  S         16.6670  -24.2610   -7.3610 S.O2    1  UNL1        0.2630
     24  O         15.4940  -24.7420   -8.0580 O.2     1  UNL1       -0.2000
     25  O         17.4170  -25.1450   -6.4960 O.2     1  UNL1       -0.2000
     26  N         16.1770  -22.9130   -6.4830 N.pl3   1  UNL1       -0.2800
     27  H         15.5390  -22.3200   -7.0040 H       1  UNL1        0.1790
     28  C         17.0090  -22.3290   -5.4820 C.2     1  UNL1        0.0480
     29  C         18.0990  -21.5330   -5.8420 C.2     1  UNL1        0.0300
     30  C         18.9210  -20.9630   -4.8680 C.2     1  UNL1        0.0020
     31  C         18.6680  -21.1980   -3.5240 C.2     1  UNL1        0.0010
     32  C         17.5980  -22.0110   -3.1530 C.2     1  UNL1        0.0090
     33  C         16.7650  -22.5970   -4.1230 C.2     1  UNL1       -0.0350
     34  C         15.6290  -23.4650   -3.6650 C.3     1  UNL1        0.0500
@<TRIPOS>BOND
     1    20    19    1
     2    19    16    1
     3    15    16    2
     4    15    14    1
     5    16    17    1
     6    21    17    1
     7    21    22    1
     8    14    13    2
     9    17    18    2
    10    13    18    1
    11    13    12    1
    12     3     2    1
    13     3     4    2
    14     2     1    2
    15    10     9    1
    16     5     4    1
    17     4     6    1
    18    12     9    1
    19     9     8   am
    20     1     8    1
    21     1     7    1
    22     8    11    2
    23     6     7    2
    24     6    23    1
    25    24    23    2
    26    23    25    2
    27    23    26    1
    28    27    26    1
    29    26    28    1
    30    29    28    2
    31    29    30    1
    32    28    33    1
    33    30    31    2
    34    33    34    1
    35    33    32    2
    36    31    32    1
