@<TRIPOS>MOLECULE
38819_out_ligand_01.pdbqt
 34 37 0 0 0
SMALL
GASTEIGER

@<TRIPOS>ATOM
      1  C         23.0050  -22.3140  -11.6620 C.2     1  UNL1        0.0970
      2  C         22.4160  -22.9130  -10.5320 C.2     1  UNL1        0.0430
      3  C         21.0400  -22.7930  -10.3110 C.2     1  UNL1        0.0330
      4  C         20.2540  -22.0950  -11.2310 C.2     1  UNL1        0.0190
      5  C         20.8430  -21.4950  -12.3470 C.2     1  UNL1        0.0260
      6  C         22.2220  -21.5940  -12.5670 C.2     1  UNL1        0.0570
      7 CL         22.8350  -20.8180  -13.9800 Cl      1  UNL1       -0.0830
      8  C         20.3730  -23.4220   -9.1370 C.2     1  UNL1        0.2520
      9  O         20.8570  -24.4250   -8.6270 O.2     1  UNL1       -0.2680
     10  N         19.2040  -22.8290   -8.7120 N.am    1  UNL1       -0.3480
     11  H         18.7230  -22.1920   -9.3300 H       1  UNL1        0.1630
     12  C         18.4010  -23.4240   -7.6500 C.3     1  UNL1        0.1180
     13  C         16.9940  -23.7450   -8.1950 C.3     1  UNL1        0.0300
     14  C         15.8930  -23.9170   -7.1410 C.3     1  UNL1        0.0070
     15  C         16.4060  -23.9790   -5.7080 C.3     1  UNL1        0.0390
     16  C         17.3510  -22.8360   -5.4480 C.2     1  UNL1       -0.0500
     17  C         17.2870  -22.1030   -4.2570 C.2     1  UNL1        0.0070
     18  C         18.3440  -22.5490   -6.4080 C.2     1  UNL1       -0.0290
     19  C         18.2030  -21.0820   -4.0130 C.2     1  UNL1        0.0010
     20  C         19.2000  -20.8040   -4.9460 C.2     1  UNL1        0.0010
     21  C         19.2790  -21.5410   -6.1300 C.2     1  UNL1        0.0100
     22  S         24.7570  -22.4910  -11.8780 S.O2    1  UNL1        0.2470
     23  O         25.2570  -21.2440  -12.4080 O.2     1  UNL1       -0.2050
     24  O         25.2820  -23.0490  -10.6460 O.2     1  UNL1       -0.2050
     25  N         24.8490  -23.7480  -13.0250 N.pl3   1  UNL1       -0.1810
     26  H         25.4620  -24.4690  -12.6420 H       1  UNL1        0.1460
     27  C         25.3350  -23.3210  -14.3080 C.2     1  UNL1        0.0230
     28  C         26.6280  -22.8230  -14.4190 C.2     1  UNL1        0.0250
     29  C         27.1210  -22.4470  -15.6680 C.2     1  UNL1        0.0090
     30  C         26.3310  -22.5800  -16.8220 C.2     1  UNL1       -0.0560
     31  C         26.9010  -22.1690  -18.1530 C.3     1  UNL1        0.0490
     32  C         25.0280  -23.1050  -16.7100 C.2     1  UNL1       -0.0540
     33  C         24.5440  -23.4800  -15.4460 C.2     1  UNL1        0.0310
     34  C         24.1500  -23.2840  -17.9180 C.3     1  UNL1        0.0490
@<TRIPOS>BOND
     1    31    30    1
     2    34    32    1
     3    30    32    2
     4    30    29    1
     5    32    33    1
     6    29    28    2
     7    33    27    2
     8    28    27    1
     9    27    25    1
    10     7     6    1
    11    25    26    1
    12    25    22    1
    13     6     5    1
    14     6     1    2
    15    23    22    2
    16     5     4    2
    17    22     1    1
    18    22    24    2
    19     1     2    1
    20     4     3    1
    21     2     3    2
    22     3     8    1
    23    11    10    1
    24     8    10   am
    25     8     9    2
    26    10    12    1
    27    13    12    1
    28    13    14    1
    29    12    18    1
    30    14    15    1
    31    18    21    1
    32    18    16    2
    33    21    20    2
    34    15    16    1
    35    16    17    1
    36    20    19    1
    37    17    19    2
