@<TRIPOS>MOLECULE
38822_out_ligand_01.pdbqt
 38 41 0 0 0
SMALL
GASTEIGER

@<TRIPOS>ATOM
      1  C         20.9340  -22.1100  -11.3160 C.2     1  UNL1        0.0330
      2  C         20.3370  -21.2100  -12.2000 C.2     1  UNL1        0.0170
      3  C         18.9660  -20.9470  -12.1160 C.2     1  UNL1        0.0090
      4  C         18.1570  -21.5780  -11.1530 C.2     1  UNL1       -0.0390
      5  C         16.7000  -21.2080  -11.1100 C.3     1  UNL1        0.0500
      6  C         18.7720  -22.4660  -10.2510 C.2     1  UNL1        0.0860
      7  C         20.1520  -22.7200  -10.3310 C.2     1  UNL1        0.0420
      8  C         22.3900  -22.4290  -11.3590 C.2     1  UNL1        0.2520
      9  N         23.1590  -21.6670  -12.2100 N.am    1  UNL1       -0.3440
     10  H         22.7140  -21.0750  -12.8940 H       1  UNL1        0.1630
     11  O         22.8340  -23.3520  -10.6850 O.2     1  UNL1       -0.2680
     12  C         24.5680  -21.9580  -12.4370 C.3     1  UNL1        0.1520
     13  C         24.6740  -22.6940  -13.7800 C.2     1  UNL1       -0.0250
     14  C         23.8840  -22.2900  -14.8770 C.2     1  UNL1        0.0100
     15  C         23.9380  -22.9660  -16.0960 C.2     1  UNL1        0.0010
     16  C         24.7670  -24.0740  -16.2380 C.2     1  UNL1        0.0010
     17  C         25.5410  -24.5060  -15.1620 C.2     1  UNL1        0.0070
     18  C         25.5000  -23.8360  -13.9270 C.2     1  UNL1       -0.0530
     19  C         26.3520  -24.3550  -12.7980 C.3     1  UNL1        0.0490
     20  C         25.4680  -20.7230  -12.3200 C.2     1  UNL1       -0.0310
     21  C         26.0000  -20.2750  -11.0990 C.2     1  UNL1        0.0090
     22  C         26.8210  -19.1450  -11.0470 C.2     1  UNL1        0.0010
     23  C         27.1200  -18.4400  -12.2110 C.2     1  UNL1        0.0000
     24  C         26.6050  -18.8690  -13.4290 C.2     1  UNL1        0.0010
     25  C         25.7920  -20.0030  -13.4860 C.2     1  UNL1        0.0090
     26  S         17.8710  -23.2770   -8.9320 S.O2    1  UNL1        0.2630
     27  O         18.8240  -23.9740   -8.0910 O.2     1  UNL1       -0.2000
     28  O         16.7610  -23.9980   -9.5180 O.2     1  UNL1       -0.2000
     29  N         17.2820  -21.9920   -8.0100 N.pl3   1  UNL1       -0.2800
     30  H         16.7440  -21.3340   -8.5670 H       1  UNL1        0.1790
     31  C         16.9750  -22.1530   -6.6220 C.2     1  UNL1        0.0490
     32  C         15.7260  -22.6570   -6.2470 C.2     1  UNL1        0.0310
     33  C         15.3920  -22.7930   -4.9030 C.2     1  UNL1        0.0030
     34  C         16.3070  -22.4250   -3.9210 C.2     1  UNL1        0.0070
     35  C         17.5800  -21.9430   -4.2680 C.2     1  UNL1       -0.0540
     36  C         18.5380  -21.5930   -3.1530 C.3     1  UNL1        0.0490
     37  C         17.9360  -21.8260   -5.6360 C.2     1  UNL1       -0.0290
     38  C         19.3040  -21.3340   -6.0400 C.3     1  UNL1        0.0510
@<TRIPOS>BOND
     1    16    15    2
     2    16    17    1
     3    15    14    1
     4    17    18    2
     5    14    13    2
     6    18    13    1
     7    18    19    1
     8    13    12    1
     9    25    24    1
    10    25    20    2
    11    24    23    2
    12    10     9    1
    13    12    20    1
    14    12     9    1
    15    20    21    1
    16    23    22    1
    17     9     8   am
    18     2     3    1
    19     2     1    2
    20     3     4    2
    21     8     1    1
    22     8    11    2
    23     1     7    1
    24     4     5    1
    25     4     6    1
    26    21    22    2
    27     7     6    2
    28     6    26    1
    29    28    26    2
    30    26    27    2
    31    26    29    1
    32    30    29    1
    33    29    31    1
    34    31    32    2
    35    31    37    1
    36    32    33    1
    37    38    37    1
    38    37    35    2
    39    33    34    2
    40    35    34    1
    41    35    36    1
