@<TRIPOS>MOLECULE
38842_out_ligand_01.pdbqt
 35 38 0 0 0
SMALL
GASTEIGER

@<TRIPOS>ATOM
      1  C         22.8560  -22.2610  -11.3660 C.2     1  UNL1        0.0740
      2  C         21.4850  -22.3080  -11.5440 C.2     1  UNL1        0.0370
      3  C         20.7500  -22.3570  -10.3100 C.2     1  UNL1       -0.0160
      4  C         19.3550  -22.4240  -10.0770 C.2     1  UNL1        0.0370
      5  C         18.8620  -22.5020   -8.7690 C.2     1  UNL1        0.0250
      6  C         19.7360  -22.4850   -7.6890 C.2     1  UNL1        0.0260
      7  C         21.1170  -22.4120   -7.8920 C.2     1  UNL1        0.0210
      8  C         21.6070  -22.3570   -9.2110 C.2     1  UNL1        0.0160
      9  S         23.2520  -22.2940   -9.7000 S.3     1  UNL1       -0.0840
     10  N         17.4550  -22.6120   -8.4880 N.pl3   1  UNL1       -0.1760
     11  C         16.5720  -22.3900   -9.6570 C.3     1  UNL1        0.1360
     12  S         16.9920  -23.9910   -7.5580 S.O2    1  UNL1        0.2500
     13  O         16.0350  -24.7300   -8.3640 O.2     1  UNL1       -0.2050
     14  O         18.1840  -24.6690   -7.0930 O.2     1  UNL1       -0.2050
     15  C         16.0820  -23.2820   -6.1960 C.2     1  UNL1        0.1080
     16  C         14.9910  -22.4540   -6.5200 C.2     1  UNL1        0.0340
     17  C         14.2120  -21.8750   -5.5140 C.2     1  UNL1       -0.0600
     18  C         13.0700  -20.9670   -5.8640 C.3     1  UNL1        0.0480
     19  C         14.5480  -22.1190   -4.1820 C.2     1  UNL1        0.0090
     20  C         15.6290  -22.9480   -3.8580 C.2     1  UNL1        0.0390
     21  C         16.4090  -23.5420   -4.8590 C.2     1  UNL1        0.0910
     22  O         17.4780  -24.3480   -4.6000 O.2     1  UNL1       -0.3540
     23  C         18.0700  -24.2930   -3.3080 C.3     1  UNL1        0.2100
     24  C         23.9400  -22.2090  -12.3510 C.2     1  UNL1        0.2630
     25  N         23.6650  -21.3900  -13.4380 N.am    1  UNL1       -0.3220
     26  H         22.8160  -20.8470  -13.3930 H       1  UNL1        0.1690
     27  O         24.9890  -22.8280  -12.2030 O.2     1  UNL1       -0.2670
     28  C         24.4680  -21.1590  -14.5770 C.2     1  UNL1        0.0370
     29  C         25.2570  -20.0020  -14.5720 C.2     1  UNL1        0.0290
     30  C         26.0740  -19.6930  -15.6600 C.2     1  UNL1        0.0050
     31  C         26.1120  -20.5350  -16.7700 C.2     1  UNL1        0.0370
     32  C         25.3300  -21.6890  -16.7930 C.2     1  UNL1        0.0700
     33  C         24.5110  -21.9930  -15.6960 C.2     1  UNL1        0.0660
     34  O         25.2700  -22.5940  -17.8180 O.2     1  UNL1       -0.3560
     35  C         24.0630  -23.3310  -17.9630 C.3     1  UNL1        0.2100
@<TRIPOS>BOND
     1    35    34    1
     2    34    32    1
     3    32    31    2
     4    32    33    1
     5    31    30    1
     6    33    28    2
     7    30    29    2
     8    28    29    1
     9    28    25    1
    10    25    26    1
    11    25    24   am
    12    24    27    2
    13    24     1    1
    14     2     1    2
    15     2     3    1
    16     1     9    1
    17     3     4    2
    18     3     8    1
    19     4     5    1
    20     9     8    1
    21    11    10    1
    22     8     7    2
    23     5    10    1
    24     5     6    2
    25    10    12    1
    26    13    12    2
    27     7     6    1
    28    12    14    2
    29    12    15    1
    30    16    15    2
    31    16    17    1
    32    15    21    1
    33    18    17    1
    34    17    19    2
    35    21    22    1
    36    21    20    2
    37    22    23    1
    38    19    20    1
