@<TRIPOS>MOLECULE
38855_out_ligand_01.pdbqt
 35 37 0 0 0
SMALL
GASTEIGER

@<TRIPOS>ATOM
      1  C         15.6650  -23.3610   -5.9080 C.2     1  UNL1        0.0800
      2  C         15.9970  -24.5570   -6.5500 C.2     1  UNL1        0.0280
      3  C         16.1630  -24.5770   -7.9390 C.2     1  UNL1        0.0380
      4  C         15.9890  -23.4060   -8.6830 C.2     1  UNL1        0.0690
      5  C         15.6380  -22.2200   -8.0300 C.2     1  UNL1        0.0380
      6  C         15.4710  -22.1910   -6.6440 C.2     1  UNL1        0.0280
      7  O         16.1010  -23.2910  -10.0420 O.2     1  UNL1       -0.3420
      8  C         16.0600  -21.9860  -10.6080 C.3     1  UNL1        0.2780
      9  C         17.4230  -21.4330  -11.0460 C.2     1  UNL1        0.2460
     10  O         17.5170  -20.3080  -11.5270 O.2     1  UNL1       -0.2710
     11  N         18.4510  -22.3420  -10.8590 N.am    1  UNL1       -0.3250
     12  H         18.1780  -23.2080  -10.4030 H       1  UNL1        0.1690
     13  C         19.8160  -22.1790  -11.1600 C.2     1  UNL1        0.0350
     14  C         20.2900  -21.5300  -12.3010 C.2     1  UNL1        0.0320
     15  C         21.6640  -21.4120  -12.5270 C.2     1  UNL1        0.0450
     16  C         22.5650  -21.9440  -11.6120 C.2     1  UNL1        0.1310
     17  F         23.8780  -21.8210  -11.8480 F       1  UNL1       -0.2050
     18  C         22.1220  -22.5980  -10.4670 C.2     1  UNL1        0.0880
     19  C         20.7380  -22.7110  -10.2480 C.2     1  UNL1        0.0480
     20  C         23.1280  -23.1590   -9.5100 C.3     1  UNL1        0.4200
     21  F         23.4030  -22.3210   -8.4740 F       1  UNL1       -0.1660
     22  F         22.7150  -24.3260   -8.9330 F       1  UNL1       -0.1660
     23  F         24.3200  -23.4480  -10.0990 F       1  UNL1       -0.1660
     24  S         15.4360  -23.3460   -4.1470 S.O2    1  UNL1        0.2630
     25  O         14.6700  -22.1740   -3.7860 O.2     1  UNL1       -0.2000
     26  O         14.9950  -24.6700   -3.7620 O.2     1  UNL1       -0.2000
     27  N         17.0180  -23.1960   -3.5710 N.pl3   1  UNL1       -0.2810
     28  H         17.0260  -23.1470   -2.5530 H       1  UNL1        0.1790
     29  C         17.9000  -22.3260   -4.2690 C.2     1  UNL1        0.0430
     30  C         18.1540  -21.0560   -3.7580 C.2     1  UNL1        0.0300
     31  C         19.0350  -20.2060   -4.4260 C.2     1  UNL1        0.0030
     32  C         19.6660  -20.6320   -5.5960 C.2     1  UNL1        0.0070
     33  C         19.4320  -21.9170   -6.1020 C.2     1  UNL1       -0.0600
     34  C         20.0950  -22.3680   -7.3690 C.3     1  UNL1        0.0480
     35  C         18.5330  -22.7590   -5.4350 C.2     1  UNL1        0.0370
@<TRIPOS>BOND
     1    15    14    1
     2    15    16    2
     3    14    13    2
     4    17    16    1
     5    16    18    1
     6    10     9    2
     7    13    11    1
     8    13    19    1
     9     9    11   am
    10     9     8    1
    11    11    12    1
    12     8     7    1
    13    18    19    2
    14    18    20    1
    15    23    20    1
    16     7     4    1
    17    20    22    1
    18    20    21    1
    19     4     5    2
    20     4     3    1
    21     5     6    1
    22     3     2    2
    23    34    33    1
    24     6     1    2
    25     2     1    1
    26    33    32    2
    27    33    35    1
    28     1    24    1
    29    32    31    1
    30    35    29    2
    31    31    30    2
    32    29    30    1
    33    29    27    1
    34    24    25    2
    35    24    26    2
    36    24    27    1
    37    27    28    1
