@<TRIPOS>MOLECULE
38854_out_ligand_01.pdbqt
 32 34 0 0 0
SMALL
GASTEIGER

@<TRIPOS>ATOM
      1  C         19.4650  -23.4650   -7.7690 C.2     1  UNL1        0.0800
      2  C         20.0920  -24.5250   -8.4300 C.2     1  UNL1        0.0280
      3  C         21.4170  -24.3880   -8.8580 C.2     1  UNL1        0.0380
      4  C         22.1120  -23.2000   -8.6200 C.2     1  UNL1        0.0690
      5  C         21.4780  -22.1540   -7.9410 C.2     1  UNL1        0.0380
      6  C         20.1560  -22.2800   -7.5110 C.2     1  UNL1        0.0280
      7  O         23.4130  -22.9440   -8.9600 O.2     1  UNL1       -0.3420
      8  C         23.7070  -21.7120   -9.6110 C.3     1  UNL1        0.2780
      9  C         24.5700  -21.8340  -10.8740 C.2     1  UNL1        0.2460
     10  O         25.6830  -21.3190  -10.9170 O.2     1  UNL1       -0.2710
     11  N         23.9560  -22.5730  -11.8700 N.am    1  UNL1       -0.3250
     12  H         23.0110  -22.8670  -11.6480 H       1  UNL1        0.1690
     13  C         24.4440  -22.8940  -13.1550 C.2     1  UNL1        0.0430
     14  C         25.3080  -23.9700  -13.3800 C.2     1  UNL1        0.0720
     15  C         25.7610  -24.2490  -14.6660 C.2     1  UNL1        0.1180
     16  F         26.5860  -25.2860  -14.8640 F       1  UNL1       -0.2060
     17  C         25.3720  -23.4760  -15.7480 C.2     1  UNL1        0.0430
     18  C         24.5110  -22.4010  -15.5430 C.2     1  UNL1        0.0120
     19  C         24.0390  -22.0970  -14.2520 C.2     1  UNL1       -0.0350
     20  C         23.1170  -20.9160  -14.0920 C.3     1  UNL1        0.0500
     21  S         17.7900  -23.6510   -7.2080 S.O2    1  UNL1        0.2630
     22  O         17.6730  -24.9780   -6.6390 O.2     1  UNL1       -0.2000
     23  O         17.4220  -22.4800   -6.4400 O.2     1  UNL1       -0.2000
     24  N         16.9170  -23.6830   -8.6540 N.pl3   1  UNL1       -0.2810
     25  H         15.9290  -23.8600   -8.4750 H       1  UNL1        0.1790
     26  C         17.2350  -22.7140   -9.6440 C.2     1  UNL1        0.0430
     27  C         16.2760  -21.7740  -10.0150 C.2     1  UNL1        0.0300
     28  C         16.5730  -20.8360  -11.0010 C.2     1  UNL1        0.0030
     29  C         17.8240  -20.8460  -11.6230 C.2     1  UNL1        0.0070
     30  C         18.7830  -21.8030  -11.2710 C.2     1  UNL1       -0.0600
     31  C         20.1330  -21.8030  -11.9250 C.3     1  UNL1        0.0480
     32  C         18.4830  -22.7330  -10.2670 C.2     1  UNL1        0.0370
@<TRIPOS>BOND
     1    17    18    2
     2    17    15    1
     3    18    19    1
     4    16    15    1
     5    15    14    2
     6    19    20    1
     7    19    13    2
     8    14    13    1
     9    13    11    1
    10    31    30    1
    11    11    12    1
    12    11     9   am
    13    29    30    2
    14    29    28    1
    15    30    32    1
    16    28    27    2
    17    10     9    2
    18     9     8    1
    19    32    26    2
    20    27    26    1
    21    26    24    1
    22     8     7    1
    23     7     4    1
    24     3     4    2
    25     3     2    1
    26    24    25    1
    27    24    21    1
    28     4     5    1
    29     2     1    2
    30     5     6    2
    31     1     6    1
    32     1    21    1
    33    21    22    2
    34    21    23    2
