@<TRIPOS>MOLECULE
38872_out_ligand_01.pdbqt
 33 36 0 0 0
SMALL
GASTEIGER

@<TRIPOS>ATOM
      1  O         20.7900  -25.3440   -8.9920 O.2     1  UNL1       -0.2740
      2  C         21.2950  -24.2490   -8.7710 C.2     1  UNL1        0.2180
      3  N         20.6000  -23.1770   -8.2670 N.am    1  UNL1       -0.3480
      4  H         21.0550  -22.2820   -8.1560 H       1  UNL1        0.1630
      5  C         22.7710  -23.9610   -8.9750 C.3     1  UNL1        0.1070
      6  C         23.0700  -22.4650   -9.0580 C.3     1  UNL1        0.0470
      7  C         23.5210  -22.0410  -10.4370 C.2     1  UNL1       -0.0580
      8  C         24.8270  -21.5700  -10.6420 C.2     1  UNL1        0.0090
      9  C         25.2540  -21.1900  -11.9140 C.2     1  UNL1        0.0250
     10  C         24.3680  -21.2790  -12.9900 C.2     1  UNL1        0.0740
     11  C         23.0700  -21.7640  -12.8080 C.2     1  UNL1        0.0250
     12  C         22.6490  -22.1420  -11.5320 C.2     1  UNL1        0.0090
     13  S         24.8960  -20.8060  -14.6170 S.O2    1  UNL1        0.2410
     14  O         23.8540  -21.1540  -15.5590 O.2     1  UNL1       -0.2060
     15  O         25.4390  -19.4670  -14.5340 O.2     1  UNL1       -0.2060
     16  N         26.1580  -21.9240  -14.8760 N.3     1  UNL1       -0.2110
     17  H         26.7990  -21.8490  -14.0850 H       1  UNL1        0.1400
     18  C         25.7040  -23.3080  -15.0810 C.3     1  UNL1        0.0710
     19  C         26.6850  -24.4450  -15.0010 C.3     1  UNL1        0.0220
     20  C         25.6280  -24.2860  -13.9450 C.3     1  UNL1        0.0220
     21  C         19.1650  -23.2180   -8.0330 C.3     1  UNL1        0.1510
     22  C         18.4770  -22.5120   -9.1970 C.2     1  UNL1       -0.0310
     23  C         19.2620  -21.9160  -10.1990 C.2     1  UNL1        0.0090
     24  C         18.6700  -21.2270  -11.2580 C.2     1  UNL1        0.0010
     25  C         17.2830  -21.1150  -11.3260 C.2     1  UNL1        0.0000
     26  C         16.4890  -21.6860  -10.3330 C.2     1  UNL1        0.0010
     27  C         17.0800  -22.3750   -9.2710 C.2     1  UNL1        0.0090
     28  C         18.7680  -22.6870   -6.6560 C.2     1  UNL1       -0.0310
     29  C         19.2960  -21.4550   -6.2250 C.2     1  UNL1        0.0090
     30  C         18.9720  -20.9340   -4.9700 C.2     1  UNL1        0.0010
     31  C         18.1160  -21.6340   -4.1260 C.2     1  UNL1        0.0000
     32  C         17.5830  -22.8550   -4.5330 C.2     1  UNL1        0.0010
     33  C         17.9070  -23.3800   -5.7880 C.2     1  UNL1        0.0090
@<TRIPOS>BOND
     1    14    13    2
     2    18    19    1
     3    18    16    1
     4    18    20    1
     5    19    20    1
     6    16    13    1
     7    16    17    1
     8    13    15    2
     9    13    10    1
    10    10    11    2
    11    10     9    1
    12    11    12    1
    13     9     8    2
    14    12     7    2
    15    25    24    2
    16    25    26    1
    17    24    23    1
    18     8     7    1
    19     7     6    1
    20    26    27    2
    21    23    22    2
    22    27    22    1
    23    22    21    1
    24     6     5    1
    25     1     2    2
    26     5     2    1
    27     2     3   am
    28     3     4    1
    29     3    21    1
    30    21    28    1
    31    28    29    2
    32    28    33    1
    33    29    30    1
    34    33    32    2
    35    30    31    2
    36    32    31    1
