@<TRIPOS>MOLECULE
38888_out_ligand_01.pdbqt
 35 38 0 0 0
SMALL
GASTEIGER

@<TRIPOS>ATOM
      1  C         19.5210  -23.4590   -7.4910 C.2     1  UNL1        0.0790
      2  C         19.9420  -24.5750   -8.2220 C.2     1  UNL1        0.0260
      3  C         21.1680  -24.5380   -8.8870 C.2     1  UNL1        0.0090
      4  C         21.9670  -23.3840   -8.8410 C.2     1  UNL1       -0.0580
      5  C         21.5200  -22.2660   -8.1200 C.2     1  UNL1        0.0090
      6  C         20.3000  -22.2990   -7.4420 C.2     1  UNL1        0.0260
      7  C         23.2770  -23.3340   -9.5940 C.3     1  UNL1        0.0470
      8  C         23.0760  -23.0250  -11.0800 C.3     1  UNL1        0.1070
      9  C         24.3950  -22.7370  -11.7760 C.2     1  UNL1        0.2180
     10  O         25.4790  -23.1260  -11.3420 O.2     1  UNL1       -0.2740
     11  N         24.2760  -21.9750  -12.9170 N.am    1  UNL1       -0.3520
     12  H         23.3930  -21.5270  -13.1380 H       1  UNL1        0.1630
     13  C         25.4480  -21.6240  -13.7130 C.3     1  UNL1        0.1180
     14  C         25.9080  -20.1850  -13.3810 C.3     1  UNL1        0.0300
     15  C         25.8650  -19.2150  -14.5610 C.3     1  UNL1        0.0070
     16  C         26.4950  -19.8300  -15.8020 C.3     1  UNL1        0.0390
     17  C         25.7470  -21.0780  -16.1830 C.2     1  UNL1       -0.0500
     18  C         25.6090  -21.4180  -17.5360 C.2     1  UNL1        0.0070
     19  C         25.2340  -21.9270  -15.1870 C.2     1  UNL1       -0.0290
     20  C         24.9490  -22.5900  -17.9090 C.2     1  UNL1        0.0010
     21  C         24.4390  -23.4390  -16.9330 C.2     1  UNL1        0.0010
     22  C         24.5900  -23.1170  -15.5840 C.2     1  UNL1        0.0100
     23  S         17.9620  -23.5300   -6.6470 S.O2    1  UNL1        0.2590
     24  O         18.0200  -22.5710   -5.5640 O.2     1  UNL1       -0.2010
     25  O         17.6190  -24.9190   -6.4110 O.2     1  UNL1       -0.2010
     26  N         16.9020  -22.9250   -7.7750 N.3     1  UNL1       -0.3070
     27  H         16.3240  -22.1360   -7.5010 H       1  UNL1        0.1730
     28  C         16.8170  -23.4740   -9.1250 C.3     1  UNL1        0.1220
     29  C         15.3480  -23.8150   -9.4020 C.3     1  UNL1        0.0380
     30  C         17.4310  -22.4970  -10.1160 C.2     1  UNL1       -0.0350
     31  C         16.8040  -21.2960  -10.4830 C.2     1  UNL1        0.0090
     32  C         17.4270  -20.4020  -11.3560 C.2     1  UNL1        0.0010
     33  C         18.6920  -20.6890  -11.8610 C.2     1  UNL1        0.0000
     34  C         19.3300  -21.8750  -11.5060 C.2     1  UNL1        0.0010
     35  C         18.7010  -22.7740  -10.6450 C.2     1  UNL1        0.0090
@<TRIPOS>BOND
     1    20    18    1
     2    20    21    2
     3    18    17    2
     4    21    22    1
     5    17    16    1
     6    17    19    1
     7    16    15    1
     8    22    19    2
     9    19    13    1
    10    15    14    1
    11    13    14    1
    12    13    11    1
    13    12    11    1
    14    11     9   am
    15    33    34    2
    16    33    32    1
    17     9    10    2
    18     9     8    1
    19    34    35    1
    20    32    31    2
    21     8     7    1
    22    35    30    2
    23    31    30    1
    24    30    28    1
    25     7     4    1
    26    29    28    1
    27    28    26    1
    28     3     4    2
    29     3     2    1
    30     4     5    1
    31     2     1    2
    32     5     6    2
    33    26    27    1
    34    26    23    1
    35     1     6    1
    36     1    23    1
    37    23    25    2
    38    23    24    2
