@<TRIPOS>MOLECULE
38880_out_ligand_01.pdbqt
 34 36 0 0 0
SMALL
GASTEIGER

@<TRIPOS>ATOM
      1  C         21.6030  -22.8240   -9.9230 C.2     1  UNL1        0.0800
      2  C         20.8490  -23.8090   -9.2850 C.2     1  UNL1        0.0280
      3  C         19.4670  -23.8570   -9.4810 C.2     1  UNL1        0.0390
      4  C         18.8360  -22.9290  -10.3190 C.2     1  UNL1        0.0750
      5  C         19.6040  -21.9480  -10.9760 C.2     1  UNL1       -0.0270
      6  C         18.9550  -20.9490  -11.8970 C.3     1  UNL1        0.0510
      7  C         20.9920  -21.9020  -10.7760 C.2     1  UNL1        0.0340
      8  O         17.4930  -22.8990  -10.5900 O.2     1  UNL1       -0.3420
      9  C         16.6310  -22.2040   -9.6980 C.3     1  UNL1        0.2780
     10  C         16.3010  -22.9550   -8.4020 C.2     1  UNL1        0.2460
     11  O         15.7470  -24.0490   -8.4330 O.2     1  UNL1       -0.2710
     12  N         16.7240  -22.2830   -7.2710 N.am    1  UNL1       -0.3230
     13  H         17.1310  -21.3610   -7.4250 H       1  UNL1        0.1690
     14  C         16.5920  -22.6770   -5.9250 C.2     1  UNL1        0.0760
     15  C         17.5710  -23.3560   -5.2030 C.2     1  UNL1        0.0740
     16  C         17.3320  -23.6990   -3.8720 C.2     1  UNL1        0.1180
     17  F         18.2770  -24.3520   -3.1830 F       1  UNL1       -0.2060
     18  C         16.1320  -23.3790   -3.2420 C.2     1  UNL1        0.0450
     19  C         15.1480  -22.7000   -3.9540 C.2     1  UNL1        0.0470
     20  C         15.3860  -22.3550   -5.2830 C.2     1  UNL1        0.1430
     21  F         14.4310  -21.6980   -5.9610 F       1  UNL1       -0.2040
     22  S         23.3610  -22.7640   -9.6850 S.O2    1  UNL1        0.2630
     23  O         23.6920  -23.7410   -8.6680 O.2     1  UNL1       -0.2000
     24  O         23.7700  -21.3840   -9.5470 O.2     1  UNL1       -0.2000
     25  N         23.9540  -23.3890  -11.1410 N.pl3   1  UNL1       -0.2810
     26  H         24.2770  -24.3470  -11.0140 H       1  UNL1        0.1790
     27  C         24.7530  -22.5370  -11.9510 C.2     1  UNL1        0.0430
     28  C         26.0050  -22.1220  -11.5090 C.2     1  UNL1        0.0300
     29  C         26.7620  -21.2550  -12.2960 C.2     1  UNL1        0.0090
     30  C         26.2750  -20.7900  -13.5280 C.2     1  UNL1       -0.0560
     31  C         27.1200  -19.8500  -14.3440 C.3     1  UNL1        0.0490
     32  C         25.0010  -21.2020  -13.9670 C.2     1  UNL1       -0.0540
     33  C         24.2500  -22.0790  -13.1680 C.2     1  UNL1        0.0370
     34  C         24.4290  -20.7280  -15.2760 C.3     1  UNL1        0.0490
@<TRIPOS>BOND
     1    34    32    1
     2    31    30    1
     3    32    30    2
     4    32    33    1
     5    30    29    1
     6    33    27    2
     7    29    28    2
     8    27    28    1
     9    27    25    1
    10     6     5    1
    11    25    26    1
    12    25    22    1
    13     5     7    1
    14     5     4    2
    15     7     1    2
    16     8     4    1
    17     8     9    1
    18     4     3    1
    19     1    22    1
    20     1     2    1
    21     9    10    1
    22    22    24    2
    23    22    23    2
    24     3     2    2
    25    11    10    2
    26    10    12   am
    27    13    12    1
    28    12    14    1
    29    21    20    1
    30    14    20    2
    31    14    15    1
    32    20    19    1
    33    15    16    2
    34    19    18    2
    35    16    18    1
    36    16    17    1
