@<TRIPOS>MOLECULE
38882_out_ligand_01.pdbqt
 33 36 0 0 0
SMALL
GASTEIGER

@<TRIPOS>ATOM
      1  C         21.3340  -23.3270   -9.8020 C.2     1  UNL1       -0.0580
      2  C         22.4700  -23.6530   -9.0450 C.2     1  UNL1        0.0090
      3  C         23.7330  -23.2040   -9.4320 C.2     1  UNL1        0.0260
      4  C         23.8600  -22.4170  -10.5780 C.2     1  UNL1        0.0790
      5  C         22.7410  -22.0960  -11.3520 C.2     1  UNL1        0.0260
      6  C         21.4800  -22.5510  -10.9610 C.2     1  UNL1        0.0090
      7  C         19.9720  -23.8430   -9.3940 C.3     1  UNL1        0.0470
      8  C         18.8510  -23.2170  -10.2220 C.3     1  UNL1        0.1070
      9  C         17.7440  -22.6550   -9.3520 C.2     1  UNL1        0.2180
     10  O         16.9070  -21.8590   -9.7660 O.2     1  UNL1       -0.2740
     11  N         17.7430  -23.1540   -8.0720 N.am    1  UNL1       -0.3520
     12  H         18.3870  -23.8910   -7.8170 H       1  UNL1        0.1630
     13  C         16.7200  -22.7950   -7.1000 C.3     1  UNL1        0.1180
     14  C         15.7730  -23.9910   -6.9010 C.3     1  UNL1        0.0300
     15  C         14.8960  -23.7990   -5.6730 C.3     1  UNL1        0.0070
     16  C         15.7620  -23.7350   -4.4190 C.3     1  UNL1        0.0390
     17  C         16.8960  -22.7460   -4.5480 C.2     1  UNL1       -0.0500
     18  C         17.5170  -22.2750   -3.3790 C.2     1  UNL1        0.0070
     19  C         17.3610  -22.3160   -5.8060 C.2     1  UNL1       -0.0290
     20  C         18.5620  -21.3550   -3.4490 C.2     1  UNL1        0.0010
     21  C         18.9980  -20.8930   -4.6870 C.2     1  UNL1        0.0010
     22  C         18.4000  -21.3660   -5.8550 C.2     1  UNL1        0.0100
     23  S         25.4580  -21.8400  -11.0870 S.O2    1  UNL1        0.2590
     24  O         25.6400  -20.4840  -10.6230 O.2     1  UNL1       -0.2010
     25  O         26.4160  -22.8810  -10.7870 O.2     1  UNL1       -0.2010
     26  N         25.2990  -21.8130  -12.7520 N.3     1  UNL1       -0.3110
     27  H         24.4540  -21.3590  -13.0930 H       1  UNL1        0.1720
     28  C         25.9880  -22.8050  -13.5860 C.3     1  UNL1        0.0930
     29  C         25.1420  -24.0870  -13.6370 C.3     1  UNL1        0.0260
     30  C         25.3270  -24.8340  -14.9510 C.3     1  UNL1        0.0020
     31  C         24.8930  -23.9870  -16.1490 C.3     1  UNL1        0.0000
     32  C         25.0900  -22.4850  -15.9390 C.3     1  UNL1        0.0020
     33  C         26.2340  -22.1910  -14.9740 C.3     1  UNL1        0.0260
@<TRIPOS>BOND
     1    31    32    1
     2    31    30    1
     3    32    33    1
     4    33    28    1
     5    30    29    1
     6    29    28    1
     7    28    26    1
     8    27    26    1
     9    26    23    1
    10     5     6    1
    11     5     4    2
    12    23    25    2
    13    23    24    2
    14    23     4    1
    15     6     1    2
    16     4     3    1
    17     8     7    1
    18     8     9    1
    19     1     7    1
    20     1     2    1
    21    10     9    2
    22     3     2    2
    23     9    11   am
    24    11    12    1
    25    11    13    1
    26    13    14    1
    27    13    19    1
    28    14    15    1
    29    22    19    1
    30    22    21    2
    31    19    17    2
    32    15    16    1
    33    21    20    1
    34    17    16    1
    35    17    18    1
    36    20    18    2
