@<TRIPOS>MOLECULE
38890_out_ligand_01.pdbqt
 33 35 0 0 0
SMALL
GASTEIGER

@<TRIPOS>ATOM
      1  C         21.2550  -23.3680   -8.3730 C.2     1  UNL1       -0.0580
      2  C         20.8250  -22.2530   -7.6360 C.2     1  UNL1        0.0090
      3  C         19.6030  -22.2790   -6.9600 C.2     1  UNL1        0.0260
      4  C         18.8050  -23.4230   -7.0270 C.2     1  UNL1        0.0790
      5  C         19.2120  -24.5360   -7.7690 C.2     1  UNL1        0.0260
      6  C         20.4380  -24.5070   -8.4320 C.2     1  UNL1        0.0090
      7  C         22.5640  -23.3240   -9.1300 C.3     1  UNL1        0.0480
      8  C         23.0530  -21.8930   -9.3480 C.3     1  UNL1        0.1080
      9  C         24.0290  -21.7880  -10.5110 C.2     1  UNL1        0.2220
     10  N         23.6890  -22.6250  -11.5610 N.am    1  UNL1       -0.3270
     11  H         22.8700  -23.1990  -11.4250 H       1  UNL1        0.1690
     12  O         24.9710  -21.0030  -10.4810 O.2     1  UNL1       -0.2730
     13  C         24.3770  -22.8060  -12.7860 C.2     1  UNL1        0.0430
     14  C         25.4520  -23.6910  -12.9200 C.2     1  UNL1        0.0720
     15  C         26.0910  -23.8440  -14.1480 C.2     1  UNL1        0.1180
     16  C         25.6830  -23.1300  -15.2620 C.2     1  UNL1        0.0430
     17  F         27.1160  -24.6990  -14.2550 F       1  UNL1       -0.2060
     18  C         24.6160  -22.2430  -15.1490 C.2     1  UNL1        0.0120
     19  C         23.9540  -22.0700  -13.9190 C.2     1  UNL1       -0.0350
     20  C         22.8060  -21.0950  -13.8650 C.3     1  UNL1        0.0500
     21  S         17.2450  -23.4720   -6.1830 S.O2    1  UNL1        0.2580
     22  O         17.2560  -24.5970   -5.2740 O.2     1  UNL1       -0.2010
     23  O         16.9470  -22.1280   -5.7380 O.2     1  UNL1       -0.2010
     24  N         16.1770  -23.8220   -7.4170 N.3     1  UNL1       -0.3150
     25  H         15.5550  -24.6120   -7.2560 H       1  UNL1        0.1720
     26  C         15.8590  -22.8200   -8.4350 C.3     1  UNL1        0.1370
     27  C         16.3980  -23.2490   -9.8060 C.3     1  UNL1        0.0580
     28  C         17.4170  -22.3540  -10.4790 C.2     1  UNL1       -0.0570
     29  C         18.7010  -22.8710  -10.7230 C.2     1  UNL1        0.0070
     30  C         19.6760  -22.1000  -11.3600 C.2     1  UNL1        0.0010
     31  C         19.3800  -20.8050  -11.7730 C.2     1  UNL1        0.0000
     32  C         18.1100  -20.2830  -11.5510 C.2     1  UNL1        0.0010
     33  C         17.1320  -21.0520  -10.9140 C.2     1  UNL1        0.0070
@<TRIPOS>BOND
     1    16    18    2
     2    16    15    1
     3    18    19    1
     4    17    15    1
     5    15    14    2
     6    19    20    1
     7    19    13    2
     8    14    13    1
     9    13    10    1
    10    31    32    2
    11    31    30    1
    12    10    11    1
    13    10     9   am
    14    32    33    1
    15    30    29    2
    16    33    28    2
    17    29    28    1
    18     9    12    2
    19     9     8    1
    20    28    27    1
    21    27    26    1
    22     8     7    1
    23     7     1    1
    24    26    24    1
    25     6     1    2
    26     6     5    1
    27     1     2    1
    28     5     4    2
    29     2     3    2
    30    24    25    1
    31    24    21    1
    32     4     3    1
    33     4    21    1
    34    21    23    2
    35    21    22    2
