@<TRIPOS>MOLECULE
38892_out_ligand_01.pdbqt
 34 36 0 0 0
SMALL
GASTEIGER

@<TRIPOS>ATOM
      1  C         21.2790  -23.3580   -8.4490 C.2     1  UNL1       -0.0580
      2  C         20.4590  -24.4960   -8.4710 C.2     1  UNL1        0.0090
      3  C         19.2620  -24.5270   -7.7520 C.2     1  UNL1        0.0260
      4  C         18.8950  -23.4160   -6.9740 C.2     1  UNL1        0.0790
      5  C         19.6990  -22.2660   -6.9480 C.2     1  UNL1        0.0260
      6  C         20.8820  -22.2370   -7.6900 C.2     1  UNL1        0.0090
      7  C         22.5820  -23.3470   -9.2180 C.3     1  UNL1        0.0470
      8  C         22.8690  -22.0120   -9.9180 C.3     1  UNL1        0.1070
      9  C         24.2600  -21.9880  -10.5150 C.2     1  UNL1        0.2180
     10  N         24.6500  -23.1930  -11.0480 N.am    1  UNL1       -0.3530
     11  H         23.9610  -23.9270  -11.1150 H       1  UNL1        0.1630
     12  O         24.9380  -20.9760  -10.5220 O.2     1  UNL1       -0.2740
     13  C         25.8350  -23.3800  -11.8700 C.3     1  UNL1        0.1130
     14  C         27.0270  -22.5060  -11.4700 C.3     1  UNL1        0.0370
     15  C         25.4860  -23.3410  -13.3460 C.2     1  UNL1       -0.0360
     16  C         25.4630  -24.4990  -14.1420 C.2     1  UNL1        0.0100
     17  C         25.1150  -24.4400  -15.5000 C.2     1  UNL1        0.0190
     18  C         24.7720  -23.2180  -16.0690 C.2     1  UNL1        0.0110
     19 BR         24.3280  -23.1320  -17.9050 Br      1  UNL1       -0.0510
     20  C         24.8070  -22.0550  -15.3120 C.2     1  UNL1        0.0190
     21  C         25.1820  -22.1130  -13.9570 C.2     1  UNL1        0.0100
     22  S         17.3890  -23.4710   -6.0300 S.O2    1  UNL1        0.2580
     23  O         17.4410  -24.6240   -5.1600 O.2     1  UNL1       -0.2010
     24  O         17.1170  -22.1440   -5.5230 O.2     1  UNL1       -0.2010
     25  N         16.2500  -23.8200   -7.2090 N.3     1  UNL1       -0.3150
     26  H         15.6800  -24.6460   -7.0520 H       1  UNL1        0.1720
     27  C         15.8900  -22.8460   -8.2320 C.3     1  UNL1        0.1370
     28  C         16.2220  -23.3540   -9.6280 C.3     1  UNL1        0.0580
     29  C         17.2100  -22.4350  -10.3070 C.2     1  UNL1       -0.0570
     30  C         18.4970  -22.9020  -10.6310 C.2     1  UNL1        0.0070
     31  C         19.3690  -22.1130  -11.3750 C.2     1  UNL1        0.0010
     32  C         18.9810  -20.8350  -11.7810 C.2     1  UNL1        0.0000
     33  C         17.7300  -20.3400  -11.4240 C.2     1  UNL1        0.0010
     34  C         16.8440  -21.1370  -10.6850 C.2     1  UNL1        0.0070
@<TRIPOS>BOND
     1    19    18    1
     2    18    17    2
     3    18    20    1
     4    17    16    1
     5    20    21    2
     6    16    15    2
     7    21    15    1
     8    15    13    1
     9    13    14    1
    10    13    10    1
    11    32    33    2
    12    32    31    1
    13    33    34    1
    14    31    30    2
    15    11    10    1
    16    10     9   am
    17    34    29    2
    18    30    29    1
    19    12     9    2
    20     9     8    1
    21    29    28    1
    22     8     7    1
    23    28    27    1
    24     7     1    1
    25     2     1    2
    26     2     3    1
    27     1     6    1
    28    27    25    1
    29     3     4    2
    30     6     5    2
    31    25    26    1
    32    25    22    1
    33     4     5    1
    34     4    22    1
    35    22    24    2
    36    22    23    2
