@<TRIPOS>MOLECULE
388_out_ligand_01.pdbqt
 40 42 0 0 0
SMALL
GASTEIGER

@<TRIPOS>ATOM
      1  C         16.3740  -22.7430   -9.5480 C.2     1  UNL1        0.0330
      2  C         15.8120  -23.9260  -10.0510 C.2     1  UNL1        0.0170
      3  C         15.2360  -24.8550   -9.1820 C.2     1  UNL1        0.0030
      4  C         15.2210  -24.6110   -7.8110 C.2     1  UNL1        0.0250
      5  C         15.7820  -23.4320   -7.3130 C.2     1  UNL1        0.0800
      6  C         16.3360  -22.4810   -8.1750 C.2     1  UNL1        0.0420
      7  C         16.9930  -21.7270  -10.4420 C.2     1  UNL1        0.2510
      8  N         18.2090  -22.0620  -10.9950 N.am    1  UNL1       -0.3570
      9  H         18.6210  -22.9650  -10.8080 H       1  UNL1        0.1620
     10  O         16.4310  -20.6570  -10.6390 O.2     1  UNL1       -0.2680
     11  C         18.8280  -21.2510  -12.0270 C.3     1  UNL1        0.1270
     12  C         19.9930  -20.4070  -11.4940 C.3     1  UNL1        0.0580
     13  C         21.3320  -21.0970  -11.6570 C.2     1  UNL1       -0.0570
     14  C         22.1070  -21.4020  -10.5270 C.2     1  UNL1        0.0090
     15  C         23.3660  -21.9860  -10.6690 C.2     1  UNL1        0.0250
     16  C         23.8490  -22.2790  -11.9460 C.2     1  UNL1        0.0740
     17  C         23.0910  -21.9810  -13.0820 C.2     1  UNL1        0.0250
     18  C         21.8310  -21.3960  -12.9340 C.2     1  UNL1        0.0090
     19  S         25.4720  -22.9590  -12.1260 S.O2    1  UNL1        0.2390
     20  O         25.9760  -23.3260  -10.8200 O.2     1  UNL1       -0.2060
     21  O         26.2310  -22.1430  -13.0450 O.2     1  UNL1       -0.2060
     22  N         25.1660  -24.3980  -12.9320 N.3     1  UNL1       -0.2250
     23  H         24.9420  -24.2080  -13.9100 H       1  UNL1        0.1360
     24  H         24.4480  -24.9290  -12.4380 H       1  UNL1        0.1360
     25  S         15.7740  -23.1290   -5.5650 S.O2    1  UNL1        0.2630
     26  O         15.5460  -21.7170   -5.3410 O.2     1  UNL1       -0.2000
     27  O         14.9280  -24.1300   -4.9490 O.2     1  UNL1       -0.2000
     28  N         17.3450  -23.5180   -5.1250 N.pl3   1  UNL1       -0.2790
     29  H         17.4850  -23.7050   -4.1340 H       1  UNL1        0.1790
     30  C         18.4400  -23.0900   -5.9290 C.2     1  UNL1        0.0650
     31  C         18.8920  -23.9240   -6.9590 C.2     1  UNL1        0.0480
     32  C         19.9540  -23.5260   -7.7900 C.2     1  UNL1        0.0500
     33  C         20.5540  -22.2760   -7.5740 C.2     1  UNL1        0.0180
     34  C         20.0860  -21.4280   -6.5640 C.2     1  UNL1        0.0270
     35  C         19.0260  -21.8290   -5.7480 C.2     1  UNL1        0.0610
     36 CL         18.4690  -20.7310   -4.5320 Cl      1  UNL1       -0.0820
     37  C         20.4660  -24.4490   -8.8720 C.3     1  UNL1        0.4170
     38  F         20.3600  -25.7600   -8.5290 F       1  UNL1       -0.1660
     39  F         21.7810  -24.2430   -9.1640 F       1  UNL1       -0.1660
     40  F         19.8000  -24.3050  -10.0510 F       1  UNL1       -0.1660
@<TRIPOS>BOND
     1    23    22    1
     2    17    18    1
     3    17    16    2
     4    21    19    2
     5    18    13    2
     6    22    24    1
     7    22    19    1
     8    19    16    1
     9    19    20    2
    10    11    12    1
    11    11     8    1
    12    16    15    1
    13    13    12    1
    14    13    14    1
    15     8     9    1
    16     8     7   am
    17    15    14    2
    18    10     7    2
    19     7     1    1
    20    40    37    1
    21     2     1    2
    22     2     3    1
    23     1     6    1
    24     3     4    2
    25    39    37    1
    26    37    38    1
    27    37    32    1
    28     6     5    2
    29     4     5    1
    30    32    33    2
    31    32    31    1
    32    33    34    1
    33     5    25    1
    34    31    30    2
    35    34    35    2
    36    30    35    1
    37    30    28    1
    38    35    36    1
    39    25    26    2
    40    25    28    1
    41    25    27    2
    42    28    29    1
