@<TRIPOS>MOLECULE
38901_out_ligand_01.pdbqt
 36 38 0 0 0
SMALL
GASTEIGER

@<TRIPOS>ATOM
      1  C         18.6330  -21.9380   -5.6630 C.2     1  UNL1        0.0910
      2  C         19.7580  -21.1790   -6.0000 C.2     1  UNL1        0.0390
      3  C         20.6400  -21.6160   -6.9960 C.2     1  UNL1        0.0200
      4  C         20.4170  -22.8220   -7.6680 C.2     1  UNL1        0.0340
      5  C         19.2880  -23.5810   -7.3580 C.2     1  UNL1        0.0440
      6  C         18.4100  -23.1380   -6.3560 C.2     1  UNL1        0.1080
      7  C         21.3820  -23.2350   -8.7280 C.2     1  UNL1        0.2560
      8  O         21.4650  -24.4280   -8.9930 O.2     1  UNL1       -0.2670
      9  N         22.0730  -22.2000   -9.3340 N.am    1  UNL1       -0.3230
     10  H         21.8010  -21.2560   -9.0880 H       1  UNL1        0.1690
     11  C         23.0670  -22.3060  -10.3290 C.2     1  UNL1        0.0350
     12  C         24.3020  -22.9300  -10.1370 C.2     1  UNL1        0.0320
     13  C         25.2340  -22.9890  -11.1760 C.2     1  UNL1        0.0450
     14  C         24.9350  -22.4210  -12.4090 C.2     1  UNL1        0.1310
     15  F         25.8440  -22.4890  -13.3900 F       1  UNL1       -0.2050
     16  C         23.7170  -21.7910  -12.6300 C.2     1  UNL1        0.0880
     17  C         22.7830  -21.7360  -11.5790 C.2     1  UNL1        0.0480
     18  C         23.4370  -21.1930  -13.9740 C.3     1  UNL1        0.4200
     19  F         22.1890  -20.6450  -14.0600 F       1  UNL1       -0.1660
     20  F         24.2960  -20.1890  -14.3000 F       1  UNL1       -0.1660
     21  F         23.5050  -22.1000  -14.9860 F       1  UNL1       -0.1660
     22  S         16.9850  -24.1400   -5.9890 S.O2    1  UNL1        0.2440
     23  O         16.9110  -24.2660   -4.5520 O.2     1  UNL1       -0.2060
     24  O         17.0450  -25.3050   -6.8470 O.2     1  UNL1       -0.2060
     25  N         15.6830  -23.1970   -6.5060 N.3     1  UNL1       -0.2150
     26  H         15.2490  -22.7660   -5.6820 H       1  UNL1        0.1390
     27  C         15.9360  -22.2500   -7.6130 C.3     1  UNL1        0.1090
     28  C         15.9280  -22.9910   -8.9550 C.3     1  UNL1        0.0540
     29  C         16.8940  -22.4050   -9.9610 C.2     1  UNL1       -0.0570
     30  C         16.6370  -21.1600  -10.5510 C.2     1  UNL1        0.0070
     31  C         17.5320  -20.6160  -11.4740 C.2     1  UNL1        0.0010
     32  C         18.6910  -21.3090  -11.8150 C.2     1  UNL1        0.0000
     33  C         18.9580  -22.5470  -11.2330 C.2     1  UNL1        0.0010
     34  C         18.0650  -23.0930  -10.3090 C.2     1  UNL1        0.0070
     35  O         17.7140  -21.5740   -4.7200 O.2     1  UNL1       -0.3540
     36  C         18.1730  -21.3700   -3.3880 C.3     1  UNL1        0.2100
@<TRIPOS>BOND
     1    21    18    1
     2    20    18    1
     3    19    18    1
     4    18    16    1
     5    15    14    1
     6    16    14    2
     7    16    17    1
     8    14    13    1
     9    32    31    2
    10    32    33    1
    11    17    11    2
    12    31    30    1
    13    33    34    2
    14    13    12    2
    15    30    29    2
    16    11    12    1
    17    11     9    1
    18    34    29    1
    19    29    28    1
    20     9    10    1
    21     9     7   am
    22     8     7    2
    23    28    27    1
    24     7     4    1
    25     4     5    2
    26     4     3    1
    27    27    25    1
    28     5     6    1
    29     3     2    2
    30    24    22    2
    31    25    22    1
    32    25    26    1
    33     6    22    1
    34     6     1    2
    35     2     1    1
    36    22    23    2
    37     1    35    1
    38    35    36    1
