@<TRIPOS>MOLECULE
38918_out_ligand_01.pdbqt
 37 39 0 0 0
SMALL
GASTEIGER

@<TRIPOS>ATOM
      1  N         18.5530  -23.5800   -8.3950 N.pl3   1  UNL1       -0.1630
      2  S         17.3260  -24.0000   -7.2810 S.O2    1  UNL1        0.2510
      3  O         16.0570  -23.6170   -7.8650 O.2     1  UNL1       -0.2050
      4  O         17.5360  -25.3660   -6.8470 O.2     1  UNL1       -0.2050
      5  C         17.7150  -22.9670   -5.8890 C.2     1  UNL1        0.1080
      6  C         18.5540  -21.8650   -6.1230 C.2     1  UNL1        0.0340
      7  C         18.8920  -20.9920   -5.0800 C.2     1  UNL1       -0.0600
      8  C         18.4100  -21.2530   -3.7950 C.2     1  UNL1        0.0090
      9  C         19.7920  -19.8180   -5.3330 C.3     1  UNL1        0.0480
     10  C         17.5940  -22.3590   -3.5570 C.2     1  UNL1        0.0390
     11  C         17.2620  -23.2320   -4.5970 C.2     1  UNL1        0.0910
     12  O         16.4160  -24.2680   -4.3180 O.2     1  UNL1       -0.3540
     13  C         15.0540  -23.8240   -4.3060 C.3     1  UNL1        0.2100
     14  C         19.8250  -23.1260   -7.7630 C.3     1  UNL1        0.2160
     15  C         20.9900  -23.9090   -8.3530 C.2     1  UNL1        0.2320
     16  O         20.8740  -25.0680   -8.7490 O.2     1  UNL1       -0.2720
     17  N         22.1740  -23.2040   -8.4320 N.am    1  UNL1       -0.3560
     18  H         22.1370  -22.1940   -8.3310 H       1  UNL1        0.1620
     19  C         23.2950  -23.7470   -9.1610 C.3     1  UNL1        0.1610
     20  C         23.4630  -23.0430  -10.4780 C.2     1  UNL1       -0.0400
     21  C         24.7280  -22.9190  -11.0720 C.2     1  UNL1        0.0100
     22  C         24.8720  -22.2590  -12.2940 C.2     1  UNL1        0.0250
     23  C         23.7450  -21.7310  -12.9270 C.2     1  UNL1        0.0740
     24  C         22.4800  -21.8500  -12.3520 C.2     1  UNL1        0.0250
     25  C         22.3420  -22.5150  -11.1360 C.2     1  UNL1        0.0100
     26  S         23.9320  -20.8640  -14.4680 S.O2    1  UNL1        0.2390
     27  O         23.9050  -21.8260  -15.5460 O.2     1  UNL1       -0.2060
     28  O         24.9910  -19.8930  -14.3130 O.2     1  UNL1       -0.2060
     29  N         22.5020  -19.9760  -14.5250 N.3     1  UNL1       -0.2250
     30  H         21.6650  -20.5560  -14.4770 H       1  UNL1        0.1360
     31  H         22.5230  -19.2820  -13.7780 H       1  UNL1        0.1360
     32  C         18.1080  -22.7670   -9.4980 C.2     1  UNL1        0.0250
     33  C         19.0110  -22.5390  -10.5370 C.2     1  UNL1        0.0240
     34  C         18.6760  -21.6790  -11.5780 C.2     1  UNL1        0.0020
     35  C         17.4400  -21.0330  -11.5760 C.2     1  UNL1        0.0000
     36  C         16.5410  -21.2450  -10.5350 C.2     1  UNL1        0.0020
     37  C         16.8770  -22.1060   -9.4880 C.2     1  UNL1        0.0240
@<TRIPOS>BOND
     1    27    26    2
     2    29    30    1
     3    29    26    1
     4    29    31    1
     5    26    28    2
     6    26    23    1
     7    23    24    2
     8    23    22    1
     9    24    25    1
    10    22    21    2
    11    34    35    2
    12    34    33    1
    13    35    36    1
    14    25    20    2
    15    21    20    1
    16    33    32    2
    17    36    37    2
    18    20    19    1
    19    32    37    1
    20    32     1    1
    21    19    17    1
    22    16    15    2
    23    17    15   am
    24    17    18    1
    25     1    14    1
    26     1     2    1
    27    15    14    1
    28     3     2    2
    29     2     4    2
    30     2     5    1
    31     6     5    2
    32     6     7    1
    33     5    11    1
    34     9     7    1
    35     7     8    2
    36    11    12    1
    37    11    10    2
    38    12    13    1
    39     8    10    1
