@<TRIPOS>MOLECULE
38920_out_ligand_01.pdbqt
 35 38 0 0 0
SMALL
GASTEIGER

@<TRIPOS>ATOM
      1  C         24.3850  -22.1550  -12.9200 C.2     1  UNL1        0.0860
      2  C         23.1430  -22.0620  -12.2710 C.2     1  UNL1        0.0420
      3  C         23.0110  -22.4740  -10.9430 C.2     1  UNL1        0.0330
      4  C         24.1220  -22.9690  -10.2560 C.2     1  UNL1        0.0170
      5  C         25.3550  -23.0710  -10.9040 C.2     1  UNL1        0.0090
      6  C         25.5110  -22.6640  -12.2430 C.2     1  UNL1       -0.0390
      7  C         26.8660  -22.8150  -12.8760 C.3     1  UNL1        0.0500
      8  C         21.6820  -22.3380  -10.2840 C.2     1  UNL1        0.2560
      9  O         20.8040  -21.7230  -10.8770 O.2     1  UNL1       -0.2670
     10  N         21.5790  -22.9660   -9.0570 N.am    1  UNL1       -0.3230
     11  H         22.3630  -23.5320   -8.7620 H       1  UNL1        0.1690
     12  C         20.4590  -22.9890   -8.2000 C.2     1  UNL1        0.0350
     13  C         19.5850  -24.0710   -8.3140 C.2     1  UNL1        0.0320
     14  C         18.4500  -24.1690   -7.4950 C.2     1  UNL1        0.0320
     15  C         18.1550  -23.1910   -6.5410 C.2     1  UNL1        0.0370
     16  C         19.0420  -22.1100   -6.4360 C.2     1  UNL1        0.0320
     17  C         20.1800  -22.0100   -7.2510 C.2     1  UNL1        0.0320
     18  N         17.0050  -23.2720   -5.7110 N.am    1  UNL1       -0.3180
     19  C         15.7420  -22.6650   -6.0650 C.3     1  UNL1        0.1330
     20  C         14.7420  -23.3090   -5.1300 C.3     1  UNL1        0.0290
     21  C         15.5550  -23.5750   -3.8790 C.3     1  UNL1        0.1050
     22  C         16.9470  -23.8140   -4.4160 C.2     1  UNL1        0.2240
     23  O         17.8270  -24.3460   -3.7560 O.2     1  UNL1       -0.2730
     24  S         24.4550  -21.6180  -14.6280 S.O2    1  UNL1        0.2630
     25  O         23.4000  -20.6490  -14.8400 O.2     1  UNL1       -0.2000
     26  O         24.5410  -22.7950  -15.4670 O.2     1  UNL1       -0.2000
     27  N         25.9490  -20.8430  -14.7340 N.pl3   1  UNL1       -0.2810
     28  H         26.4670  -20.8750  -13.8590 H       1  UNL1        0.1790
     29  C         26.1010  -19.6950  -15.5640 C.2     1  UNL1        0.0430
     30  C         25.8810  -19.8350  -16.9350 C.2     1  UNL1        0.0300
     31  C         26.0650  -18.7430  -17.7850 C.2     1  UNL1        0.0030
     32  C         26.4610  -17.5120  -17.2640 C.2     1  UNL1        0.0070
     33  C         26.6550  -17.3550  -15.8870 C.2     1  UNL1       -0.0600
     34  C         27.1200  -16.0430  -15.3270 C.3     1  UNL1        0.0480
     35  C         26.4730  -18.4570  -15.0410 C.2     1  UNL1        0.0370
@<TRIPOS>BOND
     1    31    32    2
     2    31    30    1
     3    32    33    1
     4    30    29    2
     5    33    34    1
     6    33    35    2
     7    29    35    1
     8    29    27    1
     9    26    24    2
    10    25    24    2
    11    27    24    1
    12    27    28    1
    13    24     1    1
    14     1     2    2
    15     1     6    1
    16     7     6    1
    17     2     3    1
    18     6     5    2
    19     3     8    1
    20     3     4    2
    21     5     4    1
    22     9     8    2
    23     8    10   am
    24    10    11    1
    25    10    12    1
    26    13    12    2
    27    13    14    1
    28    12    17    1
    29    14    15    2
    30    17    16    2
    31    15    16    1
    32    15    18    1
    33    19    18    1
    34    19    20    1
    35    18    22   am
    36    20    21    1
    37    22    21    1
    38    22    23    2
