@<TRIPOS>MOLECULE
38923_out_ligand_01.pdbqt
 31 33 0 0 0
SMALL
GASTEIGER

@<TRIPOS>ATOM
      1  C         19.9610  -23.4140   -9.2960 C.2     1  UNL1        0.0330
      2  C         19.5230  -22.5860  -10.3280 C.2     1  UNL1        0.0170
      3  C         18.1650  -22.2840  -10.4400 C.2     1  UNL1        0.0090
      4  C         17.2230  -22.8040   -9.5310 C.2     1  UNL1       -0.0390
      5  C         15.7800  -22.4300   -9.7310 C.3     1  UNL1        0.0500
      6  C         17.6830  -23.6520   -8.5040 C.2     1  UNL1        0.0860
      7  C         19.0470  -23.9740   -8.4030 C.2     1  UNL1        0.0420
      8  C         21.3910  -23.7580   -9.1640 C.2     1  UNL1        0.2530
      9  N         22.3450  -22.7710   -9.4050 N.am    1  UNL1       -0.3480
     10  C         22.0370  -21.3750   -9.6950 C.3     1  UNL1        0.1530
     11  O         21.6620  -24.9100   -8.8390 O.2     1  UNL1       -0.2670
     12  C         23.7390  -23.1860   -9.5490 C.3     1  UNL1        0.1640
     13  C         24.3610  -22.6560  -10.8210 C.2     1  UNL1       -0.0400
     14  C         25.3040  -21.6190  -10.7670 C.2     1  UNL1        0.0090
     15  C         25.8920  -21.1350  -11.9390 C.2     1  UNL1        0.0070
     16  C         25.5440  -21.6710  -13.1840 C.2     1  UNL1       -0.0620
     17  C         26.1960  -21.1630  -14.4360 C.3     1  UNL1        0.0480
     18  C         24.6180  -22.7180  -13.2370 C.2     1  UNL1        0.0070
     19  C         24.0260  -23.2030  -12.0660 C.2     1  UNL1        0.0090
     20  S         16.6200  -24.3900   -7.2640 S.O2    1  UNL1        0.2630
     21  O         15.4910  -25.0410   -7.8920 O.2     1  UNL1       -0.2000
     22  O         17.4800  -25.1160   -6.3530 O.2     1  UNL1       -0.2000
     23  N         16.0590  -23.0480   -6.4010 N.pl3   1  UNL1       -0.2810
     24  H         15.0670  -23.1180   -6.1820 H       1  UNL1        0.1790
     25  C         16.9170  -22.4070   -5.4630 C.2     1  UNL1        0.0430
     26  C         16.6670  -22.5760   -4.1000 C.2     1  UNL1        0.0300
     27  C         17.5170  -21.9910   -3.1600 C.2     1  UNL1        0.0030
     28  C         18.6110  -21.2330   -3.5830 C.2     1  UNL1        0.0070
     29  C         18.8630  -21.0520   -4.9490 C.2     1  UNL1       -0.0600
     30  C         20.0330  -20.2240   -5.3930 C.3     1  UNL1        0.0480
     31  C         18.0030  -21.6410   -5.8860 C.2     1  UNL1        0.0370
@<TRIPOS>BOND
     1    17    16    1
     2    18    16    2
     3    18    19    1
     4    16    15    1
     5    19    13    2
     6    15    14    2
     7    13    14    1
     8    13    12    1
     9     3     2    1
    10     3     4    2
    11     2     1    2
    12     5     4    1
    13    10     9    1
    14    12     9    1
    15     4     6    1
    16     9     8   am
    17     1     8    1
    18     1     7    1
    19     8    11    2
    20     6     7    2
    21     6    20    1
    22    21    20    2
    23    20    23    1
    24    20    22    2
    25    23    24    1
    26    23    25    1
    27    31    25    2
    28    31    29    1
    29    25    26    1
    30    30    29    1
    31    29    28    2
    32    26    27    2
    33    28    27    1
