@<TRIPOS>MOLECULE
38937_out_ligand_01.pdbqt
 40 43 0 0 0
SMALL
GASTEIGER

@<TRIPOS>ATOM
      1  N         21.3940  -22.3890   -8.9040 N.am    1  UNL1       -0.3230
      2  C         21.4720  -21.7200   -7.6960 C.2     1  UNL1        0.2560
      3  O         22.4130  -21.0660   -7.2680 O.2     1  UNL1       -0.2670
      4  H         20.4940  -22.7740   -9.1580 H       1  UNL1        0.1690
      5  C         22.4070  -22.5100   -9.8780 C.2     1  UNL1        0.0350
      6  C         22.0990  -22.0760  -11.1760 C.2     1  UNL1        0.0310
      7  C         23.0490  -22.1560  -12.2000 C.2     1  UNL1        0.0270
      8  C         24.3170  -22.6670  -11.9220 C.2     1  UNL1        0.0750
      9  C         24.6290  -23.1250  -10.6410 C.2     1  UNL1        0.0270
     10  C         23.6750  -23.0400   -9.6220 C.2     1  UNL1        0.0310
     11  S         25.5160  -22.7800  -13.2270 S.O2    1  UNL1        0.2480
     12  O         25.2760  -24.0490  -13.8880 O.2     1  UNL1       -0.2050
     13  O         26.8310  -22.4740  -12.7030 O.2     1  UNL1       -0.2050
     14  N         25.0460  -21.6090  -14.3080 N.pl3   1  UNL1       -0.1480
     15  H         24.1870  -21.1410  -14.0500 H       1  UNL1        0.1490
     16  C         25.1030  -21.9330  -15.6590 C.cat   1  UNL1        0.2150
     17  N         26.3220  -21.7910  -16.1870 N.2     1  UNL1       -0.2300
     18  C         26.4540  -22.2390  -17.4480 C.2     1  UNL1        0.1220
     19  C         25.4370  -22.8470  -18.1510 C.2     1  UNL1        0.0460
     20  C         24.2380  -22.9910  -17.4820 C.2     1  UNL1        0.0350
     21  C         23.0740  -23.6650  -18.1420 C.3     1  UNL1        0.0700
     22  N         24.0650  -22.5550  -16.2180 N.2     1  UNL1       -0.2230
     23  C         20.2410  -21.7990   -6.8640 C.2     1  UNL1        0.0330
     24  C         20.0500  -20.9560   -5.7660 C.2     1  UNL1        0.0170
     25  C         18.8730  -21.0410   -5.0180 C.2     1  UNL1        0.0090
     26  C         17.8590  -21.9540   -5.3590 C.2     1  UNL1       -0.0390
     27  C         16.6210  -21.9900   -4.5050 C.3     1  UNL1        0.0500
     28  C         18.0630  -22.7970   -6.4700 C.2     1  UNL1        0.0860
     29  C         19.2480  -22.7150   -7.2200 C.2     1  UNL1        0.0420
     30  S         16.8580  -24.0150   -6.9770 S.O2    1  UNL1        0.2630
     31  O         15.5700  -23.3600   -7.0600 O.2     1  UNL1       -0.2000
     32  O         17.0150  -25.2000   -6.1610 O.2     1  UNL1       -0.2000
     33  N         17.3210  -24.3650   -8.5670 N.pl3   1  UNL1       -0.2810
     34  H         18.1300  -24.9850   -8.5700 H       1  UNL1        0.1790
     35  C         17.3280  -23.2910   -9.5010 C.2     1  UNL1        0.0420
     36  C         16.2270  -22.4400   -9.5830 C.2     1  UNL1        0.0300
     37  C         16.2560  -21.3520  -10.4560 C.2     1  UNL1        0.0020
     38  C         17.3850  -21.1170  -11.2420 C.2     1  UNL1        0.0000
     39  C         18.4860  -21.9680  -11.1540 C.2     1  UNL1        0.0020
     40  C         18.4610  -23.0560  -10.2800 C.2     1  UNL1        0.0300
@<TRIPOS>BOND
     1    19    20    1
     2    19    18    2
     3    21    20    1
     4    20    22    2
     5    18    17    1
     6    22    16    1
     7    17    16    2
     8    16    14    1
     9    14    15    1
    10    14    11    1
    11    12    11    2
    12    11    13    2
    13    11     8    1
    14     7     8    2
    15     7     6    1
    16     8     9    1
    17    38    39    2
    18    38    37    1
    19     6     5    2
    20    39    40    1
    21     9    10    2
    22    37    36    2
    23    40    35    2
    24     5    10    1
    25     5     1    1
    26    36    35    1
    27    35    33    1
    28     4     1    1
    29     1     2   am
    30    34    33    1
    31    33    30    1
    32     2     3    2
    33     2    23    1
    34    29    23    2
    35    29    28    1
    36    31    30    2
    37    30    28    1
    38    30    32    2
    39    23    24    1
    40    28    26    2
    41    24    25    2
    42    26    25    1
    43    26    27    1
