@<TRIPOS>MOLECULE
38930_out_ligand_01.pdbqt
 35 39 0 0 0
SMALL
GASTEIGER

@<TRIPOS>ATOM
      1  N         24.0600  -22.3600  -11.6950 N.am    1  UNL1       -0.3440
      2  C         24.0880  -22.9420  -10.4480 C.2     1  UNL1        0.2520
      3  O         25.0790  -23.4790   -9.9700 O.2     1  UNL1       -0.2680
      4  H         23.2730  -21.7960  -11.9760 H       1  UNL1        0.1630
      5  C         22.8310  -22.8530   -9.6530 C.2     1  UNL1        0.0320
      6  C         21.6910  -23.5040  -10.1400 C.2     1  UNL1        0.0170
      7  C         20.4900  -23.4490   -9.4310 C.2     1  UNL1        0.0100
      8  C         20.4090  -22.7330   -8.2280 C.2     1  UNL1       -0.0300
      9  C         21.5500  -22.0690   -7.7520 C.2     1  UNL1        0.0100
     10  C         22.7530  -22.1240   -8.4600 C.2     1  UNL1        0.0170
     11  C         19.1050  -22.6690   -7.4560 C.3     1  UNL1        0.3110
     12  N         18.2880  -23.8830   -7.6120 N.3     1  UNL1        0.0970
     13  C         17.1480  -23.6670   -8.5190 C.3     1  UNL1        0.2770
     14  C         16.1100  -22.6550   -8.0090 C.3     1  UNL1        0.0690
     15  C         15.8060  -22.8150   -6.5400 C.2     1  UNL1       -0.0490
     16  C         14.7290  -22.1230   -5.9700 C.2     1  UNL1        0.0070
     17  C         16.6370  -23.6050   -5.7260 C.2     1  UNL1       -0.0240
     18  C         14.4660  -22.2320   -4.6050 C.2     1  UNL1        0.0010
     19  C         15.2770  -23.0260   -3.8000 C.2     1  UNL1        0.0010
     20  C         16.3560  -23.7120   -4.3570 C.2     1  UNL1        0.0090
     21  C         17.7840  -24.3950   -6.3230 C.3     1  UNL1        0.3110
     22  C         25.2210  -22.3470  -12.5700 C.3     1  UNL1        0.1510
     23  C         24.8830  -22.7060  -14.0160 C.2     1  UNL1       -0.0310
     24  C         24.1220  -21.8050  -14.7820 C.2     1  UNL1        0.0100
     25  C         23.7730  -22.0990  -16.1030 C.2     1  UNL1        0.0070
     26  C         24.1800  -23.2990  -16.6930 C.2     1  UNL1       -0.0620
     27  C         23.7880  -23.6110  -18.1070 C.3     1  UNL1        0.0480
     28  C         24.9300  -24.2060  -15.9380 C.2     1  UNL1        0.0070
     29  C         25.2790  -23.9130  -14.6150 C.2     1  UNL1        0.0100
     30  C         25.9210  -20.9980  -12.4150 C.2     1  UNL1       -0.0310
     31  C         26.3710  -20.2570  -13.5200 C.2     1  UNL1        0.0090
     32  C         26.9730  -19.0100  -13.3440 C.2     1  UNL1        0.0010
     33  C         27.1210  -18.4800  -12.0640 C.2     1  UNL1        0.0000
     34  C         26.6650  -19.1950  -10.9590 C.2     1  UNL1        0.0010
     35  C         26.0650  -20.4430  -11.1330 C.2     1  UNL1        0.0090
@<TRIPOS>BOND
     1    27    26    1
     2    26    25    2
     3    26    28    1
     4    25    24    1
     5    28    29    2
     6    24    23    2
     7    29    23    1
     8    23    22    1
     9    31    32    1
    10    31    30    2
    11    32    33    2
    12    22    30    1
    13    22     1    1
    14    30    35    1
    15    33    34    1
    16     4     1    1
    17     1     2   am
    18    35    34    2
    19     2     3    2
    20     2     5    1
    21     6     5    2
    22     6     7    1
    23     5    10    1
    24     7     8    2
    25    13    14    1
    26    13    12    1
    27    10     9    2
    28     8     9    1
    29     8    11    1
    30    14    15    1
    31    12    11    1
    32    12    21    1
    33    15    16    2
    34    15    17    1
    35    21    17    1
    36    16    18    1
    37    17    20    2
    38    18    19    2
    39    20    19    1
