@<TRIPOS>MOLECULE
38932_out_ligand_01.pdbqt
 33 36 0 0 0
SMALL
GASTEIGER

@<TRIPOS>ATOM
      1  C         18.9090  -22.4560  -10.0640 C.2     1  UNL1        0.1020
      2  C         20.2500  -22.8750  -10.0540 C.2     1  UNL1        0.0440
      3  C         21.1770  -22.3010  -10.9340 C.2     1  UNL1        0.0330
      4  C         20.7510  -21.3360  -11.8500 C.2     1  UNL1        0.0190
      5  C         19.4120  -20.9300  -11.8650 C.2     1  UNL1        0.0260
      6  C         18.4850  -21.4830  -10.9720 C.2     1  UNL1        0.0570
      7 CL         16.8720  -20.8780  -11.0670 Cl      1  UNL1       -0.0830
      8  C         22.5890  -22.7680  -10.8760 C.2     1  UNL1        0.2520
      9  O         23.0260  -23.2700   -9.8490 O.2     1  UNL1       -0.2680
     10  N         23.3430  -22.5720  -12.0100 N.am    1  UNL1       -0.3480
     11  H         22.9780  -22.0450  -12.7900 H       1  UNL1        0.1630
     12  C         24.7430  -22.9740  -12.0800 C.3     1  UNL1        0.1180
     13  C         24.9790  -23.9390  -13.2530 C.3     1  UNL1        0.0300
     14  C         24.9530  -23.1960  -14.5850 C.3     1  UNL1        0.0070
     15  C         26.0740  -22.1630  -14.6450 C.3     1  UNL1        0.0390
     16  C         26.1890  -21.3250  -13.3940 C.2     1  UNL1       -0.0500
     17  C         26.9520  -20.1480  -13.4350 C.2     1  UNL1        0.0070
     18  C         25.6040  -21.7290  -12.1770 C.2     1  UNL1       -0.0290
     19  C         27.1210  -19.3690  -12.2910 C.2     1  UNL1        0.0010
     20  C         26.5340  -19.7590  -11.0910 C.2     1  UNL1        0.0010
     21  C         25.7810  -20.9300  -11.0340 C.2     1  UNL1        0.0100
     22  S         17.7880  -23.2100   -8.9130 S.O2    1  UNL1        0.2650
     23  O         18.5350  -24.1530   -8.1090 O.2     1  UNL1       -0.2000
     24  O         16.6230  -23.6560   -9.6460 O.2     1  UNL1       -0.2000
     25  N         17.2980  -21.9270   -7.9370 N.pl3   1  UNL1       -0.2800
     26  H         17.7520  -21.0560   -8.2060 H       1  UNL1        0.1790
     27  C         16.9040  -22.1090   -6.5740 C.2     1  UNL1        0.0480
     28  C         15.6000  -22.5020   -6.2460 C.2     1  UNL1        0.0300
     29  C         15.2150  -22.6760   -4.9150 C.2     1  UNL1        0.0020
     30  C         16.1240  -22.4340   -3.8930 C.2     1  UNL1        0.0010
     31  C         17.4110  -21.9970   -4.2030 C.2     1  UNL1        0.0090
     32  C         17.8100  -21.8090   -5.5380 C.2     1  UNL1       -0.0350
     33  C         19.2060  -21.3150   -5.7990 C.3     1  UNL1        0.0500
@<TRIPOS>BOND
     1    15    14    1
     2    15    16    1
     3    14    13    1
     4    17    16    2
     5    17    19    1
     6    16    18    1
     7    13    12    1
     8    11    10    1
     9    19    20    2
    10    18    12    1
    11    18    21    2
    12    12    10    1
    13    10     8   am
    14     5     4    2
    15     5     6    1
    16     4     3    1
    17    20    21    1
    18     7     6    1
    19     6     1    2
    20     3     8    1
    21     3     2    2
    22     8     9    2
    23     1     2    1
    24     1    22    1
    25    24    22    2
    26    22    23    2
    27    22    25    1
    28    26    25    1
    29    25    27    1
    30    27    28    2
    31    27    32    1
    32    28    29    1
    33    33    32    1
    34    32    31    2
    35    29    30    2
    36    31    30    1
