@<TRIPOS>MOLECULE
38945_out_ligand_01.pdbqt
 39 44 0 0 0
SMALL
GASTEIGER

@<TRIPOS>ATOM
      1  C         19.6800  -22.1300   -7.3940 C.2     1  UNL1        0.2570
      2  O         18.8860  -22.1230   -8.3300 O.2     1  UNL1       -0.2670
      3  N         21.0550  -22.1950   -7.4740 N.am    1  UNL1       -0.3230
      4  H         21.5660  -22.1970   -6.5970 H       1  UNL1        0.1690
      5  C         19.1160  -22.0080   -6.0200 C.2     1  UNL1        0.0550
      6  C         19.3760  -20.9420   -5.1480 C.2     1  UNL1        0.0490
      7  C         18.8000  -20.9290   -3.8720 C.2     1  UNL1        0.0260
      8 CL         20.4120  -19.6190   -5.5440 Cl      1  UNL1       -0.0830
      9  C         17.9740  -21.9750   -3.4610 C.2     1  UNL1        0.0260
     10  C         17.7290  -23.0440   -4.3190 C.2     1  UNL1        0.0240
     11  C         18.2880  -23.0630   -5.5950 C.2     1  UNL1        0.0430
     12  N         16.8230  -24.0740   -3.9090 N.pl3   1  UNL1       -0.1810
     13  H         17.0750  -24.9810   -4.3140 H       1  UNL1        0.1460
     14  S         15.1940  -23.7940   -4.3480 S.O2    1  UNL1        0.2450
     15  O         14.4130  -25.0020   -4.1850 O.2     1  UNL1       -0.2060
     16  O         14.8190  -22.5480   -3.7130 O.2     1  UNL1       -0.2060
     17  C         15.3700  -23.5040   -6.0910 C.2     1  UNL1        0.0740
     18  C         15.6760  -24.5610   -6.9510 C.2     1  UNL1        0.0250
     19  C         15.8350  -24.3090   -8.3150 C.2     1  UNL1        0.0080
     20  C         15.6870  -23.0100   -8.8230 C.2     1  UNL1       -0.0620
     21  C         15.8990  -22.7380  -10.2840 C.3     1  UNL1        0.0480
     22  C         15.4040  -21.9560   -7.9410 C.2     1  UNL1        0.0080
     23  C         15.2440  -22.2000   -6.5770 C.2     1  UNL1        0.0250
     24  C         21.8480  -22.3110   -8.6340 C.2     1  UNL1        0.0350
     25  C         22.9170  -21.4220   -8.7670 C.2     1  UNL1        0.0300
     26  C         23.7630  -21.4720   -9.8840 C.2     1  UNL1        0.0100
     27  C         23.5670  -22.4100  -10.9050 C.2     1  UNL1       -0.0490
     28  C         22.4820  -23.2940  -10.7560 C.2     1  UNL1        0.0100
     29  C         21.6360  -23.2460   -9.6380 C.2     1  UNL1        0.0300
     30  C         24.4770  -22.5010  -12.1400 C.3     1  UNL1       -0.0120
     31  C         24.7450  -23.9640  -12.6140 C.3     1  UNL1        0.0190
     32  C         25.6570  -24.0010  -13.8540 C.3     1  UNL1       -0.0130
     33  C         24.9840  -23.2290  -14.9980 C.3     1  UNL1        0.0090
     34  C         27.0000  -23.3420  -13.5090 C.3     1  UNL1        0.0090
     35  C         24.7460  -21.7720  -14.5750 C.3     1  UNL1       -0.0130
     36  C         26.0930  -21.1170  -14.2250 C.3     1  UNL1        0.0090
     37  C         23.8320  -21.7410  -13.3380 C.3     1  UNL1        0.0190
     38  C         26.7720  -21.8860  -13.0790 C.3     1  UNL1       -0.0130
     39  C         25.8620  -21.8560  -11.8380 C.3     1  UNL1        0.0190
@<TRIPOS>BOND
     1    33    35    1
     2    33    32    1
     3    35    36    1
     4    35    37    1
     5    36    38    1
     6    32    34    1
     7    32    31    1
     8    34    38    1
     9    37    30    1
    10    38    39    1
    11    31    30    1
    12    30    39    1
    13    30    27    1
    14    27    28    2
    15    27    26    1
    16    28    29    1
    17    21    20    1
    18    26    25    2
    19    29    24    2
    20    20    19    2
    21    20    22    1
    22    25    24    1
    23    24     3    1
    24     2     1    2
    25    19    18    1
    26    22    23    2
    27     3     1   am
    28     3     4    1
    29     1     5    1
    30    18    17    2
    31    23    17    1
    32    17    14    1
    33     5    11    2
    34     5     6    1
    35    11    10    1
    36     8     6    1
    37     6     7    2
    38    14    15    2
    39    14    12    1
    40    14    16    2
    41    10    12    1
    42    10     9    2
    43    13    12    1
    44     7     9    1
