@<TRIPOS>MOLECULE
38957_out_ligand_01.pdbqt
 38 41 0 0 0
SMALL
GASTEIGER

@<TRIPOS>ATOM
      1  O         18.8960  -21.3250   -6.4970 O.2     1  UNL1       -0.2670
      2  C         19.1770  -22.4970   -6.7180 C.2     1  UNL1        0.2560
      3  N         18.4840  -23.6050   -6.2740 N.am    1  UNL1       -0.3220
      4  H         18.7810  -24.5160   -6.6260 H       1  UNL1        0.1690
      5  C         17.3100  -23.6590   -5.4790 C.2     1  UNL1        0.0500
      6  C         17.3510  -23.5990   -4.0810 C.2     1  UNL1        0.0300
      7  C         16.1760  -23.6150   -3.3240 C.2     1  UNL1        0.0020
      8  C         14.9380  -23.6850   -3.9510 C.2     1  UNL1        0.0010
      9  C         14.8720  -23.7580   -5.3430 C.2     1  UNL1        0.0190
     10  C         16.0480  -23.7710   -6.1150 C.2     1  UNL1        0.0580
     11  C         15.9540  -23.9030   -7.6060 C.2     1  UNL1        0.2530
     12  O         15.7470  -24.9980   -8.1240 O.2     1  UNL1       -0.2680
     13  N         16.0550  -22.7390   -8.3420 N.am    1  UNL1       -0.3560
     14  H         15.8790  -21.8650   -7.8600 H       1  UNL1        0.1620
     15  C         15.7940  -22.7330   -9.7730 C.3     1  UNL1        0.1270
     16  C         16.2670  -21.4450  -10.4510 C.3     1  UNL1        0.0580
     17  C         17.7140  -21.4950  -10.8870 C.2     1  UNL1       -0.0570
     18  C         18.3650  -20.3300  -11.3140 C.2     1  UNL1        0.0070
     19  C         19.6940  -20.3770  -11.7380 C.2     1  UNL1        0.0010
     20  C         20.3840  -21.5870  -11.7380 C.2     1  UNL1        0.0000
     21  C         19.7480  -22.7500  -11.3110 C.2     1  UNL1        0.0010
     22  C         18.4200  -22.7050  -10.8860 C.2     1  UNL1        0.0070
     23  C         20.3700  -22.7890   -7.5690 C.2     1  UNL1        0.0320
     24  C         21.3780  -21.8230   -7.6530 C.2     1  UNL1        0.0200
     25  C         22.5110  -22.0540   -8.4390 C.2     1  UNL1        0.0380
     26  C         22.6600  -23.2540   -9.1390 C.2     1  UNL1        0.0680
     27  C         21.6640  -24.2270   -9.0440 C.2     1  UNL1        0.0380
     28  C         20.5260  -23.9990   -8.2600 C.2     1  UNL1        0.0200
     29  O         23.8100  -23.3470   -9.8700 O.2     1  UNL1       -0.3500
     30  C         23.7630  -22.9070  -11.2280 C.3     1  UNL1        0.1860
     31  C         24.7120  -21.7200  -11.4100 C.3     1  UNL1        0.1060
     32  S         26.3040  -22.1760  -12.1960 S.3     1  UNL1       -0.1280
     33  C         25.7150  -22.8620  -13.7330 C.2     1  UNL1        0.0000
     34  C         25.8410  -24.2260  -14.0120 C.2     1  UNL1        0.0180
     35  C         25.3690  -24.7430  -15.2200 C.2     1  UNL1        0.0010
     36  C         24.7600  -23.9010  -16.1500 C.2     1  UNL1        0.0000
     37  C         24.6230  -22.5420  -15.8730 C.2     1  UNL1        0.0010
     38  C         25.0950  -22.0240  -14.6640 C.2     1  UNL1        0.0180
@<TRIPOS>BOND
     1    36    37    2
     2    36    35    1
     3    37    38    1
     4    35    34    2
     5    38    33    2
     6    34    33    1
     7    33    32    1
     8    32    31    1
     9    20    19    2
    10    20    21    1
    11    19    18    1
    12    31    30    1
    13    18    17    2
    14    21    22    2
    15    30    29    1
    16    17    22    1
    17    17    16    1
    18    16    15    1
    19    29    26    1
    20    15    13    1
    21    26    27    2
    22    26    25    1
    23    27    28    1
    24    25    24    2
    25    13    14    1
    26    13    11   am
    27    28    23    2
    28    12    11    2
    29    24    23    1
    30    11    10    1
    31    23     2    1
    32     2     1    2
    33     2     3   am
    34     4     3    1
    35     3     5    1
    36    10     5    2
    37    10     9    1
    38     5     6    1
    39     9     8    2
    40     6     7    2
    41     8     7    1
