@<TRIPOS>MOLECULE
38956_out_ligand_01.pdbqt
 32 34 0 0 0
SMALL
GASTEIGER

@<TRIPOS>ATOM
      1  C         18.9570  -22.2900  -10.4400 C.2     1  UNL1        0.0550
      2  C         20.2410  -22.8590  -10.4170 C.2     1  UNL1        0.0430
      3  C         21.2400  -22.3650  -11.2530 C.2     1  UNL1        0.0240
      4  C         20.9640  -21.3160  -12.1260 C.2     1  UNL1        0.0260
      5  C         19.6930  -20.7370  -12.1440 C.2     1  UNL1        0.0260
      6  C         18.6860  -21.2170  -11.2980 C.2     1  UNL1        0.0490
      7 CL         17.1600  -20.4100  -11.3600 Cl      1  UNL1       -0.0830
      8  C         17.9660  -22.8830   -9.5090 C.2     1  UNL1        0.2540
      9  N         18.4310  -23.2300   -8.2630 N.am    1  UNL1       -0.3490
     10  H         19.3800  -22.9880   -8.0170 H       1  UNL1        0.1630
     11  O         16.7970  -22.9790   -9.8670 O.2     1  UNL1       -0.2680
     12  C         17.5290  -23.5870   -7.1770 C.3     1  UNL1        0.1140
     13  C         17.6820  -25.0700   -6.8310 C.3     1  UNL1        0.0370
     14  C         17.7840  -22.6970   -5.9650 C.2     1  UNL1       -0.0290
     15  C         17.0590  -22.8410   -4.7610 C.2     1  UNL1       -0.0540
     16  C         17.3410  -21.9880   -3.6810 C.2     1  UNL1        0.0080
     17  C         15.9780  -23.8750   -4.5930 C.3     1  UNL1        0.0490
     18  C         18.3230  -21.0010   -3.7770 C.2     1  UNL1        0.0070
     19  C         19.0390  -20.8350   -4.9620 C.2     1  UNL1       -0.0610
     20  C         20.1080  -19.7890   -5.0750 C.3     1  UNL1        0.0480
     21  C         18.7710  -21.6880   -6.0400 C.2     1  UNL1        0.0160
     22  N         22.5300  -22.9880  -11.2750 N.pl3   1  UNL1       -0.1810
     23  H         22.9350  -22.9880  -12.2140 H       1  UNL1        0.1460
     24  S         23.6650  -22.2640  -10.2210 S.O2    1  UNL1        0.2450
     25  O         24.3510  -23.2920   -9.4680 O.2     1  UNL1       -0.2060
     26  O         22.9850  -21.1630   -9.5720 O.2     1  UNL1       -0.2060
     27  C         24.8160  -21.5920  -11.3930 C.2     1  UNL1        0.0740
     28  C         25.9360  -20.8860  -10.9480 C.2     1  UNL1        0.0250
     29  C         26.8360  -20.3720  -11.8830 C.2     1  UNL1        0.0020
     30  C         26.6160  -20.5690  -13.2460 C.2     1  UNL1        0.0000
     31  C         25.5000  -21.2840  -13.6830 C.2     1  UNL1        0.0020
     32  C         24.5960  -21.8030  -12.7570 C.2     1  UNL1        0.0250
@<TRIPOS>BOND
     1    31    30    2
     2    31    32    1
     3    30    29    1
     4    32    27    2
     5    23    22    1
     6     5     4    2
     7     5     6    1
     8     4     3    1
     9    29    28    2
    10    27    28    1
    11    27    24    1
    12     7     6    1
    13     6     1    2
    14    22     3    1
    15    22    24    1
    16     3     2    2
    17     1     2    1
    18     1     8    1
    19    24    26    2
    20    24    25    2
    21    11     8    2
    22     8     9   am
    23     9    10    1
    24     9    12    1
    25    12    13    1
    26    12    14    1
    27    21    14    2
    28    21    19    1
    29    14    15    1
    30    20    19    1
    31    19    18    2
    32    15    17    1
    33    15    16    2
    34    18    16    1
