@<TRIPOS>MOLECULE
38966_out_ligand_01.pdbqt
 40 43 0 0 0
SMALL
GASTEIGER

@<TRIPOS>ATOM
      1  C         21.0760  -21.6570   -7.3740 C.2     1  UNL1        0.2560
      2  O         22.0190  -20.9720   -7.0000 O.2     1  UNL1       -0.2670
      3  N         20.9960  -22.4220   -8.5220 N.am    1  UNL1       -0.3230
      4  H         20.1790  -23.0080   -8.6280 H       1  UNL1        0.1690
      5  C         19.8780  -21.7180   -6.4940 C.2     1  UNL1        0.0330
      6  C         18.9850  -22.7760   -6.6720 C.2     1  UNL1        0.0420
      7  C         17.8630  -22.9120   -5.8360 C.2     1  UNL1        0.0860
      8  C         17.6100  -21.9650   -4.8260 C.2     1  UNL1       -0.0390
      9  C         18.5280  -20.9090   -4.6600 C.2     1  UNL1        0.0090
     10  C         16.4280  -22.0220   -3.8990 C.3     1  UNL1        0.0500
     11  C         19.6550  -20.7870   -5.4780 C.2     1  UNL1        0.0170
     12  S         16.8290  -24.3380   -6.1630 S.O2    1  UNL1        0.2630
     13  O         17.6370  -25.4480   -6.6160 O.2     1  UNL1       -0.2000
     14  O         15.9520  -24.4820   -5.0190 O.2     1  UNL1       -0.2000
     15  N         15.8550  -23.8080   -7.4410 N.pl3   1  UNL1       -0.2810
     16  H         14.9770  -23.4080   -7.1120 H       1  UNL1        0.1790
     17  C         16.4710  -23.2070   -8.5750 C.2     1  UNL1        0.0420
     18  C         17.5350  -23.8330   -9.2230 C.2     1  UNL1        0.0300
     19  C         18.1560  -23.2110  -10.3090 C.2     1  UNL1        0.0090
     20  C         17.7240  -21.9530  -10.7470 C.2     1  UNL1       -0.0620
     21  C         18.3720  -21.2940  -11.9310 C.3     1  UNL1        0.0480
     22  C         16.6420  -21.3400  -10.1010 C.2     1  UNL1        0.0090
     23  C         16.0190  -21.9630   -9.0170 C.2     1  UNL1        0.0300
     24  C         21.9830  -22.5650   -9.5200 C.2     1  UNL1        0.0350
     25  C         23.2620  -23.0790   -9.2850 C.2     1  UNL1        0.0310
     26  C         24.1840  -23.2040  -10.3310 C.2     1  UNL1        0.0270
     27  C         23.8210  -22.8200  -11.6220 C.2     1  UNL1        0.0800
     28  C         22.5580  -22.2790  -11.8700 C.2     1  UNL1        0.0270
     29  C         21.6430  -22.1590  -10.8200 C.2     1  UNL1        0.0310
     30  S         24.9830  -22.9790  -12.9570 S.O2    1  UNL1        0.2630
     31  O         26.1400  -22.1740  -12.6190 O.2     1  UNL1       -0.2000
     32  O         25.1150  -24.3830  -13.2820 O.2     1  UNL1       -0.2000
     33  N         24.2160  -22.1790  -14.2300 N.pl3   1  UNL1       -0.2790
     34  H         23.2010  -22.2440  -14.1670 H       1  UNL1        0.1790
     35  C         24.8120  -22.2010  -15.5240 C.2     1  UNL1        0.0600
     36  C         25.6830  -21.2000  -15.9370 C.2     1  UNL1        0.0330
     37  C         26.2710  -21.2810  -17.1970 C.2     1  UNL1        0.0210
     38  C         25.9640  -22.3670  -18.0020 C.2     1  UNL1        0.1160
     39  N         25.1200  -23.3580  -17.6330 N.2     1  UNL1       -0.2710
     40  C         24.5670  -23.2530  -16.4020 C.2     1  UNL1        0.1460
@<TRIPOS>BOND
     1    38    39    2
     2    38    37    1
     3    39    40    1
     4    37    36    2
     5    40    35    2
     6    36    35    1
     7    35    33    1
     8    33    34    1
     9    33    30    1
    10    32    30    2
    11    30    31    2
    12    30    27    1
    13    21    20    1
    14    28    27    2
    15    28    29    1
    16    27    26    1
    17    29    24    2
    18    20    19    2
    19    20    22    1
    20    26    25    2
    21    19    18    1
    22    22    23    2
    23    24    25    1
    24    24     3    1
    25    18    17    2
    26    23    17    1
    27     4     3    1
    28    17    15    1
    29     3     1   am
    30    15    16    1
    31    15    12    1
    32     1     2    2
    33     1     5    1
    34     6     5    2
    35     6     7    1
    36    13    12    2
    37     5    11    1
    38    12     7    1
    39    12    14    2
    40     7     8    2
    41    11     9    2
    42     8     9    1
    43     8    10    1
