@<TRIPOS>MOLECULE
38968_out_ligand_01.pdbqt
 28 31 0 0 0
SMALL
GASTEIGER

@<TRIPOS>ATOM
      1  C         20.8200  -21.8040  -11.5350 C.2     1  UNL1        0.0320
      2  C         20.8830  -22.7810  -10.5350 C.2     1  UNL1        0.0170
      3  C         19.7850  -23.0090   -9.7020 C.2     1  UNL1        0.0100
      4  C         18.6150  -22.2500   -9.8480 C.2     1  UNL1       -0.0400
      5  C         18.5620  -21.2670  -10.8490 C.2     1  UNL1        0.0100
      6  C         19.6570  -21.0410  -11.6860 C.2     1  UNL1        0.0170
      7  C         22.0190  -21.5910  -12.3890 C.2     1  UNL1        0.2510
      8  O         21.9170  -21.0350  -13.4760 O.2     1  UNL1       -0.2680
      9  N         23.2260  -22.0050  -11.8640 N.am    1  UNL1       -0.3530
     10  H         23.2860  -22.1870  -10.8720 H       1  UNL1        0.1630
     11  C         24.4510  -21.7000  -12.5680 C.3     1  UNL1        0.1620
     12  C         24.7800  -22.7630  -13.5710 C.2     1  UNL1       -0.0230
     13  C         24.7260  -22.5180  -14.9450 C.2     1  UNL1        0.0120
     14  C         25.0270  -23.5400  -15.8430 C.2     1  UNL1        0.0200
     15  C         25.3630  -24.7830  -15.3310 C.2     1  UNL1        0.1160
     16  N         25.4190  -25.0610  -14.0120 N.2     1  UNL1       -0.2730
     17  C         25.1280  -24.0480  -13.1640 C.2     1  UNL1        0.1240
     18  C         17.4230  -22.4860   -8.9390 C.3     1  UNL1        0.1610
     19  N         17.8010  -23.3020   -7.7690 N.pl3   1  UNL1       -0.3760
     20  C         17.0020  -24.5170   -7.5410 C.3     1  UNL1        0.1230
     21  C         15.7890  -24.2250   -6.6740 C.3     1  UNL1        0.0240
     22  C         16.2570  -23.7600   -5.3050 C.3     1  UNL1        0.0420
     23  C         17.3510  -22.7290   -5.4090 C.2     1  UNL1       -0.0320
     24  C         17.6670  -21.9690   -4.2700 C.2     1  UNL1        0.0090
     25  C         18.0700  -22.5460   -6.6070 C.2     1  UNL1        0.0360
     26  C         18.6860  -21.0210   -4.3090 C.2     1  UNL1        0.0010
     27  C         19.4060  -20.8340   -5.4830 C.2     1  UNL1        0.0020
     28  C         19.1030  -21.5930   -6.6160 C.2     1  UNL1        0.0300
@<TRIPOS>BOND
     1    14    15    2
     2    14    13    1
     3    15    16    1
     4    13    12    2
     5    16    17    2
     6    12    17    1
     7    12    11    1
     8     8     7    2
     9    11     9    1
    10     7     9   am
    11     7     1    1
    12     9    10    1
    13     6     1    2
    14     6     5    1
    15     1     2    1
    16     5     4    2
    17     2     3    2
    18     4     3    1
    19     4    18    1
    20    18    19    1
    21    19    20    1
    22    19    25    1
    23    20    21    1
    24    21    22    1
    25    28    25    1
    26    28    27    2
    27    25    23    2
    28    27    26    1
    29    23    22    1
    30    23    24    1
    31    26    24    2
