@<TRIPOS>MOLECULE
38979_out_ligand_01.pdbqt
 31 33 0 0 0
SMALL
GASTEIGER

@<TRIPOS>ATOM
      1  C         20.0170  -23.2120   -9.4310 C.2     1  UNL1        0.0330
      2  C         19.5890  -22.3930  -10.4740 C.2     1  UNL1        0.0170
      3  C         18.2350  -22.0720  -10.5910 C.2     1  UNL1        0.0090
      4  C         17.2850  -22.5680   -9.6770 C.2     1  UNL1       -0.0390
      5  C         15.8450  -22.1930   -9.8980 C.3     1  UNL1        0.0500
      6  C         17.7300  -23.4110   -8.6380 C.2     1  UNL1        0.0860
      7  C         19.0920  -23.7470   -8.5340 C.2     1  UNL1        0.0420
      8  C         21.4390  -23.5910   -9.3000 C.2     1  UNL1        0.2530
      9  N         22.4160  -22.5990   -9.3580 N.am    1  UNL1       -0.3480
     10  C         22.1480  -21.1690   -9.4120 C.3     1  UNL1        0.1530
     11  O         21.6850  -24.7840   -9.1430 O.2     1  UNL1       -0.2670
     12  C         23.8090  -23.0180   -9.5070 C.3     1  UNL1        0.1640
     13  C         24.4000  -22.5590  -10.8200 C.2     1  UNL1       -0.0400
     14  C         25.4630  -21.6470  -10.8330 C.2     1  UNL1        0.0090
     15  C         26.0260  -21.2290  -12.0400 C.2     1  UNL1        0.0070
     16  C         25.5420  -21.7230  -13.2570 C.2     1  UNL1       -0.0620
     17  C         26.1240  -21.2430  -14.5530 C.3     1  UNL1        0.0480
     18  C         24.4690  -22.6190  -13.2470 C.2     1  UNL1        0.0070
     19  C         23.9060  -23.0390  -12.0390 C.2     1  UNL1        0.0090
     20  S         16.6470  -24.1650   -7.4260 S.O2    1  UNL1        0.2630
     21  O         15.5060  -24.7610   -8.0840 O.2     1  UNL1       -0.2000
     22  O         17.4840  -24.9590   -6.5500 O.2     1  UNL1       -0.2000
     23  N         16.1420  -22.8510   -6.4970 N.pl3   1  UNL1       -0.2800
     24  H         15.1330  -22.8100   -6.3880 H       1  UNL1        0.1790
     25  C         16.9740  -22.3110   -5.4770 C.2     1  UNL1        0.0480
     26  C         18.0600  -21.5080   -5.8420 C.2     1  UNL1        0.0300
     27  C         18.9000  -20.9630   -4.8690 C.2     1  UNL1        0.0020
     28  C         18.6620  -21.2260   -3.5250 C.2     1  UNL1        0.0010
     29  C         17.5720  -22.0140   -3.1530 C.2     1  UNL1        0.0090
     30  C         16.7020  -22.5490   -4.1180 C.2     1  UNL1       -0.0350
     31  C         15.5420  -23.3840   -3.6560 C.3     1  UNL1        0.0500
@<TRIPOS>BOND
     1    17    16    1
     2    16    18    2
     3    16    15    1
     4    18    19    1
     5    15    14    2
     6    19    13    2
     7    14    13    1
     8    13    12    1
     9     3     2    1
    10     3     4    2
    11     2     1    2
    12     5     4    1
    13     4     6    1
    14    12     9    1
    15     1     8    1
    16     1     7    1
    17    10     9    1
    18     9     8   am
    19     8    11    2
    20     6     7    2
    21     6    20    1
    22    21    20    2
    23    20    22    2
    24    20    23    1
    25    23    24    1
    26    23    25    1
    27    26    25    2
    28    26    27    1
    29    25    30    1
    30    27    28    2
    31    30    31    1
    32    30    29    2
    33    28    29    1
