@<TRIPOS>MOLECULE
38983_out_ligand_01.pdbqt
 35 37 0 0 0
SMALL
GASTEIGER

@<TRIPOS>ATOM
      1  C         17.5760  -23.4970   -8.7320 C.2     1  UNL1        0.0860
      2  C         18.9730  -23.6700   -8.7200 C.2     1  UNL1        0.0420
      3  C         19.7680  -23.0760   -9.7030 C.2     1  UNL1        0.0330
      4  C         19.1670  -22.3220  -10.7110 C.2     1  UNL1        0.0170
      5  C         17.7830  -22.1280  -10.7090 C.2     1  UNL1        0.0090
      6  C         16.9640  -22.6990   -9.7190 C.2     1  UNL1       -0.0390
      7  C         15.4940  -22.3990   -9.7700 C.3     1  UNL1        0.0500
      8  C         21.2450  -23.2450   -9.7220 C.2     1  UNL1        0.2510
      9  O         21.7470  -24.2800   -9.3000 O.2     1  UNL1       -0.2680
     10  N         21.9640  -22.1990  -10.2600 N.am    1  UNL1       -0.3530
     11  H         21.4710  -21.5070  -10.8070 H       1  UNL1        0.1630
     12  C         23.3820  -22.3230  -10.5190 C.3     1  UNL1        0.1610
     13  C         23.6560  -22.2710  -11.9990 C.2     1  UNL1       -0.0400
     14  C         24.7350  -22.9690  -12.5570 C.2     1  UNL1        0.0110
     15  C         25.0090  -22.8890  -13.9280 C.2     1  UNL1        0.0370
     16  C         24.2110  -22.1060  -14.7590 C.2     1  UNL1        0.0690
     17  C         23.1400  -21.4010  -14.2040 C.2     1  UNL1        0.0370
     18  C         22.8630  -21.4780  -12.8370 C.2     1  UNL1        0.0110
     19  O         24.3660  -21.9260  -16.1050 O.2     1  UNL1       -0.3470
     20  C         25.0150  -22.9390  -16.8780 C.3     1  UNL1        0.1200
     21  C         26.3270  -22.4050  -17.4450 C.3     1  UNL1        0.0400
     22  C         24.0640  -23.2960  -18.0200 C.3     1  UNL1        0.0400
     23  S         16.6840  -24.3020   -7.4030 S.O2    1  UNL1        0.2630
     24  O         15.4940  -24.8780   -7.9970 O.2     1  UNL1       -0.2000
     25  O         17.5850  -25.1280   -6.6310 O.2     1  UNL1       -0.2000
     26  N         16.1440  -23.0130   -6.4640 N.pl3   1  UNL1       -0.2800
     27  H         15.4530  -22.4290   -6.9260 H       1  UNL1        0.1790
     28  C         16.9740  -22.4400   -5.4620 C.2     1  UNL1        0.0490
     29  C         16.7310  -22.6690   -4.0990 C.2     1  UNL1       -0.0350
     30  C         17.5540  -22.0320   -3.1560 C.2     1  UNL1        0.0090
     31  C         15.5930  -23.5110   -3.5950 C.3     1  UNL1        0.0500
     32  C         18.6130  -21.2170   -3.5570 C.2     1  UNL1        0.0070
     33  C         18.8800  -21.0250   -4.9140 C.2     1  UNL1       -0.0600
     34  C         19.9980  -20.1280   -5.3550 C.3     1  UNL1        0.0480
     35  C         18.0470  -21.6330   -5.8590 C.2     1  UNL1        0.0370
@<TRIPOS>BOND
     1    22    20    1
     2    21    20    1
     3    20    19    1
     4    19    16    1
     5    16    17    2
     6    16    15    1
     7    17    18    1
     8    15    14    2
     9    18    13    2
    10    14    13    1
    11    13    12    1
    12    11    10    1
    13     4     5    2
    14     4     3    1
    15     5     6    1
    16    12    10    1
    17    10     8   am
    18     7     6    1
    19     8     3    1
    20     8     9    2
    21     6     1    2
    22     3     2    2
    23     1     2    1
    24     1    23    1
    25    24    23    2
    26    23    25    2
    27    23    26    1
    28    27    26    1
    29    26    28    1
    30    35    28    2
    31    35    33    1
    32    28    29    1
    33    34    33    1
    34    33    32    2
    35    29    31    1
    36    29    30    2
    37    32    30    1
