@<TRIPOS>MOLECULE
38_out_ligand_01.pdbqt
 28 31 0 0 0
SMALL
GASTEIGER

@<TRIPOS>ATOM
      1  C         18.9100  -22.1020  -10.4340 C.2     1  UNL1        0.0740
      2  C         18.7470  -22.9520   -9.3530 C.2     1  UNL1        0.0500
      3  C         17.3750  -23.0890   -8.9710 C.2     1  UNL1        0.0830
      4  C         16.5340  -22.3390   -9.7600 C.2     1  UNL1        0.0750
      5  S         17.3910  -21.5020  -10.9770 S.3     1  UNL1       -0.0950
      6  S         16.8110  -24.0900   -7.6630 S.O2    1  UNL1        0.2480
      7  O         18.0270  -24.7580   -7.2540 O.2     1  UNL1       -0.2050
      8  O         15.6980  -24.8150   -8.2420 O.2     1  UNL1       -0.2050
      9  N         16.2110  -23.0480   -6.4190 N.pl3   1  UNL1       -0.1720
     10  C         15.1300  -23.7140   -5.6250 C.3     1  UNL1        0.1140
     11  C         14.6350  -22.8010   -4.5210 C.3     1  UNL1        0.0200
     12  C         15.7700  -22.5550   -3.5470 C.3     1  UNL1        0.0420
     13  C         16.9980  -22.0630   -4.2640 C.2     1  UNL1       -0.0360
     14  C         17.9470  -21.3420   -3.5160 C.2     1  UNL1        0.0090
     15  C         17.2220  -22.3330   -5.6310 C.2     1  UNL1        0.0310
     16  C         19.0850  -20.8250   -4.1240 C.2     1  UNL1        0.0010
     17  C         19.2730  -21.0080   -5.4860 C.2     1  UNL1        0.0020
     18  C         18.3400  -21.7380   -6.2320 C.2     1  UNL1        0.0250
     19  C         20.1260  -21.6890  -11.1400 C.2     1  UNL1        0.2630
     20  O         20.0970  -20.9630  -12.1300 O.2     1  UNL1       -0.2670
     21  N         21.2930  -22.1850  -10.5770 N.am    1  UNL1       -0.3210
     22  H         21.2020  -22.6850   -9.7040 H       1  UNL1        0.1690
     23  C         22.6170  -22.0090  -11.0420 C.2     1  UNL1        0.0520
     24  C         23.0660  -22.3520  -12.3140 C.2     1  UNL1        0.0320
     25  C         24.4020  -22.1370  -12.6600 C.2     1  UNL1        0.0210
     26  C         25.2520  -21.5850  -11.7170 C.2     1  UNL1        0.1160
     27  N         24.8620  -21.2420  -10.4740 N.2     1  UNL1       -0.2710
     28  C         23.5590  -21.4610  -10.1700 C.2     1  UNL1        0.1450
@<TRIPOS>BOND
     1    25    24    1
     2    25    26    2
     3    24    23    2
     4    20    19    2
     5    26    27    1
     6    19    21   am
     7    19     1    1
     8    23    21    1
     9    23    28    1
    10     5     1    1
    11     5     4    1
    12    21    22    1
    13    27    28    2
    14     1     2    2
    15     4     3    2
    16     2     3    1
    17     3     6    1
    18     8     6    2
    19     6     7    2
    20     6     9    1
    21     9    15    1
    22     9    10    1
    23    18    15    1
    24    18    17    2
    25    15    13    2
    26    10    11    1
    27    17    16    1
    28    11    12    1
    29    13    12    1
    30    13    14    1
    31    16    14    2
