@<TRIPOS>MOLECULE
39005_out_ligand_01.pdbqt
 37 40 0 0 0
SMALL
GASTEIGER

@<TRIPOS>ATOM
      1  C         19.1340  -22.5020   -9.8240 C.2     1  UNL1        0.0860
      2  C         20.5180  -22.6910   -9.9610 C.2     1  UNL1        0.0420
      3  C         21.2070  -22.1350  -11.0440 C.2     1  UNL1        0.0330
      4  C         20.5170  -21.3380  -11.9600 C.2     1  UNL1        0.0170
      5  C         19.1430  -21.1300  -11.8140 C.2     1  UNL1        0.0090
      6  C         18.4250  -21.7180  -10.7570 C.2     1  UNL1       -0.0390
      7  C         16.9470  -21.4550  -10.6780 C.3     1  UNL1        0.0500
      8  C         22.6620  -22.4170  -11.1770 C.2     1  UNL1        0.2520
      9  O         23.2080  -23.2010  -10.4110 O.2     1  UNL1       -0.2680
     10  N         23.3030  -21.7970  -12.2230 N.am    1  UNL1       -0.3440
     11  H         22.7760  -21.3020  -12.9250 H       1  UNL1        0.1630
     12  C         24.7060  -22.0450  -12.5200 C.3     1  UNL1        0.1520
     13  C         25.5710  -20.7900  -12.3720 C.2     1  UNL1       -0.0310
     14  C         25.9960  -20.3000  -11.1240 C.2     1  UNL1        0.0090
     15  C         26.7640  -19.1350  -11.0380 C.2     1  UNL1        0.0010
     16  C         27.1200  -18.4460  -12.1930 C.2     1  UNL1        0.0000
     17  C         26.7130  -18.9180  -13.4390 C.2     1  UNL1        0.0010
     18  C         25.9410  -20.0770  -13.5290 C.2     1  UNL1        0.0090
     19  C         24.7960  -22.7140  -13.8960 C.2     1  UNL1       -0.0250
     20  C         23.9670  -22.2840  -14.9520 C.2     1  UNL1        0.0100
     21  C         24.0130  -22.8960  -16.2060 C.2     1  UNL1        0.0010
     22  C         24.8740  -23.9620  -16.4260 C.2     1  UNL1        0.0010
     23  C         25.6860  -24.4240  -15.3900 C.2     1  UNL1        0.0070
     24  C         25.6480  -23.8250  -14.1190 C.2     1  UNL1       -0.0530
     25  C         26.5220  -24.3920  -13.0300 C.3     1  UNL1        0.0490
     26  S         18.3430  -23.2930   -8.4240 S.O2    1  UNL1        0.2630
     27  O         19.3490  -24.0080   -7.6670 O.2     1  UNL1       -0.2000
     28  O         17.1630  -23.9810   -8.8990 O.2     1  UNL1       -0.2000
     29  N         17.8820  -21.9830   -7.4690 N.pl3   1  UNL1       -0.2800
     30  H         17.3970  -21.2570   -7.9900 H       1  UNL1        0.1790
     31  C         17.5870  -22.1530   -6.0860 C.2     1  UNL1        0.0480
     32  C         16.4920  -22.9330   -5.7030 C.2     1  UNL1        0.0300
     33  C         16.1850  -23.1100   -4.3540 C.2     1  UNL1        0.0020
     34  C         16.9760  -22.5140   -3.3770 C.2     1  UNL1        0.0010
     35  C         18.0790  -21.7420   -3.7500 C.2     1  UNL1        0.0090
     36  C         18.4010  -21.5570   -5.1060 C.2     1  UNL1       -0.0350
     37  C         19.5800  -20.6940   -5.4520 C.3     1  UNL1        0.0500
@<TRIPOS>BOND
     1    22    21    2
     2    22    23    1
     3    21    20    1
     4    23    24    2
     5    20    19    2
     6    24    19    1
     7    24    25    1
     8    19    12    1
     9    18    17    1
    10    18    13    2
    11    17    16    2
    12    11    10    1
    13    12    13    1
    14    12    10    1
    15    13    14    1
    16    10     8   am
    17    16    15    1
    18     4     5    2
    19     4     3    1
    20     5     6    1
    21     8     3    1
    22     8     9    2
    23    14    15    2
    24     3     2    2
    25     6     7    1
    26     6     1    2
    27     2     1    1
    28     1    26    1
    29    28    26    2
    30    26    27    2
    31    26    29    1
    32    30    29    1
    33    29    31    1
    34    31    32    2
    35    31    36    1
    36    32    33    1
    37    37    36    1
    38    36    35    2
    39    33    34    2
    40    35    34    1
