@<TRIPOS>MOLECULE
39008_out_ligand_01.pdbqt
 37 41 0 0 0
SMALL
GASTEIGER

@<TRIPOS>ATOM
      1  C         20.6900  -22.6940  -10.1170 C.2     1  UNL1        0.0320
      2  C         21.6110  -23.4290   -9.3620 C.2     1  UNL1        0.0170
      3  C         22.9450  -23.5090   -9.7720 C.2     1  UNL1        0.0090
      4  C         23.3790  -22.8470  -10.9310 C.2     1  UNL1       -0.0440
      5  C         22.4490  -22.1170  -11.6830 C.2     1  UNL1        0.0090
      6  C         21.1160  -22.0330  -11.2730 C.2     1  UNL1        0.0170
      7  C         24.8270  -22.9260  -11.3650 C.3     1  UNL1        0.1520
      8  N         25.0130  -22.5830  -12.8050 N.pl3   1  UNL1       -0.1680
      9  C         25.6140  -21.2970  -13.0470 C.2     1  UNL1        0.0250
     10  C         26.4750  -20.7820  -12.0740 C.2     1  UNL1        0.0240
     11  C         27.0760  -19.5380  -12.2630 C.2     1  UNL1        0.0020
     12  C         26.8110  -18.8030  -13.4180 C.2     1  UNL1        0.0000
     13  C         25.9400  -19.3070  -14.3840 C.2     1  UNL1        0.0020
     14  C         25.3380  -20.5530  -14.1980 C.2     1  UNL1        0.0240
     15  S         25.7010  -23.8240  -13.7740 S.O2    1  UNL1        0.2480
     16  O         27.1210  -23.9120  -13.5000 O.2     1  UNL1       -0.2050
     17  O         24.8470  -24.9920  -13.6680 O.2     1  UNL1       -0.2050
     18  C         25.5480  -23.1800  -15.4230 C.2     1  UNL1        0.0750
     19  C         24.2740  -23.0460  -15.9820 C.2     1  UNL1        0.0250
     20  C         24.1420  -22.5560  -17.2810 C.2     1  UNL1        0.0020
     21  C         25.2770  -22.1910  -18.0070 C.2     1  UNL1        0.0000
     22  C         26.5460  -22.3080  -17.4350 C.2     1  UNL1        0.0020
     23  C         26.6860  -22.8010  -16.1390 C.2     1  UNL1        0.0250
     24  C         19.2610  -22.5710   -9.7170 C.2     1  UNL1        0.2520
     25  O         18.3790  -22.5890  -10.5680 O.2     1  UNL1       -0.2680
     26  N         19.0130  -22.4800   -8.3630 N.am    1  UNL1       -0.3480
     27  H         19.7450  -22.7480   -7.7210 H       1  UNL1        0.1630
     28  C         17.6530  -22.5120   -7.8410 C.3     1  UNL1        0.1180
     29  C         16.9860  -23.8450   -8.2450 C.3     1  UNL1        0.0300
     30  C         15.8220  -24.3080   -7.3640 C.3     1  UNL1        0.0070
     31  C         15.2920  -23.2380   -6.4220 C.3     1  UNL1        0.0390
     32  C         16.4300  -22.6270   -5.6490 C.2     1  UNL1       -0.0500
     33  C         16.3100  -22.3650   -4.2790 C.2     1  UNL1        0.0070
     34  C         17.6040  -22.2690   -6.3410 C.2     1  UNL1       -0.0290
     35  C         17.3520  -21.7470   -3.5910 C.2     1  UNL1        0.0010
     36  C         18.5080  -21.3690   -4.2710 C.2     1  UNL1        0.0010
     37  C         18.6290  -21.6160   -5.6400 C.2     1  UNL1        0.0100
@<TRIPOS>BOND
     1    21    22    2
     2    21    20    1
     3    22    23    1
     4    20    19    2
     5    23    18    2
     6    19    18    1
     7    18    15    1
     8    13    14    1
     9    13    12    2
    10    14     9    2
    11    15    17    2
    12    15    16    2
    13    15     8    1
    14    12    11    1
    15     9     8    1
    16     9    10    1
    17     8     7    1
    18    11    10    2
    19     5     6    1
    20     5     4    2
    21     7     4    1
    22     6     1    2
    23     4     3    1
    24    25    24    2
    25     1    24    1
    26     1     2    1
    27     3     2    2
    28    24    26   am
    29    26    28    1
    30    26    27    1
    31    29    28    1
    32    29    30    1
    33    28    34    1
    34    30    31    1
    35    31    32    1
    36    34    32    2
    37    34    37    1
    38    32    33    1
    39    37    36    2
    40    33    35    2
    41    36    35    1
