@<TRIPOS>MOLECULE
39017_out_ligand_01.pdbqt
 37 40 0 0 0
SMALL
GASTEIGER

@<TRIPOS>ATOM
      1  C         21.1890  -22.5550  -10.8960 C.2     1  UNL1        0.0340
      2  C         20.9340  -23.4600   -9.8630 C.2     1  UNL1        0.0310
      3  C         19.6460  -23.5900   -9.3340 C.2     1  UNL1        0.0270
      4  C         18.6060  -22.8150   -9.8490 C.2     1  UNL1        0.0800
      5  C         18.8470  -21.8930  -10.8680 C.2     1  UNL1        0.0270
      6  C         20.1380  -21.7680  -11.3880 C.2     1  UNL1        0.0310
      7  N         22.4560  -22.3680  -11.4770 N.am    1  UNL1       -0.3250
      8  C         23.5680  -21.7610  -10.9190 C.2     1  UNL1        0.2510
      9  O         23.6530  -21.2820   -9.7920 O.2     1  UNL1       -0.2700
     10  H         22.6160  -22.8020  -12.3820 H       1  UNL1        0.1690
     11  C         24.7570  -21.6900  -11.8960 C.3     1  UNL1        0.2200
     12  C         26.0000  -21.2520  -11.1060 C.3     1  UNL1        0.0380
     13  C         26.4460  -19.8430  -11.4740 C.3     1  UNL1        0.0080
     14  O         24.5400  -20.7260  -12.9310 O.2     1  UNL1       -0.3370
     15  C         24.6830  -21.1370  -14.2270 C.2     1  UNL1        0.0700
     16  C         24.6150  -22.5170  -14.4070 C.2     1  UNL1        0.0370
     17  C         24.7550  -23.0750  -15.6780 C.2     1  UNL1        0.0100
     18  C         24.9720  -22.2600  -16.7960 C.2     1  UNL1       -0.0560
     19  C         25.1200  -22.8920  -18.1510 C.3     1  UNL1        0.0490
     20  C         25.0550  -20.8640  -16.6210 C.2     1  UNL1       -0.0530
     21  C         25.3100  -19.9450  -17.7860 C.3     1  UNL1        0.0490
     22  C         24.9130  -20.3170  -15.3320 C.2     1  UNL1        0.0440
     23  S         16.9720  -22.9900   -9.1780 S.O2    1  UNL1        0.2630
     24  O         16.5910  -21.7010   -8.6390 O.2     1  UNL1       -0.2000
     25  O         16.1400  -23.6680  -10.1470 O.2     1  UNL1       -0.2000
     26  N         17.2310  -23.9920   -7.8430 N.pl3   1  UNL1       -0.2800
     27  H         18.1480  -24.4320   -7.8790 H       1  UNL1        0.1790
     28  C         16.7610  -23.5550   -6.5680 C.2     1  UNL1        0.0530
     29  C         15.5370  -24.0620   -6.1230 C.2     1  UNL1        0.0310
     30  C         15.0220  -23.6650   -4.8940 C.2     1  UNL1        0.0030
     31  C         15.7290  -22.7600   -4.1050 C.2     1  UNL1        0.0120
     32  C         16.9580  -22.2340   -4.5340 C.2     1  UNL1       -0.0240
     33  C         17.6610  -21.3230   -3.7270 C.2     1  UNL1        0.0120
     34  C         17.4930  -22.6220   -5.7880 C.2     1  UNL1        0.0010
     35  C         18.8780  -20.7860   -4.1420 C.2     1  UNL1        0.0010
     36  C         19.4090  -21.1480   -5.3740 C.2     1  UNL1        0.0010
     37  C         18.7250  -22.0540   -6.1870 C.2     1  UNL1        0.0140
@<TRIPOS>BOND
     1    19    18    1
     2    21    20    1
     3    18    20    2
     4    18    17    1
     5    20    22    1
     6    17    16    2
     7    22    15    2
     8    16    15    1
     9    15    14    1
    10    14    11    1
    11    10     7    1
    12    11    12    1
    13    11     8    1
    14     7     8   am
    15     7     1    1
    16    13    12    1
    17     6     1    2
    18     6     5    1
    19     8     9    2
    20     1     2    1
    21     5     4    2
    22    25    23    2
    23     2     3    2
    24     4     3    1
    25     4    23    1
    26    23    24    2
    27    23    26    1
    28    27    26    1
    29    26    28    1
    30    28    29    2
    31    28    34    1
    32    37    34    1
    33    37    36    2
    34    29    30    1
    35    34    32    2
    36    36    35    1
    37    30    31    2
    38    32    31    1
    39    32    33    1
    40    35    33    2
