@<TRIPOS>MOLECULE
39021_out_ligand_01.pdbqt
 39 43 0 0 0
SMALL
GASTEIGER

@<TRIPOS>ATOM
      1  O         19.8710  -20.8190   -6.1500 O.2     1  UNL1       -0.2670
      2  C         19.8320  -21.9680   -6.5800 C.2     1  UNL1        0.2560
      3  N         18.8950  -22.9270   -6.2470 N.am    1  UNL1       -0.3220
      4  H         18.9360  -23.8200   -6.7400 H       1  UNL1        0.1690
      5  C         17.7940  -22.8220   -5.3590 C.2     1  UNL1        0.0500
      6  C         17.9440  -22.4300   -4.0240 C.2     1  UNL1        0.0300
      7  C         16.8340  -22.3040   -3.1820 C.2     1  UNL1        0.0020
      8  C         15.5550  -22.5650   -3.6610 C.2     1  UNL1        0.0010
      9  C         15.3820  -22.9680   -4.9840 C.2     1  UNL1        0.0190
     10  C         16.4930  -23.1170   -5.8350 C.2     1  UNL1        0.0580
     11  C         16.2860  -23.5970   -7.2390 C.2     1  UNL1        0.2530
     12  O         16.4190  -24.7850   -7.5190 O.2     1  UNL1       -0.2680
     13  N         15.8830  -22.6500   -8.1610 N.am    1  UNL1       -0.3560
     14  H         15.4470  -21.8110   -7.7970 H       1  UNL1        0.1620
     15  C         15.4740  -23.0510   -9.4970 C.3     1  UNL1        0.1270
     16  C         15.7540  -21.9730  -10.5470 C.3     1  UNL1        0.0580
     17  C         17.2260  -21.7960  -10.8410 C.2     1  UNL1       -0.0570
     18  C         18.1240  -22.8580  -10.6650 C.2     1  UNL1        0.0070
     19  C         19.4770  -22.6960  -10.9630 C.2     1  UNL1        0.0010
     20  C         19.9480  -21.4730  -11.4350 C.2     1  UNL1        0.0000
     21  C         19.0660  -20.4080  -11.6080 C.2     1  UNL1        0.0010
     22  C         17.7110  -20.5670  -11.3110 C.2     1  UNL1        0.0070
     23  C         20.8760  -22.3930   -7.5670 C.2     1  UNL1        0.0320
     24  C         21.9220  -21.5030   -7.8420 C.2     1  UNL1        0.0170
     25  C         22.9250  -21.8470   -8.7530 C.2     1  UNL1        0.0100
     26  C         22.9100  -23.0910   -9.4000 C.2     1  UNL1       -0.0400
     27  C         21.8660  -23.9830   -9.1150 C.2     1  UNL1        0.0100
     28  C         20.8630  -23.6430   -8.1990 C.2     1  UNL1        0.0170
     29  C         23.9750  -23.4550  -10.4150 C.3     1  UNL1        0.1610
     30  N         24.6370  -22.2540  -10.9410 N.pl3   1  UNL1       -0.3760
     31  C         26.0140  -22.0590  -10.4700 C.3     1  UNL1        0.1230
     32  C         26.5090  -20.6570  -10.7750 C.3     1  UNL1        0.0240
     33  C         26.4910  -20.4500  -12.2780 C.3     1  UNL1        0.0420
     34  C         25.1460  -20.8180  -12.8550 C.2     1  UNL1       -0.0320
     35  C         24.7950  -20.2720  -14.1050 C.2     1  UNL1        0.0090
     36  C         24.2780  -21.7000  -12.1720 C.2     1  UNL1        0.0360
     37  C         23.5590  -20.5490  -14.6760 C.2     1  UNL1        0.0010
     38  C         22.6650  -21.3640  -13.9970 C.2     1  UNL1        0.0020
     39  C         23.0210  -21.9210  -12.7630 C.2     1  UNL1        0.0300
@<TRIPOS>BOND
     1    37    35    1
     2    37    38    2
     3    35    34    2
     4    38    39    1
     5    34    33    1
     6    34    36    1
     7    39    36    2
     8    33    32    1
     9    36    30    1
    10    21    20    2
    11    21    22    1
    12    20    19    1
    13    22    17    2
    14    19    18    2
    15    30    31    1
    16    30    29    1
    17    17    18    1
    18    17    16    1
    19    32    31    1
    20    16    15    1
    21    29    26    1
    22    15    13    1
    23    26    27    2
    24    26    25    1
    25    27    28    1
    26    25    24    2
    27    28    23    2
    28    13    14    1
    29    13    11   am
    30    24    23    1
    31    23     2    1
    32    12    11    2
    33    11    10    1
    34     4     3    1
    35     2     3   am
    36     2     1    2
    37     3     5    1
    38    10     5    2
    39    10     9    1
    40     5     6    1
    41     9     8    2
    42     6     7    2
    43     8     7    1
