@<TRIPOS>MOLECULE
39022_out_ligand_01.pdbqt
 33 35 0 0 0
SMALL
GASTEIGER

@<TRIPOS>ATOM
      1  C         21.2200  -23.1230  -10.0400 C.2     1  UNL1        0.0340
      2  C         21.0100  -24.0240   -8.9940 C.2     1  UNL1        0.0310
      3  C         19.7390  -24.1760   -8.4290 C.2     1  UNL1        0.0270
      4  C         18.6680  -23.4300   -8.9230 C.2     1  UNL1        0.0800
      5  C         18.8680  -22.5040   -9.9460 C.2     1  UNL1        0.0270
      6  C         20.1410  -22.3600  -10.5070 C.2     1  UNL1        0.0310
      7  N         22.4660  -22.9150  -10.6650 N.am    1  UNL1       -0.3250
      8  C         23.3950  -21.9170  -10.4070 C.2     1  UNL1        0.2510
      9  O         23.2960  -21.0620   -9.5320 O.2     1  UNL1       -0.2700
     10  H         22.6970  -23.5640  -11.4100 H       1  UNL1        0.1690
     11  C         24.6380  -22.0150  -11.3280 C.3     1  UNL1        0.2170
     12  C         25.7520  -21.1090  -10.8070 C.3     1  UNL1        0.0500
     13  O         24.3540  -21.5860  -12.6660 O.2     1  UNL1       -0.3360
     14  C         24.7010  -22.4990  -13.6240 C.2     1  UNL1        0.0750
     15  C         24.8800  -23.8180  -13.1950 C.2     1  UNL1        0.0370
     16  C         25.2540  -24.8040  -14.1040 C.2     1  UNL1        0.0030
     17  C         25.4270  -24.4760  -15.4460 C.2     1  UNL1        0.0010
     18  C         25.1980  -23.1700  -15.8830 C.2     1  UNL1        0.0090
     19  C         24.8010  -22.1700  -14.9830 C.2     1  UNL1       -0.0290
     20  C         24.5060  -20.7950  -15.5030 C.3     1  UNL1        0.0510
     21  S         17.0560  -23.6020   -8.1950 S.O2    1  UNL1        0.2630
     22  O         16.0900  -23.6030   -9.2750 O.2     1  UNL1       -0.2000
     23  O         17.1190  -24.7050   -7.2620 O.2     1  UNL1       -0.2000
     24  N         16.8100  -22.1510   -7.3700 N.pl3   1  UNL1       -0.2800
     25  H         17.1250  -21.3430   -7.9020 H       1  UNL1        0.1790
     26  C         16.8970  -22.1010   -5.9480 C.2     1  UNL1        0.0540
     27  C         15.7700  -22.4140   -5.1620 C.2     1  UNL1       -0.0340
     28  C         14.4100  -22.6960   -5.7420 C.3     1  UNL1        0.0500
     29  C         15.9010  -22.4650   -3.7660 C.2     1  UNL1        0.0090
     30  C         17.1160  -22.1770   -3.1530 C.2     1  UNL1        0.0010
     31  C         18.2130  -21.8210   -3.9300 C.2     1  UNL1        0.0090
     32  C         18.1190  -21.7620   -5.3310 C.2     1  UNL1       -0.0340
     33  C         19.3600  -21.3760   -6.0880 C.3     1  UNL1        0.0500
@<TRIPOS>BOND
     1    18    17    2
     2    18    19    1
     3    20    19    1
     4    17    16    1
     5    19    14    2
     6    16    15    2
     7    14    15    1
     8    14    13    1
     9    13    11    1
    10    10     7    1
    11    11    12    1
    12    11     8    1
    13     7     8   am
    14     7     1    1
    15     6     1    2
    16     6     5    1
    17     8     9    2
    18     1     2    1
    19     5     4    2
    20    22    21    2
    21     2     3    2
    22     4     3    1
    23     4    21    1
    24    21    24    1
    25    21    23    2
    26    25    24    1
    27    24    26    1
    28    33    32    1
    29    26    32    2
    30    26    27    1
    31    28    27    1
    32    32    31    1
    33    27    29    2
    34    31    30    2
    35    29    30    1
