@<TRIPOS>MOLECULE
39028_out_ligand_01.pdbqt
 39 42 0 0 0
SMALL
GASTEIGER

@<TRIPOS>ATOM
      1  N         20.9210  -22.6080  -10.0200 N.am    1  UNL1       -0.3230
      2  C         21.2110  -22.3310   -8.6970 C.2     1  UNL1        0.2560
      3  O         22.2110  -21.7770   -8.2570 O.2     1  UNL1       -0.2670
      4  H         19.9970  -22.9700  -10.2200 H       1  UNL1        0.1690
      5  C         21.7330  -22.3550  -11.1460 C.2     1  UNL1        0.0350
      6  C         21.3650  -21.5170  -12.2010 C.2     1  UNL1        0.0310
      7  C         22.2270  -21.3170  -13.2850 C.2     1  UNL1        0.0270
      8  C         23.4740  -21.9440  -13.3040 C.2     1  UNL1        0.0750
      9  C         23.8530  -22.7940  -12.2630 C.2     1  UNL1        0.0270
     10  C         22.9820  -22.9920  -11.1870 C.2     1  UNL1        0.0310
     11  S         24.5620  -21.7260  -14.6920 S.O2    1  UNL1        0.2480
     12  O         23.8040  -21.2480  -15.8290 O.2     1  UNL1       -0.2050
     13  O         25.3350  -22.9480  -14.7990 O.2     1  UNL1       -0.2050
     14  N         25.6310  -20.5600  -14.1820 N.pl3   1  UNL1       -0.1480
     15  H         26.3990  -20.9330  -13.6360 H       1  UNL1        0.1490
     16  C         26.0400  -19.6250  -15.1250 C.cat   1  UNL1        0.2150
     17  N         26.3200  -20.1600  -16.3160 N.2     1  UNL1       -0.2300
     18  C         26.8420  -19.3080  -17.2160 C.2     1  UNL1        0.1220
     19  C         27.1190  -17.9870  -16.9420 C.2     1  UNL1        0.0460
     20  C         26.8410  -17.5620  -15.6590 C.2     1  UNL1        0.0350
     21  C         27.1200  -16.1480  -15.2490 C.3     1  UNL1        0.0700
     22  N         26.3180  -18.3840  -14.7270 N.2     1  UNL1       -0.2230
     23  C         20.1530  -22.7350   -7.7310 C.2     1  UNL1        0.0320
     24  C         19.5740  -24.0030   -7.8680 C.2     1  UNL1        0.0190
     25  C         18.5850  -24.4220   -6.9750 C.2     1  UNL1        0.0250
     26  C         18.1540  -23.5640   -5.9590 C.2     1  UNL1        0.0250
     27  C         18.7280  -22.2980   -5.8240 C.2     1  UNL1        0.0250
     28  C         19.7200  -21.8760   -6.7120 C.2     1  UNL1        0.0190
     29  N         17.1720  -23.9650   -4.9860 N.pl3   1  UNL1       -0.1760
     30  C         17.5600  -23.7230   -3.5750 C.3     1  UNL1        0.1360
     31  S         15.5840  -23.4360   -5.4000 S.O2    1  UNL1        0.2470
     32  O         15.4230  -22.0550   -4.9900 O.2     1  UNL1       -0.2050
     33  O         14.6490  -24.4590   -4.9750 O.2     1  UNL1       -0.2050
     34  C         15.6350  -23.4380   -7.1770 C.2     1  UNL1        0.0750
     35  C         15.9270  -22.2470   -7.8470 C.2     1  UNL1        0.0250
     36  C         15.9680  -22.2370   -9.2410 C.2     1  UNL1        0.0020
     37  C         15.7130  -23.4090   -9.9540 C.2     1  UNL1        0.0000
     38  C         15.4110  -24.5930   -9.2800 C.2     1  UNL1        0.0020
     39  C         15.3680  -24.6120   -7.8860 C.2     1  UNL1        0.0250
@<TRIPOS>BOND
     1    18    19    2
     2    18    17    1
     3    19    20    1
     4    17    16    2
     5    12    11    2
     6    20    21    1
     7    20    22    2
     8    16    22    1
     9    16    14    1
    10    13    11    2
    11    11    14    1
    12    11     8    1
    13    14    15    1
    14     8     7    2
    15     8     9    1
    16     7     6    1
    17     9    10    2
    18     6     5    2
    19    10     5    1
    20     5     1    1
    21     4     1    1
    22     1     2   am
    23    37    38    2
    24    37    36    1
    25    38    39    1
    26    36    35    2
    27     2     3    2
    28     2    23    1
    29    39    34    2
    30    24    23    2
    31    24    25    1
    32    35    34    1
    33    23    28    1
    34    34    31    1
    35    25    26    2
    36    28    27    2
    37    26    27    1
    38    26    29    1
    39    31    32    2
    40    31    29    1
    41    31    33    2
    42    29    30    1
