@<TRIPOS>MOLECULE
39025_out_ligand_01.pdbqt
 42 45 0 0 0
SMALL
GASTEIGER

@<TRIPOS>ATOM
      1  C         21.1810  -21.7620   -7.5740 C.2     1  UNL1        0.2560
      2  O         22.1930  -21.2080   -7.1670 O.2     1  UNL1       -0.2670
      3  N         20.9910  -22.3980   -8.7870 N.am    1  UNL1       -0.3230
      4  H         20.1190  -22.8980   -8.9130 H       1  UNL1        0.1690
      5  C         20.0060  -21.7980   -6.6650 C.2     1  UNL1        0.0330
      6  C         19.0840  -22.8360   -6.8110 C.2     1  UNL1        0.0420
      7  C         17.9850  -22.9380   -5.9410 C.2     1  UNL1        0.0860
      8  C         17.7880  -21.9810   -4.9260 C.2     1  UNL1       -0.0390
      9  C         18.7350  -20.9460   -4.7960 C.2     1  UNL1        0.0090
     10  C         16.6350  -22.0010   -3.9620 C.3     1  UNL1        0.0500
     11  C         19.8370  -20.8560   -5.6500 C.2     1  UNL1        0.0170
     12  S         16.9000  -24.3350   -6.2300 S.O2    1  UNL1        0.2630
     13  O         17.6590  -25.4650   -6.7180 O.2     1  UNL1       -0.2000
     14  O         16.0680  -24.4620   -5.0500 O.2     1  UNL1       -0.2000
     15  N         15.8880  -23.7750   -7.4640 N.pl3   1  UNL1       -0.2810
     16  H         15.0350  -23.3540   -7.1000 H       1  UNL1        0.1790
     17  C         16.4750  -23.1870   -8.6200 C.2     1  UNL1        0.0420
     18  C         17.5120  -23.8270   -9.2950 C.2     1  UNL1        0.0300
     19  C         18.1070  -23.2160  -10.4020 C.2     1  UNL1        0.0090
     20  C         17.6760  -21.9550  -10.8320 C.2     1  UNL1       -0.0620
     21  C         18.2960  -21.3130  -12.0390 C.3     1  UNL1        0.0480
     22  C         16.6200  -21.3290  -10.1580 C.2     1  UNL1        0.0090
     23  C         16.0230  -21.9400   -9.0530 C.2     1  UNL1        0.0300
     24  C         21.9210  -22.5260   -9.8400 C.2     1  UNL1        0.0350
     25  C         23.1780  -23.0600   -9.5210 C.2     1  UNL1        0.0310
     26  C         24.1640  -23.2100  -10.5010 C.2     1  UNL1        0.0270
     27  C         23.8870  -22.8320  -11.8150 C.2     1  UNL1        0.0750
     28  C         22.6410  -22.2960  -12.1470 C.2     1  UNL1        0.0270
     29  C         21.6600  -22.1510  -11.1610 C.2     1  UNL1        0.0310
     30  S         25.1480  -22.9470  -13.0600 S.O2    1  UNL1        0.2480
     31  O         26.3900  -22.5660  -12.4180 O.2     1  UNL1       -0.2050
     32  O         25.0420  -24.2260  -13.7290 O.2     1  UNL1       -0.2050
     33  N         24.7850  -21.7140  -14.1130 N.pl3   1  UNL1       -0.1480
     34  H         25.1930  -20.8270  -13.8420 H       1  UNL1        0.1490
     35  C         24.9360  -21.9830  -15.4660 C.cat   1  UNL1        0.2160
     36  N         25.8880  -21.2490  -16.0480 N.2     1  UNL1       -0.2230
     37  C         26.0010  -21.3850  -17.3840 C.2     1  UNL1        0.0360
     38  C         27.0900  -20.6130  -18.0680 C.3     1  UNL1        0.0700
     39  C         25.1570  -22.1980  -18.1170 C.2     1  UNL1        0.0530
     40  C         24.1730  -22.8690  -17.4140 C.2     1  UNL1        0.0360
     41  C         23.2030  -23.7590  -18.1320 C.3     1  UNL1        0.0700
     42  N         24.0370  -22.7550  -16.0780 N.2     1  UNL1       -0.2230
@<TRIPOS>BOND
     1    41    40    1
     2    39    40    1
     3    39    37    2
     4    38    37    1
     5    40    42    2
     6    37    36    1
     7    42    35    1
     8    36    35    2
     9    35    33    1
    10    33    34    1
    11    33    30    1
    12    32    30    2
    13    30    31    2
    14    30    27    1
    15    28    27    2
    16    28    29    1
    17    21    20    1
    18    27    26    1
    19    29    24    2
    20    20    19    2
    21    20    22    1
    22    26    25    2
    23    19    18    1
    24    22    23    2
    25    24    25    1
    26    24     3    1
    27    18    17    2
    28    23    17    1
    29     4     3    1
    30     3     1   am
    31    17    15    1
    32     1     2    2
    33     1     5    1
    34    15    16    1
    35    15    12    1
    36     6     5    2
    37     6     7    1
    38    13    12    2
    39     5    11    1
    40    12     7    1
    41    12    14    2
    42     7     8    2
    43    11     9    2
    44     8     9    1
    45     8    10    1
