@<TRIPOS>MOLECULE
39033_out_ligand_01.pdbqt
 37 40 0 0 0
SMALL
GASTEIGER

@<TRIPOS>ATOM
      1  C         20.8750  -22.5500  -10.8020 C.2     1  UNL1        0.0340
      2  C         19.8100  -21.7880  -11.2900 C.2     1  UNL1        0.0310
      3  C         18.5230  -21.9520  -10.7670 C.2     1  UNL1        0.0270
      4  C         18.3070  -22.8750   -9.7430 C.2     1  UNL1        0.0800
      5  C         19.3500  -23.6760   -9.2790 C.2     1  UNL1        0.0270
      6  C         20.6330  -23.5040   -9.8040 C.2     1  UNL1        0.0310
      7  N         22.2010  -22.4210  -11.2520 N.am    1  UNL1       -0.3250
      8  C         23.2500  -21.7510  -10.6460 C.2     1  UNL1        0.2510
      9  O         23.2030  -21.1160   -9.5970 O.2     1  UNL1       -0.2700
     10  H         22.4600  -22.9550  -12.0780 H       1  UNL1        0.1690
     11  C         24.5520  -21.8360  -11.4630 C.3     1  UNL1        0.2170
     12  C         25.6460  -21.0890  -10.7060 C.3     1  UNL1        0.0500
     13  O         24.4240  -21.2000  -12.7400 O.2     1  UNL1       -0.3360
     14  C         24.9480  -21.8710  -13.8160 C.2     1  UNL1        0.0760
     15  C         25.5130  -21.0790  -14.8350 C.2     1  UNL1       -0.0230
     16  C         26.1070  -21.7160  -15.9480 C.2     1  UNL1       -0.0530
     17  C         25.5520  -19.5780  -14.6910 C.3     1  UNL1        0.0520
     18  C         26.0510  -23.1150  -16.0560 C.2     1  UNL1        0.0140
     19  C         26.7810  -20.9340  -17.0450 C.3     1  UNL1        0.0490
     20  C         25.4290  -23.8930  -15.0750 C.2     1  UNL1       -0.0590
     21  C         25.3990  -25.3880  -15.1930 C.3     1  UNL1        0.0480
     22  C         24.8890  -23.2620  -13.9500 C.2     1  UNL1        0.0440
     23  S         16.6830  -23.0450   -9.0370 S.O2    1  UNL1        0.2630
     24  O         15.8540  -23.7520   -9.9910 O.2     1  UNL1       -0.2000
     25  O         16.2910  -21.7490   -8.5220 O.2     1  UNL1       -0.2000
     26  N         16.9450  -24.0230   -7.6830 N.pl3   1  UNL1       -0.2800
     27  H         16.8170  -25.0120   -7.8850 H       1  UNL1        0.1790
     28  C         16.5430  -23.5420   -6.3970 C.2     1  UNL1        0.0530
     29  C         15.3640  -24.0570   -5.8500 C.2     1  UNL1        0.0310
     30  C         14.9560  -23.6730   -4.5780 C.2     1  UNL1        0.0030
     31  C         15.7290  -22.7730   -3.8450 C.2     1  UNL1        0.0120
     32  C         16.9210  -22.2480   -4.3700 C.2     1  UNL1       -0.0240
     33  C         17.6940  -21.3550   -3.6080 C.2     1  UNL1        0.0120
     34  C         17.3480  -22.6270   -5.6670 C.2     1  UNL1        0.0010
     35  C         18.8890  -20.8370   -4.1020 C.2     1  UNL1        0.0010
     36  C         19.3240  -21.1980   -5.3700 C.2     1  UNL1        0.0010
     37  C         18.5610  -22.0760   -6.1450 C.2     1  UNL1        0.0140
@<TRIPOS>BOND
     1    19    16    1
     2    18    16    2
     3    18    20    1
     4    16    15    1
     5    21    20    1
     6    20    22    2
     7    15    17    1
     8    15    14    2
     9    22    14    1
    10    14    13    1
    11    13    11    1
    12    10     7    1
    13    11    12    1
    14    11     8    1
    15     2     1    2
    16     2     3    1
    17     7     1    1
    18     7     8   am
    19     1     6    1
    20     3     4    2
    21     8     9    2
    22    24    23    2
    23     6     5    2
    24     4     5    1
    25     4    23    1
    26    23    25    2
    27    23    26    1
    28    27    26    1
    29    26    28    1
    30    28    29    2
    31    28    34    1
    32    37    34    1
    33    37    36    2
    34    29    30    1
    35    34    32    2
    36    36    35    1
    37    30    31    2
    38    32    31    1
    39    32    33    1
    40    35    33    2
