@<TRIPOS>MOLECULE
3903_out_ligand_01.pdbqt
 31 34 0 0 0
SMALL
GASTEIGER

@<TRIPOS>ATOM
      1  C         21.3110  -23.1420   -9.9930 C.2     1  UNL1        0.0340
      2  C         20.9110  -23.9110   -8.8900 C.2     1  UNL1        0.0310
      3  C         19.5890  -23.8810   -8.4390 C.2     1  UNL1        0.0270
      4  C         18.6590  -23.0710   -9.0940 C.2     1  UNL1        0.0800
      5  C         19.0370  -22.3160  -10.2050 C.2     1  UNL1        0.0270
      6  C         20.3640  -22.3490  -10.6480 C.2     1  UNL1        0.0310
      7  N         22.6620  -23.2280  -10.3750 N.am    1  UNL1       -0.3250
      8  C         23.6770  -22.3110  -10.1490 C.2     1  UNL1        0.2540
      9  O         23.5600  -21.2260   -9.5870 O.2     1  UNL1       -0.2700
     10  H         22.9580  -24.0940  -10.8160 H       1  UNL1        0.1690
     11  C         25.0150  -22.7560  -10.7740 C.3     1  UNL1        0.2450
     12  C         24.8030  -23.4780  -12.1000 C.3     1  UNL1        0.2180
     13  O         24.3680  -22.5850  -13.1320 O.2     1  UNL1       -0.3450
     14  C         25.0870  -21.4200  -13.1320 C.2     1  UNL1        0.1020
     15  C         24.9920  -20.6270  -14.2740 C.2     1  UNL1        0.0390
     16  C         25.8760  -21.0070  -12.0580 C.2     1  UNL1        0.1030
     17  C         25.7120  -19.4340  -14.3550 C.2     1  UNL1        0.0030
     18  C         26.5240  -19.0350  -13.2920 C.2     1  UNL1        0.0030
     19  C         26.6060  -19.8210  -12.1430 C.2     1  UNL1        0.0400
     20  O         25.9790  -21.7040  -10.8830 O.2     1  UNL1       -0.3310
     21  S         16.9760  -23.0400   -8.5350 S.O2    1  UNL1        0.2630
     22  O         16.7410  -21.8110   -7.8080 O.2     1  UNL1       -0.2000
     23  O         16.1410  -23.4050   -9.6610 O.2     1  UNL1       -0.2000
     24  N         16.9130  -24.3540   -7.4700 N.pl3   1  UNL1       -0.2810
     25  H         16.4220  -25.1370   -7.9000 H       1  UNL1        0.1790
     26  C         16.6350  -24.0870   -6.1020 C.2     1  UNL1        0.0420
     27  C         15.3170  -23.9360   -5.6740 C.2     1  UNL1        0.0300
     28  C         15.0530  -23.6360   -4.3360 C.2     1  UNL1        0.0020
     29  C         16.1060  -23.4840   -3.4340 C.2     1  UNL1        0.0000
     30  C         17.4240  -23.6280   -3.8680 C.2     1  UNL1        0.0020
     31  C         17.6900  -23.9270   -5.2040 C.2     1  UNL1        0.0300
@<TRIPOS>BOND
     1    17    15    1
     2    17    18    2
     3    15    14    2
     4    18    19    1
     5    13    14    1
     6    13    12    1
     7    14    16    1
     8    19    16    2
     9    12    11    1
    10    16    20    1
    11    20    11    1
    12    10     7    1
    13    11     8    1
    14     6     5    1
    15     6     1    2
    16     7     8   am
    17     7     1    1
    18     5     4    2
    19     8     9    2
    20     1     2    1
    21    23    21    2
    22     4    21    1
    23     4     3    1
    24     2     3    2
    25    21    22    2
    26    21    24    1
    27    25    24    1
    28    24    26    1
    29    26    27    2
    30    26    31    1
    31    27    28    1
    32    31    30    2
    33    28    29    2
    34    30    29    1
