@<TRIPOS>MOLECULE
39048_out_ligand_01.pdbqt
 39 43 0 0 0
SMALL
GASTEIGER

@<TRIPOS>ATOM
      1  N         22.4370  -23.7450  -10.4130 N.am    1  UNL1       -0.3270
      2  C         21.8760  -23.5880   -9.1570 C.2     1  UNL1        0.2220
      3  O         22.1070  -22.6830   -8.3620 O.2     1  UNL1       -0.2730
      4  H         22.1330  -24.5520  -10.9450 H       1  UNL1        0.1690
      5  C         23.3420  -22.8840  -11.0650 C.2     1  UNL1        0.0340
      6  C         22.9450  -22.3650  -12.3070 C.2     1  UNL1        0.0310
      7  C         23.7770  -21.4980  -13.0210 C.2     1  UNL1        0.0270
      8  C         25.0190  -21.1510  -12.4930 C.2     1  UNL1        0.0800
      9  C         25.4260  -21.6510  -11.2540 C.2     1  UNL1        0.0270
     10  C         24.5870  -22.5200  -10.5460 C.2     1  UNL1        0.0310
     11  S         26.0800  -20.0260  -13.3660 S.O2    1  UNL1        0.2760
     12  O         25.2890  -19.2450  -14.2950 O.2     1  UNL1       -0.2000
     13  O         26.8800  -19.3580  -12.3580 O.2     1  UNL1       -0.2000
     14  N         27.1190  -21.0180  -14.1920 N.pl3   1  UNL1       -0.1090
     15  H         27.7210  -20.5370  -14.8490 H       1  UNL1        0.1980
     16  C         26.6240  -22.2230  -14.6720 C.cat   1  UNL1        0.7360
     17  N         26.9430  -23.2670  -13.9030 N.2     1  UNL1       -0.0740
     18  C         26.3590  -24.4290  -14.2430 C.2     1  UNL1        0.1380
     19  C         25.4600  -24.5540  -15.2770 C.2     1  UNL1        0.0470
     20  C         25.1690  -23.3960  -15.9720 C.2     1  UNL1        0.0510
     21  C         24.1890  -23.4180  -17.1060 C.3     1  UNL1        0.0710
     22  N         25.7290  -22.2100  -15.6610 N.2     1  UNL1       -0.0670
     23  C         20.9180  -24.7180   -8.8170 C.3     1  UNL1        0.1040
     24  C         19.6570  -24.2370   -8.0940 C.3     1  UNL1        0.0250
     25  C         18.8440  -23.2050   -8.8810 C.3     1  UNL1        0.1140
     26  N         17.7960  -22.6100   -8.0290 N.pl3   1  UNL1       -0.1710
     27  C         18.1040  -22.1880   -6.6840 C.2     1  UNL1        0.0380
     28  C         19.2360  -21.4970   -6.2800 C.2     1  UNL1        0.0250
     29  C         17.0640  -22.3670   -5.7870 C.2     1  UNL1        0.0190
     30  C         19.3210  -21.0530   -4.9520 C.2     1  UNL1        0.0030
     31  C         18.2680  -21.2720   -4.0430 C.2     1  UNL1        0.0120
     32  C         17.0990  -21.9340   -4.4590 C.2     1  UNL1       -0.0230
     33  C         15.9570  -22.1970   -3.6710 C.2     1  UNL1        0.0120
     34  C         14.8400  -22.8610   -4.2190 C.2     1  UNL1        0.0020
     35  C         14.8360  -23.2780   -5.5550 C.2     1  UNL1        0.0260
     36  C         15.9670  -23.0150   -6.3030 C.2     1  UNL1        0.0870
     37  S         16.2750  -23.4360   -7.9690 S.O2    1  UNL1        0.2490
     38  O         16.4890  -24.8640   -8.0360 O.2     1  UNL1       -0.2050
     39  O         15.3390  -22.7310   -8.8150 O.2     1  UNL1       -0.2050
@<TRIPOS>BOND
     1    21    20    1
     2    20    22    2
     3    20    19    1
     4    22    16    1
     5    19    18    2
     6    15    14    1
     7    16    14    1
     8    16    17    2
     9    12    11    2
    10    18    17    1
    11    14    11    1
    12    11     8    1
    13    11    13    2
    14     7     8    2
    15     7     6    1
    16     8     9    1
    17     6     5    2
    18     9    10    2
    19     5    10    1
    20     5     1    1
    21     4     1    1
    22     1     2   am
    23     2    23    1
    24     2     3    2
    25    25    24    1
    26    25    26    1
    27    23    24    1
    28    39    37    2
    29    38    37    2
    30    26    37    1
    31    26    27    1
    32    37    36    1
    33    27    28    2
    34    27    29    1
    35    36    29    2
    36    36    35    1
    37    28    30    1
    38    29    32    1
    39    35    34    2
    40    30    31    2
    41    32    31    1
    42    32    33    2
    43    34    33    1
