@<TRIPOS>MOLECULE
39045_out_ligand_01.pdbqt
 33 37 0 0 0
SMALL
GASTEIGER

@<TRIPOS>ATOM
      1  C         21.9970  -22.9370  -10.7270 C.2     1  UNL1        0.0320
      2  C         22.2220  -23.6710   -9.5570 C.2     1  UNL1        0.0170
      3  C         21.1640  -23.9400   -8.6850 C.2     1  UNL1        0.0100
      4  C         19.8700  -23.4750   -8.9650 C.2     1  UNL1       -0.0300
      5  C         19.6540  -22.7250  -10.1280 C.2     1  UNL1        0.0100
      6  C         20.7100  -22.4560  -11.0020 C.2     1  UNL1        0.0170
      7  C         23.0890  -22.6210  -11.6910 C.2     1  UNL1        0.2510
      8  O         22.8540  -21.9730  -12.7040 O.2     1  UNL1       -0.2680
      9  N         24.3380  -23.1200  -11.3890 N.am    1  UNL1       -0.3530
     10  H         24.4080  -23.8660  -10.7090 H       1  UNL1        0.1630
     11  C         25.4260  -22.9940  -12.3390 C.3     1  UNL1        0.1630
     12  C         25.8960  -21.5610  -12.4840 C.2     1  UNL1       -0.0130
     13  C         26.2330  -20.8620  -11.3020 C.2     1  UNL1        0.0110
     14  C         26.7880  -19.5840  -11.3390 C.2     1  UNL1        0.0010
     15  C         27.0150  -18.9660  -12.5600 C.2     1  UNL1        0.0020
     16  C         26.6490  -19.6100  -13.7420 C.2     1  UNL1        0.0300
     17  C         26.0530  -20.8880  -13.7180 C.2     1  UNL1        0.0470
     18  N         25.6000  -21.4190  -14.9600 N.pl3   1  UNL1       -0.3150
     19  C         26.1940  -22.4270  -15.6910 C.2     1  UNL1        0.1170
     20  C         25.4270  -22.5850  -16.8200 C.2     1  UNL1        0.1350
     21  N         24.4020  -21.6860  -16.8360 N.2     1  UNL1       -0.2540
     22  C         24.5440  -20.9860  -15.7320 C.2     1  UNL1        0.2140
     23  C         18.7270  -23.7560   -8.0100 C.3     1  UNL1        0.3110
     24  N         17.8800  -22.5790   -7.7380 N.3     1  UNL1        0.0970
     25  C         16.4620  -22.8950   -8.0420 C.3     1  UNL1        0.2770
     26  C         15.4130  -22.4980   -6.9830 C.3     1  UNL1        0.0690
     27  C         15.8770  -22.9570   -5.6280 C.2     1  UNL1       -0.0490
     28  C         15.0280  -23.5370   -4.6850 C.2     1  UNL1        0.0070
     29  C         17.2360  -22.7560   -5.3300 C.2     1  UNL1       -0.0240
     30  C         15.5410  -23.9320   -3.4490 C.2     1  UNL1        0.0010
     31  C         16.8930  -23.7400   -3.1530 C.2     1  UNL1        0.0010
     32  C         17.7400  -23.1460   -4.0890 C.2     1  UNL1        0.0090
     33  C         18.0750  -22.0580   -6.3710 C.3     1  UNL1        0.3110
@<TRIPOS>BOND
     1    21    20    1
     2    21    22    2
     3    20    19    2
     4    22    18    1
     5    19    18    1
     6    18    17    1
     7    16    17    1
     8    16    15    2
     9    17    12    2
    10     8     7    2
    11    15    14    1
    12    12    11    1
    13    12    13    1
    14    11     9    1
    15     7     9   am
    16     7     1    1
    17     9    10    1
    18    14    13    2
    19     6     1    2
    20     6     5    1
    21     1     2    1
    22     5     4    2
    23     2     3    2
    24     4     3    1
    25     4    23    1
    26    25    24    1
    27    25    26    1
    28    23    24    1
    29    24    33    1
    30    26    27    1
    31    33    29    1
    32    27    29    2
    33    27    28    1
    34    29    32    1
    35    28    30    2
    36    32    31    2
    37    30    31    1
