@<TRIPOS>MOLECULE
39053_out_ligand_01.pdbqt
 40 43 0 0 0
SMALL
GASTEIGER

@<TRIPOS>ATOM
      1  C         21.1260  -21.7230   -7.4080 C.2     1  UNL1        0.2560
      2  O         22.0420  -20.9870   -7.0590 O.2     1  UNL1       -0.2670
      3  N         21.0970  -22.5550   -8.5120 N.am    1  UNL1       -0.3230
      4  H         20.3160  -23.1950   -8.5830 H       1  UNL1        0.1690
      5  C         19.9120  -21.7850   -6.5490 C.2     1  UNL1        0.0330
      6  C         19.0200  -22.8450   -6.7280 C.2     1  UNL1        0.0420
      7  C         17.8700  -22.9470   -5.9280 C.2     1  UNL1        0.0860
      8  C         17.6020  -21.9830   -4.9360 C.2     1  UNL1       -0.0390
      9  C         18.5150  -20.9250   -4.7690 C.2     1  UNL1        0.0090
     10  C         16.3800  -22.0080   -4.0590 C.3     1  UNL1        0.0500
     11  C         19.6640  -20.8310   -5.5600 C.2     1  UNL1        0.0170
     12  S         16.7760  -24.3300   -6.2430 S.O2    1  UNL1        0.2630
     13  O         17.5860  -25.4620   -6.6430 O.2     1  UNL1       -0.2000
     14  O         15.8630  -24.4470   -5.1260 O.2     1  UNL1       -0.2000
     15  N         15.9180  -23.8450   -7.6110 N.pl3   1  UNL1       -0.2810
     16  H         15.1510  -24.4740   -7.8360 H       1  UNL1        0.1790
     17  C         16.5990  -23.2070   -8.6850 C.2     1  UNL1        0.0420
     18  C         17.6800  -23.8110   -9.3220 C.2     1  UNL1        0.0300
     19  C         18.2970  -23.1760  -10.4040 C.2     1  UNL1        0.0090
     20  C         17.8520  -21.9230  -10.8420 C.2     1  UNL1       -0.0620
     21  C         18.4900  -21.2630  -12.0290 C.3     1  UNL1        0.0480
     22  C         16.7660  -21.3240  -10.1950 C.2     1  UNL1        0.0090
     23  C         16.1460  -21.9590   -9.1170 C.2     1  UNL1        0.0300
     24  C         22.0890  -22.6910   -9.5050 C.2     1  UNL1        0.0350
     25  C         23.3730  -23.1850   -9.2600 C.2     1  UNL1        0.0310
     26  C         24.3030  -23.2970  -10.3000 C.2     1  UNL1        0.0270
     27  C         23.9420  -22.9220  -11.5940 C.2     1  UNL1        0.0750
     28  C         22.6710  -22.4070  -11.8520 C.2     1  UNL1        0.0270
     29  C         21.7480  -22.2960  -10.8070 C.2     1  UNL1        0.0310
     30  S         25.1170  -23.0440  -12.9200 S.O2    1  UNL1        0.2480
     31  O         26.3090  -22.3490  -12.4710 O.2     1  UNL1       -0.2050
     32  O         25.2060  -24.4190  -13.3620 O.2     1  UNL1       -0.2050
     33  N         24.4660  -22.0980  -14.1200 N.pl3   1  UNL1       -0.1480
     34  H         24.4440  -21.1110  -13.8920 H       1  UNL1        0.1490
     35  C         24.8860  -22.3450  -15.4220 C.cat   1  UNL1        0.2150
     36  N         24.0180  -22.8530  -16.2970 N.2     1  UNL1       -0.2300
     37  C         24.4470  -22.9180  -17.5710 C.2     1  UNL1        0.1210
     38  C         25.6760  -22.4570  -17.9790 C.2     1  UNL1        0.0390
     39  C         26.4600  -21.9030  -16.9920 C.2     1  UNL1        0.1210
     40  N         26.0800  -21.8120  -15.7040 N.2     1  UNL1       -0.2300
@<TRIPOS>BOND
     1    38    37    2
     2    38    39    1
     3    37    36    1
     4    39    40    2
     5    36    35    2
     6    40    35    1
     7    35    33    1
     8    33    34    1
     9    33    30    1
    10    32    30    2
    11    30    31    2
    12    30    27    1
    13    21    20    1
    14    28    27    2
    15    28    29    1
    16    27    26    1
    17    20    19    2
    18    20    22    1
    19    29    24    2
    20    19    18    1
    21    26    25    2
    22    22    23    2
    23    24    25    1
    24    24     3    1
    25    18    17    2
    26    23    17    1
    27    17    15    1
    28     4     3    1
    29     3     1   am
    30    16    15    1
    31    15    12    1
    32     1     2    2
    33     1     5    1
    34     6     5    2
    35     6     7    1
    36    13    12    2
    37     5    11    1
    38    12     7    1
    39    12    14    2
    40     7     8    2
    41    11     9    2
    42     8     9    1
    43     8    10    1
