@<TRIPOS>MOLECULE
39084_out_ligand_01.pdbqt
 39 42 0 0 0
SMALL
GASTEIGER

@<TRIPOS>ATOM
      1  N         21.8930  -22.2530  -11.2820 N.am    1  UNL1       -0.3200
      2  C         20.8970  -21.5120  -11.8850 C.2     1  UNL1        0.2560
      3  O         21.0350  -20.7610  -12.8440 O.2     1  UNL1       -0.2670
      4  H         21.6400  -22.9250  -10.5670 H       1  UNL1        0.1690
      5  C         19.5280  -21.6620  -11.3030 C.2     1  UNL1        0.0330
      6  C         18.3830  -21.1760  -11.9390 C.2     1  UNL1        0.0170
      7  C         17.1210  -21.3920  -11.3750 C.2     1  UNL1        0.0090
      8  C         16.9690  -22.0930  -10.1650 C.2     1  UNL1       -0.0390
      9  C         15.5750  -22.3440   -9.6670 C.3     1  UNL1        0.0500
     10  C         18.1280  -22.5860   -9.5340 C.2     1  UNL1        0.0860
     11  C         19.3940  -22.3770  -10.1070 C.2     1  UNL1        0.0420
     12  S         18.0610  -23.5420   -8.0230 S.O2    1  UNL1        0.2630
     13  O         16.9840  -24.5020   -8.1480 O.2     1  UNL1       -0.2000
     14  O         19.3990  -23.9910   -7.7030 O.2     1  UNL1       -0.2000
     15  N         17.5670  -22.4260   -6.8700 N.pl3   1  UNL1       -0.2800
     16  H         18.0390  -21.5290   -6.9620 H       1  UNL1        0.1790
     17  C         17.0120  -22.7980   -5.6080 C.2     1  UNL1        0.0480
     18  C         17.8030  -23.3840   -4.6120 C.2     1  UNL1        0.0300
     19  C         17.2470  -23.7590   -3.3870 C.2     1  UNL1        0.0020
     20  C         15.8900  -23.5730   -3.1530 C.2     1  UNL1        0.0010
     21  C         15.0830  -23.0240   -4.1510 C.2     1  UNL1        0.0090
     22  C         15.6280  -22.6430   -5.3900 C.2     1  UNL1       -0.0350
     23  C         14.7060  -22.0790   -6.4370 C.3     1  UNL1        0.0500
     24  C         23.2810  -22.2340  -11.5550 C.2     1  UNL1        0.0700
     25  C         23.8500  -22.7820  -12.7050 C.2     1  UNL1        0.0570
     26  C         25.2290  -22.6750  -12.9100 C.2     1  UNL1        0.0770
     27  C         26.0480  -22.0370  -11.9780 C.2     1  UNL1        0.0280
     28  C         25.4850  -21.4990  -10.8180 C.2     1  UNL1        0.0400
     29  C         24.1060  -21.5900  -10.6010 C.2     1  UNL1        0.0950
     30  S         25.9400  -23.3200  -14.4040 S.O2    1  UNL1        0.2430
     31  O         26.0080  -24.7570  -14.2670 O.2     1  UNL1       -0.2060
     32  O         27.1210  -22.5360  -14.7100 O.2     1  UNL1       -0.2060
     33  N         24.7800  -22.9380  -15.5800 N.3     1  UNL1       -0.2060
     34  C         24.9010  -21.6230  -16.2630 C.3     1  UNL1        0.1070
     35  C         24.9400  -21.9440  -17.7500 C.3     1  UNL1        0.0170
     36  C         24.1130  -23.2110  -17.8430 C.3     1  UNL1        0.0170
     37  C         24.5660  -23.9830  -16.6120 C.3     1  UNL1        0.1070
     38  O         23.4490  -21.0850   -9.5000 O.2     1  UNL1       -0.3540
     39  C         22.9290  -22.0290   -8.5710 C.3     1  UNL1        0.2100
@<TRIPOS>BOND
     1    36    35    1
     2    36    37    1
     3    35    34    1
     4    37    33    1
     5    34    33    1
     6    33    30    1
     7    32    30    2
     8    30    31    2
     9    30    26    1
    10    26    25    1
    11    26    27    2
    12     3     2    2
    13    25    24    2
    14    27    28    1
    15     6     7    1
    16     6     5    2
    17     2     5    1
    18     2     1   am
    19    24     1    1
    20    24    29    1
    21     7     8    2
    22     5    11    1
    23     1     4    1
    24    28    29    2
    25    29    38    1
    26     8     9    1
    27     8    10    1
    28    11    10    2
    29    10    12    1
    30    38    39    1
    31    13    12    2
    32    12    14    2
    33    12    15    1
    34    16    15    1
    35    15    17    1
    36    23    22    1
    37    17    22    2
    38    17    18    1
    39    22    21    1
    40    18    19    2
    41    21    20    2
    42    19    20    1
