@<TRIPOS>MOLECULE
39102_out_ligand_01.pdbqt
 33 35 0 0 0
SMALL
GASTEIGER

@<TRIPOS>ATOM
      1  C         19.3310  -22.3940  -10.2500 C.2     1  UNL1        0.0390
      2  C         19.0020  -21.2900  -11.0550 C.2     1  UNL1        0.0170
      3  C         19.9360  -20.7750  -11.9470 C.2     1  UNL1        0.0030
      4  C         21.1930  -21.3650  -12.0450 C.2     1  UNL1        0.0250
      5  C         21.5200  -22.4760  -11.2550 C.2     1  UNL1        0.0290
      6  C         20.6010  -23.0010  -10.3320 C.2     1  UNL1       -0.0240
      7  C         20.9330  -24.1960   -9.4770 C.3     1  UNL1        0.0510
      8  C         18.2890  -22.9170   -9.3310 C.2     1  UNL1        0.2520
      9  N         18.7250  -23.1800   -8.0550 N.am    1  UNL1       -0.3530
     10  H         19.6790  -22.9730   -7.7890 H       1  UNL1        0.1630
     11  O         17.1420  -23.0870   -9.7210 O.2     1  UNL1       -0.2680
     12  C         17.8060  -23.5760   -7.0130 C.3     1  UNL1        0.1640
     13  C         18.0060  -22.7390   -5.7740 C.2     1  UNL1       -0.0070
     14  C         18.8290  -21.6020   -5.8510 C.2     1  UNL1        0.0110
     15  C         19.0280  -20.7930   -4.7360 C.2     1  UNL1        0.0010
     16  C         18.4040  -21.1080   -3.5350 C.2     1  UNL1        0.0030
     17  C         17.5710  -22.2280   -3.4480 C.2     1  UNL1        0.0370
     18  C         17.3580  -23.0450   -4.5620 C.2     1  UNL1        0.0760
     19  O         16.5480  -24.1480   -4.5860 O.2     1  UNL1       -0.3510
     20  C         15.1410  -23.9970   -4.4000 C.3     1  UNL1        0.1710
     21  C         14.5890  -22.9000   -5.2970 C.3     1  UNL1        0.0340
     22  N         22.8450  -23.0260  -11.3590 N.pl3   1  UNL1       -0.1810
     23  H         23.1990  -22.9180  -12.3120 H       1  UNL1        0.1460
     24  S         23.9810  -22.2750  -10.3270 S.O2    1  UNL1        0.2450
     25  O         23.2330  -21.3540   -9.4970 O.2     1  UNL1       -0.2060
     26  O         24.8670  -23.2690   -9.7600 O.2     1  UNL1       -0.2060
     27  C         24.9110  -21.3240  -11.5030 C.2     1  UNL1        0.0740
     28  C         25.9530  -20.5080  -11.0560 C.2     1  UNL1        0.0250
     29  C         26.6760  -19.7470  -11.9750 C.2     1  UNL1        0.0080
     30  C         26.3640  -19.8010  -13.3420 C.2     1  UNL1       -0.0620
     31  C         27.1210  -18.9580  -14.3260 C.3     1  UNL1        0.0480
     32  C         25.2990  -20.6040  -13.7730 C.2     1  UNL1        0.0080
     33  C         24.5710  -21.3660  -12.8580 C.2     1  UNL1        0.0250
@<TRIPOS>BOND
     1    31    30    1
     2    32    30    2
     3    32    33    1
     4    30    29    1
     5    33    27    2
     6    23    22    1
     7     4     3    2
     8     4     5    1
     9    29    28    2
    10     3     2    1
    11    27    28    1
    12    27    24    1
    13    22     5    1
    14    22    24    1
    15     5     6    2
    16     2     1    2
    17     6     1    1
    18     6     7    1
    19    24    26    2
    20    24    25    2
    21     1     8    1
    22    11     8    2
    23     8     9   am
    24     9    10    1
    25     9    12    1
    26    12    13    1
    27    14    13    2
    28    14    15    1
    29    13    18    1
    30    21    20    1
    31    15    16    2
    32    19    18    1
    33    19    20    1
    34    18    17    2
    35    16    17    1
