@<TRIPOS>MOLECULE
39109_out_ligand_01.pdbqt
 37 40 0 0 0
SMALL
GASTEIGER

@<TRIPOS>ATOM
      1  O         18.9880  -21.3750   -6.3080 O.2     1  UNL1       -0.2670
      2  C         19.1790  -22.5390   -6.6400 C.2     1  UNL1        0.2560
      3  N         18.4440  -23.6340   -6.2360 N.am    1  UNL1       -0.3220
      4  H         18.8020  -24.5580   -6.4790 H       1  UNL1        0.1690
      5  C         17.2420  -23.6600   -5.4850 C.2     1  UNL1        0.0500
      6  C         17.2350  -23.5930   -4.0860 C.2     1  UNL1        0.0300
      7  C         16.0330  -23.5800   -3.3720 C.2     1  UNL1        0.0020
      8  C         14.8170  -23.6210   -4.0430 C.2     1  UNL1        0.0010
      9  C         14.7980  -23.6910   -5.4350 C.2     1  UNL1        0.0190
     10  C         16.0010  -23.7300   -6.1630 C.2     1  UNL1        0.0580
     11  C         15.9560  -23.8360   -7.6550 C.2     1  UNL1        0.2540
     12  O         15.8230  -24.9290   -8.1990 O.2     1  UNL1       -0.2680
     13  N         16.0140  -22.6530   -8.3590 N.am    1  UNL1       -0.3530
     14  H         15.8550  -21.7800   -7.8730 H       1  UNL1        0.1630
     15  C         15.8380  -22.6400   -9.7930 C.3     1  UNL1        0.1610
     16  C         17.0820  -22.1390  -10.4730 C.2     1  UNL1       -0.0410
     17  C         17.1230  -20.8530  -11.0290 C.2     1  UNL1        0.0090
     18  C         18.2910  -20.3780  -11.6290 C.2     1  UNL1        0.0010
     19  C         19.4290  -21.1810  -11.6710 C.2     1  UNL1        0.0000
     20  C         19.4030  -22.4580  -11.1120 C.2     1  UNL1        0.0010
     21  C         18.2360  -22.9330  -10.5120 C.2     1  UNL1        0.0090
     22  C         20.3370  -22.8410   -7.5360 C.2     1  UNL1        0.0320
     23  C         21.3210  -21.8600   -7.7050 C.2     1  UNL1        0.0200
     24  C         22.4100  -22.0960   -8.5480 C.2     1  UNL1        0.0380
     25  C         22.5280  -23.3030   -9.2400 C.2     1  UNL1        0.0680
     26  C         21.5430  -24.2800   -9.0810 C.2     1  UNL1        0.0380
     27  C         20.4480  -24.0490   -8.2370 C.2     1  UNL1        0.0200
     28  O         23.6340  -23.3970  -10.0360 O.2     1  UNL1       -0.3500
     29  C         23.5720  -22.7820  -11.3240 C.3     1  UNL1        0.1860
     30  C         24.6520  -21.7050  -11.4240 C.3     1  UNL1        0.1060
     31  S         26.2300  -22.3200  -12.1260 S.3     1  UNL1       -0.1280
     32  C         25.6620  -22.9190  -13.7060 C.2     1  UNL1        0.0000
     33  C         25.6960  -24.2800  -14.0200 C.2     1  UNL1        0.0180
     34  C         25.2420  -24.7280  -15.2630 C.2     1  UNL1        0.0010
     35  C         24.7450  -23.8170  -16.1940 C.2     1  UNL1        0.0000
     36  C         24.6970  -22.4590  -15.8820 C.2     1  UNL1        0.0010
     37  C         25.1490  -22.0120  -14.6390 C.2     1  UNL1        0.0180
@<TRIPOS>BOND
     1    35    36    2
     2    35    34    1
     3    36    37    1
     4    34    33    2
     5    37    32    2
     6    33    32    1
     7    32    31    1
     8    31    30    1
     9    19    18    2
    10    19    20    1
    11    18    17    1
    12    30    29    1
    13    29    28    1
    14    20    21    2
    15    17    16    2
    16    21    16    1
    17    16    15    1
    18    28    25    1
    19    15    13    1
    20    25    26    2
    21    25    24    1
    22    26    27    1
    23    24    23    2
    24    13    14    1
    25    13    11   am
    26    27    22    2
    27    12    11    2
    28    23    22    1
    29    11    10    1
    30    22     2    1
    31     2     1    2
    32     2     3   am
    33     4     3    1
    34     3     5    1
    35    10     5    2
    36    10     9    1
    37     5     6    1
    38     9     8    2
    39     6     7    2
    40     8     7    1
