@<TRIPOS>MOLECULE
39101_out_ligand_01.pdbqt
 33 36 0 0 0
SMALL
GASTEIGER

@<TRIPOS>ATOM
      1  C         22.8660  -22.2170  -11.7470 C.2     1  UNL1        0.0970
      2  C         22.3000  -22.8540  -10.6270 C.2     1  UNL1        0.0430
      3  C         20.9240  -22.7680  -10.3920 C.2     1  UNL1        0.0330
      4  C         20.1220  -22.0280  -11.2680 C.2     1  UNL1        0.0190
      5  C         20.6880  -21.4020  -12.3830 C.2     1  UNL1        0.0260
      6  C         22.0620  -21.4970  -12.6340 C.2     1  UNL1        0.0570
      7 CL         22.6450  -20.6830  -14.0370 Cl      1  UNL1       -0.0830
      8  C         20.2730  -23.4130   -9.2200 C.2     1  UNL1        0.2520
      9  O         20.7670  -24.4230   -8.7340 O.2     1  UNL1       -0.2680
     10  N         19.1370  -22.8070   -8.7320 N.am    1  UNL1       -0.3480
     11  H         18.7400  -21.9990   -9.1900 H       1  UNL1        0.1630
     12  C         18.3560  -23.4030   -7.6560 C.3     1  UNL1        0.1180
     13  C         16.9320  -23.6860   -8.1780 C.3     1  UNL1        0.0300
     14  C         15.8640  -23.9250   -7.1040 C.3     1  UNL1        0.0070
     15  C         16.4010  -23.9750   -5.6800 C.3     1  UNL1        0.0390
     16  C         17.3500  -22.8320   -5.4310 C.2     1  UNL1       -0.0500
     17  C         17.3090  -22.1100   -4.2330 C.2     1  UNL1        0.0070
     18  C         18.3310  -22.5450   -6.4030 C.2     1  UNL1       -0.0290
     19  C         18.2400  -21.1020   -3.9910 C.2     1  UNL1        0.0010
     20  C         19.2290  -20.8280   -4.9320 C.2     1  UNL1        0.0010
     21  C         19.2830  -21.5530   -6.1250 C.2     1  UNL1        0.0100
     22  S         24.6150  -22.3800  -12.0000 S.O2    1  UNL1        0.2470
     23  O         25.1870  -22.8800  -10.7720 O.2     1  UNL1       -0.2050
     24  O         25.0750  -21.1390  -12.5940 O.2     1  UNL1       -0.2050
     25  N         24.6900  -23.5370  -13.2500 N.pl3   1  UNL1       -0.1810
     26  H         23.7380  -23.8630  -13.4210 H       1  UNL1        0.1460
     27  C         25.2610  -23.0330  -14.4670 C.2     1  UNL1        0.0220
     28  C         26.5570  -22.5180  -14.4740 C.2     1  UNL1        0.0250
     29  C         27.1210  -22.0700  -15.6710 C.2     1  UNL1        0.0080
     30  C         26.4020  -22.1540  -16.8700 C.2     1  UNL1       -0.0620
     31  C         26.9950  -21.6490  -18.1520 C.3     1  UNL1        0.0480
     32  C         25.1030  -22.6790  -16.8510 C.2     1  UNL1        0.0080
     33  C         24.5390  -23.1280  -15.6550 C.2     1  UNL1        0.0250
@<TRIPOS>BOND
     1    31    30    1
     2    30    32    2
     3    30    29    1
     4    32    33    1
     5    29    28    2
     6    33    27    2
     7    28    27    1
     8    27    25    1
     9     7     6    1
    10    26    25    1
    11    25    22    1
    12     6     5    1
    13     6     1    2
    14    24    22    2
    15     5     4    2
    16    22     1    1
    17    22    23    2
    18     1     2    1
    19     4     3    1
    20     2     3    2
    21     3     8    1
    22     8     9    2
    23     8    10   am
    24    11    10    1
    25    10    12    1
    26    13    12    1
    27    13    14    1
    28    12    18    1
    29    14    15    1
    30    18    21    1
    31    18    16    2
    32    21    20    2
    33    15    16    1
    34    16    17    1
    35    20    19    1
    36    17    19    2
