@<TRIPOS>MOLECULE
39119_out_ligand_01.pdbqt
 37 40 0 0 0
SMALL
GASTEIGER

@<TRIPOS>ATOM
      1  C         19.1710  -22.2700   -9.8350 C.2     1  UNL1        0.0810
      2  C         20.5710  -22.2890   -9.7060 C.2     1  UNL1        0.0420
      3  C         21.3730  -21.6040  -10.6250 C.2     1  UNL1        0.0330
      4  C         20.7760  -20.8710  -11.6530 C.2     1  UNL1        0.0170
      5  C         19.3840  -20.8450  -11.7750 C.2     1  UNL1        0.0090
      6  C         18.5600  -21.5460  -10.8760 C.2     1  UNL1       -0.0390
      7  C         17.0710  -21.4600  -11.0660 C.3     1  UNL1        0.0500
      8  C         22.8510  -21.6490  -10.4490 C.2     1  UNL1        0.2510
      9  O         23.3530  -21.2710   -9.3990 O.2     1  UNL1       -0.2680
     10  N         23.5760  -22.1600  -11.5070 N.am    1  UNL1       -0.3530
     11  H         23.0960  -22.6110  -12.2710 H       1  UNL1        0.1630
     12  C         25.0120  -22.3330  -11.4100 C.3     1  UNL1        0.1630
     13  C         25.7940  -21.1370  -11.9220 C.2     1  UNL1       -0.0130
     14  C         26.4690  -20.3160  -10.9960 C.2     1  UNL1        0.0110
     15  C         27.1200  -19.1480  -11.3960 C.2     1  UNL1        0.0010
     16  C         27.1210  -18.7760  -12.7340 C.2     1  UNL1        0.0020
     17  C         26.4970  -19.5900  -13.6800 C.2     1  UNL1        0.0300
     18  C         25.8550  -20.7780  -13.2890 C.2     1  UNL1        0.0480
     19  N         25.3560  -21.6270  -14.3160 N.pl3   1  UNL1       -0.3090
     20  C         26.0810  -22.6240  -14.9400 C.2     1  UNL1        0.1180
     21  C         25.2880  -23.0880  -15.9590 C.2     1  UNL1        0.1360
     22  N         24.0940  -22.4230  -15.9870 N.2     1  UNL1       -0.2460
     23  C         24.1330  -21.5680  -14.9810 C.2     1  UNL1        0.1060
     24  C         22.9800  -20.7310  -14.5550 C.3     1  UNL1        0.0910
     25  S         18.2200  -23.1730   -8.6120 S.O2    1  UNL1        0.2460
     26  O         19.1270  -23.9990   -7.8490 O.2     1  UNL1       -0.2060
     27  O         17.0680  -23.7360   -9.2840 O.2     1  UNL1       -0.2060
     28  N         17.6370  -21.8810   -7.6600 N.pl3   1  UNL1       -0.1810
     29  H         16.7610  -21.5680   -8.0840 H       1  UNL1        0.1460
     30  C         17.4410  -22.2110   -6.2720 C.2     1  UNL1        0.0290
     31  C         18.2850  -21.7290   -5.2590 C.2     1  UNL1       -0.0400
     32  C         17.9750  -22.0440   -3.9250 C.2     1  UNL1        0.0090
     33  C         19.4670  -20.8330   -5.5170 C.3     1  UNL1        0.0500
     34  C         16.8680  -22.8370   -3.6100 C.2     1  UNL1        0.0070
     35  C         16.0370  -23.3260   -4.6220 C.2     1  UNL1       -0.0600
     36  C         14.8200  -24.1350   -4.2890 C.3     1  UNL1        0.0480
     37  C         16.3230  -22.9920   -5.9500 C.2     1  UNL1        0.0310
@<TRIPOS>BOND
     1    22    21    1
     2    22    23    2
     3    21    20    2
     4    23    24    1
     5    23    19    1
     6    20    19    1
     7    19    18    1
     8    17    18    1
     9    17    16    2
    10    18    13    2
    11    16    15    1
    12    11    10    1
    13    13    12    1
    14    13    14    1
    15     5     4    2
    16     5     6    1
    17     4     3    1
    18    10    12    1
    19    10     8   am
    20    15    14    2
    21     7     6    1
    22     6     1    2
    23     3     8    1
    24     3     2    2
    25     8     9    2
    26     1     2    1
    27     1    25    1
    28    27    25    2
    29    25    26    2
    30    25    28    1
    31    29    28    1
    32    28    30    1
    33    30    37    2
    34    30    31    1
    35    37    35    1
    36    33    31    1
    37    31    32    2
    38    35    36    1
    39    35    34    2
    40    32    34    1
