@<TRIPOS>MOLECULE
39128_out_ligand_01.pdbqt
 36 39 0 0 0
SMALL
GASTEIGER

@<TRIPOS>ATOM
      1  C         21.0850  -22.4640  -10.8110 C.2     1  UNL1        0.0340
      2  C         20.0520  -21.6230  -11.2360 C.2     1  UNL1        0.0310
      3  C         18.7540  -21.7840  -10.7380 C.2     1  UNL1        0.0270
      4  C         18.4910  -22.7920   -9.8080 C.2     1  UNL1        0.0800
      5  C         19.5090  -23.6470   -9.3820 C.2     1  UNL1        0.0270
      6  C         20.8030  -23.4750   -9.8790 C.2     1  UNL1        0.0310
      7  N         22.4160  -22.3670  -11.2640 N.am    1  UNL1       -0.3250
      8  C         23.4860  -21.7400  -10.6400 C.2     1  UNL1        0.2510
      9  O         23.4430  -21.1780   -9.5520 O.2     1  UNL1       -0.2700
     10  H         22.5970  -22.7440  -12.1880 H       1  UNL1        0.1690
     11  C         24.7910  -21.8280  -11.4700 C.3     1  UNL1        0.2170
     12  C         25.8500  -20.9010  -10.8750 C.3     1  UNL1        0.0500
     13  O         24.5960  -21.4170  -12.8310 O.2     1  UNL1       -0.3360
     14  C         24.8780  -22.4090  -13.7360 C.2     1  UNL1        0.0760
     15  C         25.0700  -23.6940  -13.2180 C.2     1  UNL1        0.0370
     16  C         25.4090  -24.7440  -14.0660 C.2     1  UNL1        0.0030
     17  C         25.5330  -24.5120  -15.4340 C.2     1  UNL1        0.0010
     18  C         25.2880  -23.2390  -15.9570 C.2     1  UNL1        0.0100
     19  C         24.9180  -22.1690  -15.1220 C.2     1  UNL1       -0.0250
     20  C         24.6050  -20.8020  -15.6900 C.3     1  UNL1        0.0370
     21  C         25.1460  -20.5260  -17.0900 C.3     1  UNL1        0.0100
     22  S         16.8480  -23.0080   -9.1720 S.O2    1  UNL1        0.2630
     23  O         16.3440  -21.7290   -8.7230 O.2     1  UNL1       -0.2000
     24  O         16.1180  -23.7980  -10.1450 O.2     1  UNL1       -0.2000
     25  N         17.0950  -24.0240   -7.8460 N.pl3   1  UNL1       -0.2800
     26  H         16.8610  -24.9900   -8.0690 H       1  UNL1        0.1790
     27  C         16.7320  -23.5420   -6.5480 C.2     1  UNL1        0.0530
     28  C         15.5600  -24.0490   -5.9780 C.2     1  UNL1        0.0310
     29  C         15.1510  -23.6190   -4.7190 C.2     1  UNL1        0.0030
     30  C         15.9130  -22.6810   -4.0280 C.2     1  UNL1        0.0120
     31  C         17.1010  -22.1650   -4.5770 C.2     1  UNL1       -0.0240
     32  C         17.8600  -21.2230   -3.8630 C.2     1  UNL1        0.0120
     33  C         17.5360  -22.6010   -5.8530 C.2     1  UNL1        0.0010
     34  C         19.0470  -20.7130   -4.3850 C.2     1  UNL1        0.0010
     35  C         19.4950  -21.1420   -5.6260 C.2     1  UNL1        0.0010
     36  C         18.7490  -22.0730   -6.3530 C.2     1  UNL1        0.0140
@<TRIPOS>BOND
     1    21    20    1
     2    18    17    2
     3    18    19    1
     4    20    19    1
     5    17    16    1
     6    19    14    2
     7    16    15    2
     8    14    15    1
     9    14    13    1
    10    13    11    1
    11    10     7    1
    12    11    12    1
    13    11     8    1
    14     7     1    1
    15     7     8   am
    16     2     1    2
    17     2     3    1
    18     1     6    1
    19     3     4    2
    20     8     9    2
    21    24    22    2
    22     6     5    2
    23     4     5    1
    24     4    22    1
    25    22    23    2
    26    22    25    1
    27    26    25    1
    28    25    27    1
    29    27    28    2
    30    27    33    1
    31    36    33    1
    32    36    35    2
    33    28    29    1
    34    33    31    2
    35    35    34    1
    36    29    30    2
    37    31    30    1
    38    31    32    1
    39    34    32    2
