@<TRIPOS>MOLECULE
39133_out_ligand_01.pdbqt
 35 38 0 0 0
SMALL
GASTEIGER

@<TRIPOS>ATOM
      1  O         18.6210  -24.9250   -6.9630 O.2     1  UNL1       -0.2670
      2  C         18.4540  -23.7180   -6.8520 C.2     1  UNL1        0.2560
      3  N         19.3430  -22.7140   -7.1830 N.am    1  UNL1       -0.3230
      4  H         19.0980  -21.7790   -6.8840 H       1  UNL1        0.1690
      5  C         20.5750  -22.8500   -7.8540 C.2     1  UNL1        0.0350
      6  C         20.9160  -23.9580   -8.6350 C.2     1  UNL1        0.0310
      7  C         22.1510  -24.0130   -9.2900 C.2     1  UNL1        0.0270
      8  C         23.0550  -22.9570   -9.1540 C.2     1  UNL1        0.0800
      9  C         22.7240  -21.8410   -8.3860 C.2     1  UNL1        0.0270
     10  C         21.4880  -21.7940   -7.7350 C.2     1  UNL1        0.0310
     11  S         24.5910  -23.0020  -10.0430 S.O2    1  UNL1        0.2640
     12  O         25.4710  -23.9850   -9.4430 O.2     1  UNL1       -0.2000
     13  O         25.0310  -21.6270  -10.1820 O.2     1  UNL1       -0.2000
     14  N         24.1720  -23.4860  -11.5860 N.pl3   1  UNL1       -0.2640
     15  H         23.6470  -24.3540  -11.5960 H       1  UNL1        0.1800
     16  C         23.9100  -22.5090  -12.5630 C.2     1  UNL1        0.1360
     17  C         22.6530  -21.9270  -12.6290 C.2     1  UNL1        0.0510
     18  C         22.3920  -21.0310  -13.6590 C.2     1  UNL1        0.0050
     19  C         23.3860  -20.7640  -14.5940 C.2     1  UNL1        0.0190
     20  C         24.5980  -21.4180  -14.4600 C.2     1  UNL1        0.1190
     21  N         24.8750  -22.2920  -13.4690 N.2     1  UNL1       -0.2430
     22  C         17.2130  -23.2250   -6.1950 C.2     1  UNL1        0.0380
     23  C         17.3420  -22.8580   -4.8450 C.2     1  UNL1        0.0170
     24  C         16.2530  -22.3360   -4.1480 C.2     1  UNL1        0.0010
     25  C         15.0310  -22.1830   -4.7930 C.2     1  UNL1        0.0010
     26  C         14.8900  -22.5660   -6.1300 C.2     1  UNL1        0.0080
     27  C         15.9730  -23.1050   -6.8530 C.2     1  UNL1       -0.0420
     28  C         15.7150  -23.5890   -8.2640 C.3     1  UNL1        0.0440
     29  C         15.4910  -22.4540   -9.2740 C.3     1  UNL1        0.0430
     30  C         16.7150  -22.1330  -10.0970 C.2     1  UNL1       -0.0580
     31  C         16.8400  -20.8900  -10.7300 C.2     1  UNL1        0.0070
     32  C         17.9660  -20.5990  -11.5030 C.2     1  UNL1        0.0010
     33  C         18.9700  -21.5510  -11.6570 C.2     1  UNL1        0.0000
     34  C         18.8520  -22.7940  -11.0380 C.2     1  UNL1        0.0010
     35  C         17.7310  -23.0830  -10.2610 C.2     1  UNL1        0.0070
@<TRIPOS>BOND
     1    19    20    2
     2    19    18    1
     3    20    21    1
     4    18    17    2
     5    21    16    2
     6    17    16    1
     7    16    14    1
     8    33    32    2
     9    33    34    1
    10    15    14    1
    11    14    11    1
    12    32    31    1
    13    34    35    2
    14    31    30    2
    15    35    30    1
    16    13    11    2
    17    30    29    1
    18    11    12    2
    19    11     8    1
    20     7     8    2
    21     7     6    1
    22    29    28    1
    23     8     9    1
    24     6     5    2
    25     9    10    2
    26    28    27    1
    27     5    10    1
    28     5     3    1
    29     3     4    1
    30     3     2   am
    31     1     2    2
    32    27    22    2
    33    27    26    1
    34     2    22    1
    35    22    23    1
    36    26    25    2
    37    23    24    2
    38    25    24    1
