@<TRIPOS>MOLECULE
39136_out_ligand_01.pdbqt
 34 36 0 0 0
SMALL
GASTEIGER

@<TRIPOS>ATOM
      1  C         19.8830  -23.3040   -9.5060 C.2     1  UNL1        0.0340
      2  C         19.7690  -22.4780  -10.6270 C.2     1  UNL1        0.0310
      3  C         20.8970  -22.1580  -11.3890 C.2     1  UNL1        0.0270
      4  C         22.1500  -22.6440  -11.0120 C.2     1  UNL1        0.0750
      5  C         22.2760  -23.4860   -9.9070 C.2     1  UNL1        0.0270
      6  C         21.1420  -23.8160   -9.1590 C.2     1  UNL1        0.0310
      7  N         18.7940  -23.6780   -8.6990 N.am    1  UNL1       -0.3250
      8  C         17.5010  -23.1850   -8.7380 C.2     1  UNL1        0.2510
      9  O         17.0790  -22.3000   -9.4760 O.2     1  UNL1       -0.2700
     10  H         18.9850  -24.3060   -7.9240 H       1  UNL1        0.1690
     11  C         16.5670  -23.8910   -7.7390 C.3     1  UNL1        0.2170
     12  C         17.4000  -24.8520   -6.8940 C.3     1  UNL1        0.0500
     13  O         15.9520  -22.9690   -6.8320 O.2     1  UNL1       -0.3360
     14  C         16.7560  -22.4490   -5.8510 C.2     1  UNL1        0.0760
     15  C         16.4050  -22.7650   -4.5290 C.2     1  UNL1       -0.0290
     16  C         17.2020  -22.2900   -3.4790 C.2     1  UNL1        0.0100
     17  C         15.1900  -23.6020   -4.2300 C.3     1  UNL1        0.0510
     18  C         18.3360  -21.5190   -3.7410 C.2     1  UNL1        0.0070
     19  C         18.6950  -21.2120   -5.0570 C.2     1  UNL1       -0.0590
     20  C         19.9400  -20.4180   -5.3310 C.3     1  UNL1        0.0480
     21  C         17.9070  -21.6950   -6.1110 C.2     1  UNL1        0.0440
     22  S         23.5850  -22.2640  -11.9920 S.O2    1  UNL1        0.2480
     23  O         24.1840  -23.4970  -12.4620 O.2     1  UNL1       -0.2050
     24  O         24.3760  -21.3300  -11.2130 O.2     1  UNL1       -0.2050
     25  N         22.9780  -21.3850  -13.2640 N.pl3   1  UNL1       -0.1480
     26  H         22.3640  -20.6320  -12.9780 H       1  UNL1        0.1490
     27  C         23.8660  -21.0120  -14.2670 C.cat   1  UNL1        0.2160
     28  N         23.9170  -21.8830  -15.2770 N.2     1  UNL1       -0.2230
     29  C         24.8520  -21.6390  -16.2180 C.2     1  UNL1        0.0360
     30  C         24.9000  -22.5600  -17.4000 C.3     1  UNL1        0.0700
     31  C         25.7320  -20.5770  -16.1270 C.2     1  UNL1        0.0530
     32  C         25.6240  -19.7740  -15.0060 C.2     1  UNL1        0.0360
     33  C         26.5410  -18.6030  -14.8190 C.3     1  UNL1        0.0700
     34  N         24.7010  -19.9970  -14.0500 N.2     1  UNL1       -0.2230
@<TRIPOS>BOND
     1    30    29    1
     2    29    31    2
     3    29    28    1
     4    31    32    1
     5    28    27    2
     6    32    33    1
     7    32    34    2
     8    27    34    1
     9    27    25    1
    10    25    26    1
    11    25    22    1
    12    23    22    2
    13    22    24    2
    14    22     4    1
    15     3     4    2
    16     3     2    1
    17     4     5    1
    18     2     1    2
    19     5     6    2
    20     1     6    1
    21     1     7    1
    22     9     8    2
    23     8     7   am
    24     8    11    1
    25     7    10    1
    26    11    12    1
    27    11    13    1
    28    13    14    1
    29    21    14    2
    30    21    19    1
    31    14    15    1
    32    20    19    1
    33    19    18    2
    34    15    17    1
    35    15    16    2
    36    18    16    1
