@<TRIPOS>MOLECULE
39148_out_ligand_01.pdbqt
 33 35 0 0 0
SMALL
GASTEIGER

@<TRIPOS>ATOM
      1  C         21.3250  -21.6460  -10.8720 C.2     1  UNL1        0.0330
      2  C         20.7690  -20.8480  -11.8770 C.2     1  UNL1        0.0170
      3  C         19.3810  -20.7340  -11.9890 C.2     1  UNL1        0.0090
      4  C         18.5200  -21.4210  -11.1140 C.2     1  UNL1       -0.0390
      5  C         17.0370  -21.2420  -11.2870 C.3     1  UNL1        0.0500
      6  C         19.0940  -22.2230  -10.1070 C.2     1  UNL1        0.0810
      7  C         20.4880  -22.3360   -9.9910 C.2     1  UNL1        0.0420
      8  C         22.7950  -21.8110  -10.7290 C.2     1  UNL1        0.2520
      9  N         23.4700  -22.2320  -11.8520 N.am    1  UNL1       -0.3490
     10  H         22.9970  -22.2050  -12.7460 H       1  UNL1        0.1630
     11  O         23.3360  -21.5490   -9.6610 O.2     1  UNL1       -0.2680
     12  C         24.9230  -22.3180  -11.8800 C.3     1  UNL1        0.1140
     13  C         25.3970  -23.6460  -12.4770 C.3     1  UNL1        0.0370
     14  C         25.4790  -21.1110  -12.6170 C.2     1  UNL1       -0.0360
     15  C         24.9090  -20.7220  -13.8380 C.2     1  UNL1        0.0100
     16  C         25.4220  -19.6380  -14.5540 C.2     1  UNL1        0.0070
     17  C         26.5290  -18.9300  -14.0750 C.2     1  UNL1       -0.0620
     18  C         27.0550  -17.7470  -14.8310 C.3     1  UNL1        0.0480
     19  C         27.1010  -19.3110  -12.8560 C.2     1  UNL1        0.0070
     20  C         26.5890  -20.3970  -12.1400 C.2     1  UNL1        0.0100
     21  S         18.0930  -23.1170   -8.9230 S.O2    1  UNL1        0.2460
     22  O         18.9750  -23.9310   -8.1160 O.2     1  UNL1       -0.2060
     23  O         16.9720  -23.6940   -9.6350 O.2     1  UNL1       -0.2060
     24  N         17.4660  -21.8200   -8.0060 N.pl3   1  UNL1       -0.1810
     25  H         16.6580  -21.4570   -8.5160 H       1  UNL1        0.1460
     26  C         17.0960  -22.1850   -6.6690 C.2     1  UNL1        0.0230
     27  C         15.9610  -22.9680   -6.4470 C.2     1  UNL1        0.0310
     28  C         15.6310  -23.3730   -5.1480 C.2     1  UNL1       -0.0600
     29  C         14.4000  -24.1950   -4.9030 C.3     1  UNL1        0.0480
     30  C         16.4420  -22.9690   -4.0790 C.2     1  UNL1        0.0130
     31  C         17.5880  -22.1910   -4.2970 C.2     1  UNL1       -0.0600
     32  C         18.4840  -21.8190   -3.1530 C.3     1  UNL1        0.0480
     33  C         17.9200  -21.8200   -5.6060 C.2     1  UNL1        0.0310
@<TRIPOS>BOND
     1    18    17    1
     2    16    17    2
     3    16    15    1
     4    17    19    1
     5    15    14    2
     6    19    20    2
     7    10     9    1
     8    14    20    1
     9    14    12    1
    10    13    12    1
    11     3     2    1
    12     3     4    2
    13    12     9    1
    14     2     1    2
    15     9     8   am
    16     5     4    1
    17     4     6    1
    18     1     8    1
    19     1     7    1
    20     8    11    2
    21     6     7    2
    22     6    21    1
    23    23    21    2
    24    21    22    2
    25    21    24    1
    26    25    24    1
    27    24    26    1
    28    26    27    2
    29    26    33    1
    30    27    28    1
    31    33    31    2
    32    28    29    1
    33    28    30    2
    34    31    30    1
    35    31    32    1
