@<TRIPOS>MOLECULE
39143_out_ligand_01.pdbqt
 33 36 0 0 0
SMALL
GASTEIGER

@<TRIPOS>ATOM
      1  C         22.8870  -22.1570  -11.7190 C.2     1  UNL1        0.0810
      2  C         22.2700  -22.7580  -10.6120 C.2     1  UNL1        0.0420
      3  C         20.8840  -22.6740  -10.4490 C.2     1  UNL1        0.0330
      4  C         20.1130  -22.0020  -11.4000 C.2     1  UNL1        0.0170
      5  C         20.7300  -21.4010  -12.5010 C.2     1  UNL1        0.0090
      6  C         22.1210  -21.4710  -12.6830 C.2     1  UNL1       -0.0390
      7  C         22.7180  -20.7900  -13.8840 C.3     1  UNL1        0.0500
      8  C         20.2710  -23.3440   -9.2730 C.2     1  UNL1        0.2520
      9  O         20.8040  -24.3390   -8.7970 O.2     1  UNL1       -0.2680
     10  N         19.1230  -22.7730   -8.7750 N.am    1  UNL1       -0.3480
     11  H         18.7090  -21.9750   -9.2330 H       1  UNL1        0.1630
     12  C         18.3670  -23.3910   -7.6930 C.3     1  UNL1        0.1180
     13  C         16.9480  -23.7150   -8.2050 C.3     1  UNL1        0.0300
     14  C         15.8770  -23.9180   -7.1270 C.3     1  UNL1        0.0070
     15  C         16.4230  -23.9800   -5.7060 C.3     1  UNL1        0.0390
     16  C         17.3680  -22.8330   -5.4590 C.2     1  UNL1       -0.0500
     17  C         17.3320  -22.1160   -4.2580 C.2     1  UNL1        0.0070
     18  C         18.3390  -22.5360   -6.4370 C.2     1  UNL1       -0.0290
     19  C         18.2580  -21.1040   -4.0190 C.2     1  UNL1        0.0010
     20  C         19.2390  -20.8210   -4.9660 C.2     1  UNL1        0.0010
     21  C         19.2890  -21.5400   -6.1610 C.2     1  UNL1        0.0100
     22  S         24.6690  -22.2840  -11.8420 S.O2    1  UNL1        0.2460
     23  O         25.1700  -22.7650  -10.5710 O.2     1  UNL1       -0.2060
     24  O         25.1630  -21.0620  -12.4360 O.2     1  UNL1       -0.2060
     25  N         24.8120  -23.5860  -12.9380 N.pl3   1  UNL1       -0.1810
     26  H         25.4340  -24.2740  -12.5070 H       1  UNL1        0.1460
     27  C         25.3040  -23.2010  -14.2280 C.2     1  UNL1        0.0220
     28  C         26.6230  -22.7730  -14.3630 C.2     1  UNL1        0.0250
     29  C         27.1210  -22.4350  -15.6230 C.2     1  UNL1        0.0080
     30  C         26.3100  -22.5470  -16.7600 C.2     1  UNL1       -0.0620
     31  C         26.8420  -22.1580  -18.1070 C.3     1  UNL1        0.0480
     32  C         24.9880  -22.9850  -16.6150 C.2     1  UNL1        0.0080
     33  C         24.4890  -23.3230  -15.3540 C.2     1  UNL1        0.0250
@<TRIPOS>BOND
     1    31    30    1
     2    30    32    2
     3    30    29    1
     4    32    33    1
     5    29    28    2
     6    33    27    2
     7    28    27    1
     8    27    25    1
     9     7     6    1
    10    25    26    1
    11    25    22    1
    12     6     5    1
    13     6     1    2
    14     5     4    2
    15    24    22    2
    16    22     1    1
    17    22    23    2
    18     1     2    1
    19     4     3    1
    20     2     3    2
    21     3     8    1
    22     8     9    2
    23     8    10   am
    24    11    10    1
    25    10    12    1
    26    13    12    1
    27    13    14    1
    28    12    18    1
    29    14    15    1
    30    18    21    1
    31    18    16    2
    32    21    20    2
    33    15    16    1
    34    16    17    1
    35    20    19    1
    36    17    19    2
