@<TRIPOS>MOLECULE
39159_out_ligand_01.pdbqt
 37 40 0 0 0
SMALL
GASTEIGER

@<TRIPOS>ATOM
      1  C         16.9800  -20.9990  -11.2140 C.3     1  UNL1        0.0500
      2  C         18.3680  -21.5260  -10.9960 C.2     1  UNL1       -0.0390
      3  C         19.3930  -21.0600  -11.8390 C.2     1  UNL1        0.0090
      4  C         20.7040  -21.5270  -11.7080 C.2     1  UNL1        0.0170
      5  C         21.0230  -22.4840  -10.7410 C.2     1  UNL1        0.0330
      6  C         20.0210  -22.9490   -9.8860 C.2     1  UNL1        0.0420
      7  C         18.7000  -22.4780  -10.0130 C.2     1  UNL1        0.0860
      8  C         22.4320  -22.9670  -10.6570 C.2     1  UNL1        0.2510
      9  O         22.8110  -23.5760   -9.6630 O.2     1  UNL1       -0.2680
     10  N         23.2550  -22.6500  -11.7130 N.am    1  UNL1       -0.3530
     11  H         22.9430  -22.0120  -12.4300 H       1  UNL1        0.1630
     12  C         24.6680  -22.9800  -11.7190 C.3     1  UNL1        0.1630
     13  C         25.4900  -21.8110  -12.2160 C.2     1  UNL1       -0.0130
     14  C         25.9670  -20.8940  -11.2530 C.2     1  UNL1        0.0110
     15  C         26.5880  -19.7020  -11.6260 C.2     1  UNL1        0.0010
     16  C         26.7490  -19.3950  -12.9720 C.2     1  UNL1        0.0020
     17  C         26.3180  -20.2970  -13.9460 C.2     1  UNL1        0.0300
     18  C         25.7240  -21.5180  -13.5760 C.2     1  UNL1        0.0480
     19  N         25.3850  -22.4140  -14.6210 N.pl3   1  UNL1       -0.3090
     20  C         24.4910  -22.1440  -15.6350 C.2     1  UNL1        0.1180
     21  C         24.4370  -23.2800  -16.4040 C.2     1  UNL1        0.1360
     22  N         25.3190  -24.2140  -15.9440 N.2     1  UNL1       -0.2460
     23  C         25.9280  -23.6610  -14.9090 C.2     1  UNL1        0.1060
     24  C         27.1190  -24.2500  -14.2370 C.3     1  UNL1        0.0910
     25  S         17.4870  -23.1820   -8.8980 S.O2    1  UNL1        0.2630
     26  O         16.3300  -23.5870   -9.6680 O.2     1  UNL1       -0.2000
     27  O         18.1730  -24.1420   -8.0570 O.2     1  UNL1       -0.2000
     28  N         17.0060  -21.8630   -7.9680 N.pl3   1  UNL1       -0.2800
     29  H         17.3580  -20.9720   -8.3070 H       1  UNL1        0.1790
     30  C         16.7470  -22.0280   -6.5750 C.2     1  UNL1        0.0490
     31  C         15.4730  -22.4530   -6.1870 C.2     1  UNL1        0.0310
     32  C         15.1800  -22.6750   -4.8460 C.2     1  UNL1        0.0030
     33  C         16.1630  -22.4750   -3.8820 C.2     1  UNL1        0.0070
     34  C         17.4490  -22.0440   -4.2460 C.2     1  UNL1       -0.0540
     35  C         18.4700  -21.8320   -3.1570 C.3     1  UNL1        0.0490
     36  C         17.7500  -21.7970   -5.6100 C.2     1  UNL1       -0.0290
     37  C         19.1430  -21.3640   -5.9910 C.3     1  UNL1        0.0510
@<TRIPOS>BOND
     1    21    22    1
     2    21    20    2
     3    22    23    2
     4    20    19    1
     5    23    19    1
     6    23    24    1
     7    19    18    1
     8    17    18    1
     9    17    16    2
    10    18    13    2
    11    16    15    1
    12    11    10    1
    13    13    12    1
    14    13    14    1
    15     3     4    1
    16     3     2    2
    17    12    10    1
    18    10     8   am
    19     4     5    2
    20    15    14    2
    21     1     2    1
    22     2     7    1
    23     5     8    1
    24     5     6    1
    25     8     9    2
    26     7     6    2
    27     7    25    1
    28    26    25    2
    29    25    27    2
    30    25    28    1
    31    29    28    1
    32    28    30    1
    33    30    31    2
    34    30    36    1
    35    31    32    1
    36    37    36    1
    37    36    34    2
    38    32    33    2
    39    34    33    1
    40    34    35    1
