@<TRIPOS>MOLECULE
3916_out_ligand_01.pdbqt
 43 46 0 0 0
SMALL
GASTEIGER

@<TRIPOS>ATOM
      1  N         21.8460  -22.8380   -9.0460 N.am    1  UNL1       -0.3260
      2  C         20.9700  -23.8260   -8.6350 C.2     1  UNL1        0.2410
      3  O         20.9630  -24.9960   -9.0120 O.2     1  UNL1       -0.2710
      4  H         21.7790  -21.9520   -8.5640 H       1  UNL1        0.1690
      5  C         19.9210  -23.3320   -7.6550 C.3     1  UNL1        0.2450
      6  N         18.4970  -23.5000   -8.0390 N.pl3   1  UNL1       -0.2630
      7  C         18.0540  -22.7760   -9.2060 C.2     1  UNL1        0.0450
      8  C         19.0150  -22.0730   -9.9420 C.2     1  UNL1        0.0300
      9  C         18.6340  -21.2510  -11.0040 C.2     1  UNL1        0.0020
     10  C         17.2850  -21.1190  -11.3300 C.2     1  UNL1        0.0000
     11  C         16.3210  -21.8090  -10.5980 C.2     1  UNL1        0.0020
     12  C         16.7020  -22.6280   -9.5310 C.2     1  UNL1        0.0300
     13  S         17.3510  -23.7480   -6.8110 S.O2    1  UNL1        0.2680
     14  O         17.4980  -25.0830   -6.2720 O.2     1  UNL1       -0.2000
     15  O         16.0650  -23.3180   -7.3190 O.2     1  UNL1       -0.2000
     16  C         17.8300  -22.6310   -5.5250 C.2     1  UNL1        0.1130
     17  C         18.6380  -21.5320   -5.8470 C.2     1  UNL1        0.0280
     18  C         18.9730  -20.5930   -4.8670 C.2     1  UNL1        0.0020
     19  C         18.4880  -20.7310   -3.5670 C.2     1  UNL1        0.0030
     20  C         17.6690  -21.8120   -3.2380 C.2     1  UNL1        0.0380
     21  C         17.3450  -22.7560   -4.2230 C.2     1  UNL1        0.1260
     22  N         16.5370  -23.8870   -3.8070 N.pl3   1  UNL1       -0.1140
     23  O         15.3230  -23.8260   -4.0340 O.2     1  UNL1       -0.5320
     24  O         17.1090  -24.7680   -3.1530 O.2     1  UNL1       -0.5320
     25  C         22.8820  -22.9440   -9.9940 C.2     1  UNL1        0.0340
     26  C         22.5350  -22.7410  -11.3370 C.2     1  UNL1        0.0310
     27  C         23.4960  -22.8380  -12.3450 C.2     1  UNL1        0.0270
     28  C         24.8110  -23.1780  -12.0120 C.2     1  UNL1        0.0800
     29  C         25.1760  -23.3650  -10.6780 C.2     1  UNL1        0.0270
     30  C         24.2090  -23.2450   -9.6730 C.2     1  UNL1        0.0310
     31  S         26.0290  -23.3140  -13.3000 S.O2    1  UNL1        0.2630
     32  O         27.0330  -22.2990  -13.0530 O.2     1  UNL1       -0.2000
     33  O         26.3880  -24.7080  -13.4400 O.2     1  UNL1       -0.2000
     34  N         25.1880  -22.8100  -14.6750 N.pl3   1  UNL1       -0.2800
     35  H         24.4980  -23.4890  -14.9890 H       1  UNL1        0.1790
     36  C         25.8310  -21.9740  -15.6360 C.2     1  UNL1        0.0500
     37  C         26.5000  -22.5890  -16.7030 C.2     1  UNL1        0.0310
     38  C         27.1210  -21.8240  -17.6880 C.2     1  UNL1        0.0040
     39  C         27.0730  -20.4370  -17.6120 C.2     1  UNL1        0.0240
     40  C         26.4100  -19.8160  -16.5470 C.2     1  UNL1        0.0420
     41  C         25.7740  -20.5700  -15.5400 C.2     1  UNL1       -0.0130
     42 CL         26.4000  -18.0860  -16.5230 Cl      1  UNL1       -0.0840
     43  C         25.0830  -19.8680  -14.4020 C.3     1  UNL1        0.0520
@<TRIPOS>BOND
     1    38    39    2
     2    38    37    1
     3    39    40    1
     4    37    36    2
     5    40    42    1
     6    40    41    2
     7    36    41    1
     8    36    34    1
     9    41    43    1
    10    35    34    1
    11    34    31    1
    12    33    31    2
    13    31    32    2
    14    31    28    1
    15    27    28    2
    16    27    26    1
    17    28    29    1
    18    26    25    2
    19    10     9    2
    20    10    11    1
    21     9     8    1
    22    29    30    2
    23    11    12    2
    24    25    30    1
    25    25     1    1
    26     8     7    2
    27    12     7    1
    28     7     6    1
    29     1     2   am
    30     1     4    1
    31     3     2    2
    32     2     5    1
    33     6     5    1
    34     6    13    1
    35    15    13    2
    36    13    14    2
    37    13    16    1
    38    17    16    2
    39    17    18    1
    40    16    21    1
    41    18    19    2
    42    21    22    1
    43    21    20    2
    44    23    22    2
    45    22    24    2
    46    19    20    1
