@<TRIPOS>MOLECULE
39188_out_ligand_01.pdbqt
 41 44 0 0 0
SMALL
GASTEIGER

@<TRIPOS>ATOM
      1  N         20.9510  -22.7080  -11.1230 N.am    1  UNL1       -0.3230
      2  C         22.3290  -22.7310  -10.9900 C.2     1  UNL1        0.2560
      3  O         22.9690  -23.0300   -9.9880 O.2     1  UNL1       -0.2670
      4  H         20.5780  -22.2640  -11.9510 H       1  UNL1        0.1690
      5  C         23.0880  -22.2920  -12.1930 C.2     1  UNL1        0.0320
      6  C         24.3440  -22.8640  -12.4350 C.2     1  UNL1        0.0190
      7  C         25.0690  -22.5150  -13.5780 C.2     1  UNL1        0.0310
      8  C         24.5450  -21.5900  -14.4840 C.2     1  UNL1        0.0450
      9  C         23.2830  -21.0360  -14.2510 C.2     1  UNL1        0.0310
     10  C         22.5540  -21.3810  -13.1100 C.2     1  UNL1        0.0190
     11  N         25.2280  -21.2780  -15.7070 N.pl3   1  UNL1       -0.2720
     12  C         26.6120  -20.7440  -15.6350 C.3     1  UNL1        0.1800
     13  C         26.7230  -19.2510  -15.8930 C.2     1  UNL1       -0.0330
     14  C         26.5470  -18.7610  -17.2020 C.2     1  UNL1        0.0090
     15  C         26.6140  -17.3950  -17.4780 C.2     1  UNL1        0.0010
     16  C         26.8470  -16.4910  -16.4490 C.2     1  UNL1        0.0010
     17  C         27.0050  -16.9530  -15.1420 C.2     1  UNL1        0.0070
     18  C         26.9340  -18.3260  -14.8470 C.2     1  UNL1       -0.0540
     19  C         27.1200  -18.7640  -13.4190 C.3     1  UNL1        0.0490
     20  S         24.8230  -22.2040  -17.0780 S.O2    1  UNL1        0.2290
     21  C         26.4130  -22.4770  -17.8440 C.3     1  UNL1        0.1860
     22  O         24.3190  -23.4950  -16.6520 O.2     1  UNL1       -0.2060
     23  O         24.0570  -21.3780  -17.9880 O.2     1  UNL1       -0.2060
     24  C         20.0010  -23.1200  -10.1650 C.2     1  UNL1        0.0350
     25  C         18.6740  -22.7050  -10.3510 C.2     1  UNL1        0.0310
     26  C         17.6780  -23.0650   -9.4360 C.2     1  UNL1        0.0270
     27  C         18.0080  -23.8600   -8.3360 C.2     1  UNL1        0.0750
     28  C         19.3230  -24.2870   -8.1440 C.2     1  UNL1        0.0270
     29  C         20.3150  -23.9180   -9.0600 C.2     1  UNL1        0.0310
     30  S         16.7530  -24.2820   -7.1480 S.O2    1  UNL1        0.2480
     31  O         17.3830  -25.0630   -6.1060 O.2     1  UNL1       -0.2050
     32  O         15.6240  -24.8100   -7.8920 O.2     1  UNL1       -0.2050
     33  N         16.2610  -22.7700   -6.6190 N.pl3   1  UNL1       -0.1480
     34  H         15.2920  -22.8370   -6.3170 H       1  UNL1        0.1490
     35  C         17.0260  -22.2730   -5.5660 C.cat   1  UNL1        0.2150
     36  N         16.6560  -22.5670   -4.3160 N.2     1  UNL1       -0.2300
     37  C         17.4410  -22.0390   -3.3620 C.2     1  UNL1        0.1220
     38  C         18.5560  -21.2740   -3.6270 C.2     1  UNL1        0.0460
     39  C         18.8560  -21.0700   -4.9620 C.2     1  UNL1        0.0350
     40  C         20.0410  -20.2420   -5.3570 C.3     1  UNL1        0.0700
     41  N         18.0960  -21.5760   -5.9550 N.2     1  UNL1       -0.2230
@<TRIPOS>BOND
     1    23    20    2
     2    21    20    1
     3    15    14    1
     4    15    16    2
     5    14    13    2
     6    20    22    2
     7    20    11    1
     8    16    17    1
     9    13    12    1
    10    13    18    1
    11    11    12    1
    12    11     8    1
    13    17    18    2
    14    18    19    1
    15     8     9    2
    16     8     7    1
    17     9    10    1
    18     7     6    2
    19    10     5    2
    20     6     5    1
    21     5     2    1
    22     4     1    1
    23     1     2   am
    24     1    24    1
    25     2     3    2
    26    25    24    2
    27    25    26    1
    28    24    29    1
    29    26    27    2
    30    29    28    2
    31    27    28    1
    32    27    30    1
    33    32    30    2
    34    30    33    1
    35    30    31    2
    36    33    34    1
    37    33    35    1
    38    41    35    1
    39    41    39    2
    40    35    36    2
    41    40    39    1
    42    39    38    1
    43    36    37    1
    44    38    37    2
