@<TRIPOS>MOLECULE
39181_out_ligand_01.pdbqt
 36 39 0 0 0
SMALL
GASTEIGER

@<TRIPOS>ATOM
      1  C         21.0010  -22.5060  -10.7980 C.2     1  UNL1        0.0220
      2  C         20.7590  -23.5190   -9.8680 C.2     1  UNL1        0.0260
      3  C         19.4780  -23.6860   -9.3430 C.2     1  UNL1        0.0270
      4  C         18.4400  -22.8530   -9.7720 C.2     1  UNL1        0.0800
      5  C         18.6810  -21.8320  -10.6970 C.2     1  UNL1        0.0270
      6  C         19.9660  -21.6690  -11.2190 C.2     1  UNL1        0.0260
      7  N         22.3000  -22.3530  -11.3660 N.pl3   1  UNL1       -0.1850
      8  H         22.3550  -21.6690  -12.1230 H       1  UNL1        0.1460
      9  S         23.5800  -22.0480  -10.2860 S.O2    1  UNL1        0.2170
     10  O         23.0700  -21.0130   -9.4080 O.2     1  UNL1       -0.2110
     11  O         24.0770  -23.3000   -9.7610 O.2     1  UNL1       -0.2110
     12  C         24.7920  -21.3120  -11.3890 C.3     1  UNL1        0.1960
     13  C         24.9760  -22.2030  -12.5910 C.2     1  UNL1       -0.0410
     14  C         25.5570  -23.4740  -12.4600 C.2     1  UNL1        0.0080
     15  C         25.7200  -24.3040  -13.5710 C.2     1  UNL1        0.0030
     16  C         25.3080  -23.8780  -14.8330 C.2     1  UNL1        0.0360
     17  C         24.7240  -22.6130  -14.9740 C.2     1  UNL1        0.1030
     18  C         24.5520  -21.7770  -13.8610 C.2     1  UNL1        0.0440
     19  N         24.2950  -22.1540  -16.3010 N.pl3   1  UNL1       -0.1160
     20  O         24.4060  -20.9480  -16.5600 O.2     1  UNL1       -0.5320
     21  O         23.8380  -23.0010  -17.0820 O.2     1  UNL1       -0.5320
     22  S         16.8090  -23.0500   -9.0820 S.O2    1  UNL1        0.2630
     23  O         16.0350  -23.8300  -10.0250 O.2     1  UNL1       -0.2000
     24  O         16.3540  -21.7490   -8.6410 O.2     1  UNL1       -0.2000
     25  N         17.0530  -24.0470   -7.7460 N.pl3   1  UNL1       -0.2800
     26  H         17.8730  -24.6420   -7.8360 H       1  UNL1        0.1790
     27  C         16.6980  -23.5750   -6.4450 C.2     1  UNL1        0.0530
     28  C         15.5120  -24.0460   -5.8740 C.2     1  UNL1        0.0310
     29  C         15.0960  -23.5780   -4.6330 C.2     1  UNL1        0.0030
     30  C         15.8660  -22.6340   -3.9580 C.2     1  UNL1        0.0120
     31  C         17.0630  -22.1480   -4.5080 C.2     1  UNL1       -0.0240
     32  C         17.8250  -21.1980   -3.8090 C.2     1  UNL1        0.0120
     33  C         17.5020  -22.6170   -5.7720 C.2     1  UNL1        0.0010
     34  C         19.0180  -20.7060   -4.3370 C.2     1  UNL1        0.0010
     35  C         19.4630  -21.1520   -5.5730 C.2     1  UNL1        0.0010
     36  C         18.7150  -22.0920   -6.2840 C.2     1  UNL1        0.0140
@<TRIPOS>BOND
     1    21    19    2
     2    20    19    2
     3    19    17    1
     4    17    16    2
     5    17    18    1
     6    16    15    1
     7    18    13    2
     8    15    14    2
     9    13    14    1
    10    13    12    1
    11     8     7    1
    12    12     9    1
    13     7     1    1
    14     7     9    1
    15     6     1    2
    16     6     5    1
    17     1     2    1
    18     5     4    2
    19     9    11    2
    20     9    10    2
    21    23    22    2
    22     2     3    2
    23     4     3    1
    24     4    22    1
    25    22    24    2
    26    22    25    1
    27    26    25    1
    28    25    27    1
    29    27    28    2
    30    27    33    1
    31    36    33    1
    32    36    35    2
    33    28    29    1
    34    33    31    2
    35    35    34    1
    36    29    30    2
    37    31    30    1
    38    31    32    1
    39    34    32    2
