@<TRIPOS>MOLECULE
39186_out_ligand_01.pdbqt
 34 36 0 0 0
SMALL
GASTEIGER

@<TRIPOS>ATOM
      1  C         21.0430  -22.9680  -10.1590 C.2     1  UNL1        0.0340
      2  C         20.8360  -23.9080   -9.1450 C.2     1  UNL1        0.0310
      3  C         19.5700  -24.0660   -8.5700 C.2     1  UNL1        0.0270
      4  C         18.5040  -23.2860   -9.0220 C.2     1  UNL1        0.0800
      5  C         18.7020  -22.3250  -10.0140 C.2     1  UNL1        0.0270
      6  C         19.9700  -22.1720  -10.5810 C.2     1  UNL1        0.0310
      7  N         22.2810  -22.7580  -10.7910 N.am    1  UNL1       -0.3250
      8  C         23.2730  -21.8560  -10.4460 C.2     1  UNL1        0.2510
      9  O         23.2480  -21.0600   -9.5110 O.2     1  UNL1       -0.2700
     10  H         22.5320  -23.4070  -11.5310 H       1  UNL1        0.1690
     11  C         24.4820  -21.9090  -11.4000 C.3     1  UNL1        0.2170
     12  C         25.5920  -21.0370  -10.8210 C.3     1  UNL1        0.0500
     13  O         24.1870  -21.3930  -12.7000 O.2     1  UNL1       -0.3370
     14  C         24.4160  -22.1940  -13.7860 C.2     1  UNL1        0.0720
     15  C         25.0160  -23.4190  -13.4770 C.2     1  UNL1        0.0370
     16  C         25.3250  -24.3300  -14.4850 C.2     1  UNL1        0.0050
     17  C         25.0390  -24.0130  -15.8110 C.2     1  UNL1        0.0370
     18  C         24.4470  -22.7920  -16.1370 C.2     1  UNL1        0.0700
     19  C         24.1310  -21.8830  -15.1200 C.2     1  UNL1        0.0730
     20  O         24.2290  -22.6060  -17.4750 O.2     1  UNL1       -0.3560
     21  C         23.4710  -23.6010  -18.1530 C.3     1  UNL1        0.2100
     22  S         16.9010  -23.4710   -8.2840 S.O2    1  UNL1        0.2630
     23  O         15.9230  -23.3490   -9.3460 O.2     1  UNL1       -0.2000
     24  O         16.9260  -24.6440   -7.4380 O.2     1  UNL1       -0.2000
     25  N         16.7450  -22.0760   -7.3530 N.pl3   1  UNL1       -0.2800
     26  H         16.0820  -21.4110   -7.7450 H       1  UNL1        0.1790
     27  C         16.8530  -22.1510   -5.9340 C.2     1  UNL1        0.0540
     28  C         18.0920  -21.8640   -5.3280 C.2     1  UNL1       -0.0340
     29  C         19.3110  -21.4410   -6.1020 C.3     1  UNL1        0.0500
     30  C         18.2130  -21.9850   -3.9340 C.2     1  UNL1        0.0090
     31  C         17.1180  -22.3390   -3.1530 C.2     1  UNL1        0.0010
     32  C         15.8830  -22.5650   -3.7530 C.2     1  UNL1        0.0090
     33  C         15.7270  -22.4530   -5.1440 C.2     1  UNL1       -0.0340
     34  C         14.3580  -22.7030   -5.7160 C.3     1  UNL1        0.0500
@<TRIPOS>BOND
     1    21    20    1
     2    20    18    1
     3    18    17    2
     4    18    19    1
     5    17    16    1
     6    19    14    2
     7    16    15    2
     8    14    15    1
     9    14    13    1
    10    13    11    1
    11    10     7    1
    12    11    12    1
    13    11     8    1
    14     7     8   am
    15     7     1    1
    16     6     1    2
    17     6     5    1
    18     8     9    2
    19     1     2    1
    20     5     4    2
    21    23    22    2
    22     2     3    2
    23     4     3    1
    24     4    22    1
    25    22    24    2
    26    22    25    1
    27    26    25    1
    28    25    27    1
    29    29    28    1
    30    27    28    2
    31    27    33    1
    32    34    33    1
    33    28    30    1
    34    33    32    2
    35    30    31    2
    36    32    31    1
