@<TRIPOS>MOLECULE
39197_out_ligand_01.pdbqt
 33 36 0 0 0
SMALL
GASTEIGER

@<TRIPOS>ATOM
      1  C         21.1910  -22.7620  -10.5240 C.2     1  UNL1        0.0340
      2  C         20.8620  -23.6600   -9.4980 C.2     1  UNL1        0.0310
      3  C         19.5470  -23.7710   -9.0360 C.2     1  UNL1        0.0270
      4  C         18.5500  -22.9850   -9.6160 C.2     1  UNL1        0.0800
      5  C         18.8670  -22.0620  -10.6130 C.2     1  UNL1        0.0270
      6  C         20.1860  -21.9600  -11.0710 C.2     1  UNL1        0.0310
      7  S         16.8710  -23.1310   -9.0480 S.O2    1  UNL1        0.2630
      8  O         16.4620  -21.8260   -8.5660 O.2     1  UNL1       -0.2000
      9  O         16.1090  -23.8230  -10.0640 O.2     1  UNL1       -0.2000
     10  N         16.9980  -24.1070   -7.6760 N.pl3   1  UNL1       -0.2800
     11  H         16.8710  -25.0940   -7.8820 H       1  UNL1        0.1790
     12  C         16.5230  -23.6100   -6.4220 C.2     1  UNL1        0.0530
     13  C         15.3030  -24.0950   -5.9440 C.2     1  UNL1        0.0310
     14  C         14.8220  -23.6830   -4.7070 C.2     1  UNL1        0.0030
     15  C         15.5640  -22.7890   -3.9380 C.2     1  UNL1        0.0120
     16  C         16.7950  -22.2910   -4.3950 C.2     1  UNL1       -0.0240
     17  C         17.5320  -21.3970   -3.6000 C.2     1  UNL1        0.0120
     18  C         17.2970  -22.6970   -5.6550 C.2     1  UNL1        0.0010
     19  C         18.7610  -20.8990   -4.0310 C.2     1  UNL1        0.0010
     20  C         19.2690  -21.2880   -5.2630 C.2     1  UNL1        0.0010
     21  C         18.5470  -22.1730   -6.0670 C.2     1  UNL1        0.0140
     22  N         22.5370  -22.7320  -10.9390 N.am    1  UNL1       -0.3270
     23  C         23.5430  -21.8880  -10.4970 C.2     1  UNL1        0.2260
     24  O         23.4380  -21.0300   -9.6240 O.2     1  UNL1       -0.2730
     25  H         22.7790  -23.3570  -11.6980 H       1  UNL1        0.1690
     26  C         24.8920  -22.1460  -11.1570 C.3     1  UNL1        0.1410
     27  C         24.8180  -22.4650  -12.6320 C.2     1  UNL1       -0.0490
     28  C         24.3230  -21.5210  -13.5420 C.2     1  UNL1        0.0080
     29  C         24.2710  -21.8140  -14.9070 C.2     1  UNL1        0.0070
     30  C         24.7170  -23.0500  -15.3860 C.2     1  UNL1       -0.0620
     31  C         24.6240  -23.3770  -16.8480 C.3     1  UNL1        0.0480
     32  C         25.1900  -24.0010  -14.4760 C.2     1  UNL1        0.0070
     33  C         25.2430  -23.7110  -13.1120 C.2     1  UNL1        0.0080
@<TRIPOS>BOND
     1    31    30    1
     2    30    29    2
     3    30    32    1
     4    29    28    1
     5    32    33    2
     6    28    27    2
     7    33    27    1
     8    27    26    1
     9    25    22    1
    10    26    23    1
    11     6     5    1
    12     6     1    2
    13    22     1    1
    14    22    23   am
    15     5     4    2
    16     1     2    1
    17    23    24    2
    18     9     7    2
    19     4     7    1
    20     4     3    1
    21     2     3    2
    22     7     8    2
    23     7    10    1
    24    11    10    1
    25    10    12    1
    26    12    13    2
    27    12    18    1
    28    21    18    1
    29    21    20    2
    30    13    14    1
    31    18    16    2
    32    20    19    1
    33    14    15    2
    34    16    15    1
    35    16    17    1
    36    19    17    2
