@<TRIPOS>MOLECULE
39193_out_ligand_01.pdbqt
 36 39 0 0 0
SMALL
GASTEIGER

@<TRIPOS>ATOM
      1  C         17.5790  -23.6140   -8.5510 C.2     1  UNL1        0.0970
      2  C         18.9640  -23.8490   -8.5860 C.2     1  UNL1        0.0430
      3  C         19.7550  -23.2780   -9.5910 C.2     1  UNL1        0.0330
      4  C         19.1620  -22.4420  -10.5420 C.2     1  UNL1        0.0190
      5  C         17.7840  -22.2080  -10.5020 C.2     1  UNL1        0.0260
      6  C         16.9830  -22.7950   -9.5130 C.2     1  UNL1        0.0570
      7 CL         15.2950  -22.4520   -9.5920 Cl      1  UNL1       -0.0830
      8  C         21.2160  -23.5690   -9.5950 C.2     1  UNL1        0.2510
      9  O         21.6390  -24.5620   -9.0170 O.2     1  UNL1       -0.2680
     10  N         22.0110  -22.6980  -10.3090 N.am    1  UNL1       -0.3530
     11  H         21.5770  -22.0520  -10.9510 H       1  UNL1        0.1630
     12  C         23.4150  -22.9730  -10.5220 C.3     1  UNL1        0.1610
     13  C         23.8140  -22.6350  -11.9360 C.2     1  UNL1       -0.0400
     14  C         24.9860  -23.1540  -12.4960 C.2     1  UNL1        0.0110
     15  C         25.3620  -22.8220  -13.8030 C.2     1  UNL1        0.0300
     16  C         24.5710  -21.9660  -14.5770 C.2     1  UNL1        0.0400
     17  C         23.4100  -21.4220  -14.0050 C.2     1  UNL1        0.0300
     18  C         23.0370  -21.7550  -12.6990 C.2     1  UNL1        0.0110
     19  N         24.9370  -21.6140  -15.9130 N.pl3   1  UNL1       -0.3090
     20  C         25.5460  -20.4280  -16.2810 C.2     1  UNL1        0.1180
     21  C         25.8000  -20.5180  -17.6260 C.2     1  UNL1        0.1360
     22  N         25.3310  -21.6940  -18.1220 N.2     1  UNL1       -0.2460
     23  C         24.7770  -22.3280  -17.1020 C.2     1  UNL1        0.1060
     24  C         24.0000  -23.5840  -17.2700 C.3     1  UNL1        0.0910
     25  S         16.6370  -24.3570   -7.2470 S.O2    1  UNL1        0.2470
     26  O         15.4890  -25.0080   -7.8470 O.2     1  UNL1       -0.2050
     27  O         17.5470  -25.0860   -6.3960 O.2     1  UNL1       -0.2050
     28  N         15.9960  -22.9860   -6.4620 N.pl3   1  UNL1       -0.1810
     29  H         15.1450  -23.3040   -5.9910 H       1  UNL1        0.1460
     30  C         16.8690  -22.3860   -5.4960 C.2     1  UNL1        0.0230
     31  C         16.6120  -22.6200   -4.1470 C.2     1  UNL1        0.0240
     32  C         17.4490  -22.0710   -3.1760 C.2     1  UNL1        0.0020
     33  C         18.5510  -21.3030   -3.5590 C.2     1  UNL1        0.0070
     34  C         18.8330  -21.0890   -4.9160 C.2     1  UNL1       -0.0600
     35  C         20.0080  -20.2500   -5.3170 C.3     1  UNL1        0.0480
     36  C         17.9800  -21.6350   -5.8850 C.2     1  UNL1        0.0310
@<TRIPOS>BOND
     1    22    21    1
     2    22    23    2
     3    21    20    2
     4    24    23    1
     5    23    19    1
     6    20    19    1
     7    19    16    1
     8    16    17    2
     9    16    15    1
    10    17    18    1
    11    15    14    2
    12    18    13    2
    13    14    13    1
    14    13    12    1
    15    11    10    1
    16     4     5    2
    17     4     3    1
    18    12    10    1
    19     5     6    1
    20    10     8   am
    21     8     3    1
    22     8     9    2
    23     7     6    1
    24     3     2    2
    25     6     1    2
    26     2     1    1
    27     1    25    1
    28    26    25    2
    29    25    28    1
    30    25    27    2
    31    28    29    1
    32    28    30    1
    33    36    30    2
    34    36    34    1
    35    30    31    1
    36    35    34    1
    37    34    33    2
    38    31    32    2
    39    33    32    1
