@<TRIPOS>MOLECULE
39198_out_ligand_01.pdbqt
 36 39 0 0 0
SMALL
GASTEIGER

@<TRIPOS>ATOM
      1  C         17.8370  -23.6500   -8.3950 C.2     1  UNL1        0.0800
      2  C         17.4660  -22.7830   -9.4290 C.2     1  UNL1        0.0270
      3  C         18.4420  -22.3040  -10.3040 C.2     1  UNL1        0.0260
      4  C         19.7770  -22.6730  -10.1260 C.2     1  UNL1        0.0220
      5  C         20.1490  -23.5160   -9.0770 C.2     1  UNL1        0.0260
      6  C         19.1780  -23.9940   -8.1970 C.2     1  UNL1        0.0270
      7  N         20.7430  -22.2640  -11.0970 N.pl3   1  UNL1       -0.1810
      8  H         20.5920  -21.3010  -11.4030 H       1  UNL1        0.1460
      9  S         22.3630  -22.3530  -10.5660 S.O2    1  UNL1        0.2450
     10  O         22.6630  -23.6620  -10.0290 O.2     1  UNL1       -0.2060
     11  O         22.5920  -21.1420   -9.8050 O.2     1  UNL1       -0.2060
     12  C         23.2220  -22.2000  -12.1130 C.2     1  UNL1        0.0750
     13  C         22.6770  -21.4090  -13.1210 C.2     1  UNL1        0.0270
     14  C         23.3400  -21.2950  -14.3490 C.2     1  UNL1        0.0310
     15  C         24.5430  -21.9730  -14.5950 C.2     1  UNL1        0.0370
     16  C         25.0610  -22.7780  -13.5640 C.2     1  UNL1        0.0310
     17  C         24.4080  -22.8960  -12.3310 C.2     1  UNL1        0.0270
     18  N         25.2210  -21.8650  -15.8400 N.am    1  UNL1       -0.3180
     19  C         25.7900  -20.6260  -16.3170 C.3     1  UNL1        0.1330
     20  C         26.7190  -21.0470  -17.4350 C.3     1  UNL1        0.0290
     21  C         26.0360  -22.2700  -18.0150 C.3     1  UNL1        0.1050
     22  C         25.3300  -22.8670  -16.8190 C.2     1  UNL1        0.2240
     23  O         24.9100  -24.0150  -16.8060 O.2     1  UNL1       -0.2730
     24  S         16.5860  -24.3160   -7.3200 S.O2    1  UNL1        0.2630
     25  O         15.5250  -24.8470   -8.1500 O.2     1  UNL1       -0.2000
     26  O         17.2540  -25.1500   -6.3420 O.2     1  UNL1       -0.2000
     27  N         16.0380  -22.9570   -6.4770 N.pl3   1  UNL1       -0.2800
     28  H         15.0330  -22.9810   -6.3220 H       1  UNL1        0.1790
     29  C         16.8580  -22.3780   -5.4640 C.2     1  UNL1        0.0490
     30  C         16.6110  -22.6300   -4.1050 C.2     1  UNL1       -0.0350
     31  C         17.4990  -22.1060   -3.1540 C.2     1  UNL1        0.0090
     32  C         15.4590  -23.4700   -3.6330 C.3     1  UNL1        0.0500
     33  C         18.5900  -21.3250   -3.5400 C.2     1  UNL1        0.0070
     34  C         18.8120  -21.0420   -4.8900 C.2     1  UNL1       -0.0600
     35  C         19.9950  -20.2230   -5.3150 C.3     1  UNL1        0.0480
     36  C         17.9470  -21.5850   -5.8460 C.2     1  UNL1        0.0370
@<TRIPOS>BOND
     1    21    20    1
     2    21    22    1
     3    20    19    1
     4    22    23    2
     5    22    18   am
     6    19    18    1
     7    18    15    1
     8    15    14    2
     9    15    16    1
    10    14    13    1
    11    16    17    2
    12    13    12    2
    13    17    12    1
    14    12     9    1
    15     8     7    1
    16     7     9    1
    17     7     4    1
    18     9    10    2
    19     9    11    2
    20     3     4    2
    21     3     2    1
    22     4     5    1
    23     2     1    2
    24     5     6    2
    25     1     6    1
    26     1    24    1
    27    25    24    2
    28    24    27    1
    29    24    26    2
    30    27    28    1
    31    27    29    1
    32    36    29    2
    33    36    34    1
    34    29    30    1
    35    35    34    1
    36    34    33    2
    37    30    32    1
    38    30    31    2
    39    33    31    1
