@<TRIPOS>MOLECULE
39200_out_ligand_01.pdbqt
 41 44 0 0 0
SMALL
GASTEIGER

@<TRIPOS>ATOM
      1  C         20.8590  -22.0540  -11.0320 C.2     1  UNL1        0.2560
      2  O         20.3000  -21.0670  -11.4950 O.2     1  UNL1       -0.2670
      3  N         22.1020  -22.5520  -11.3750 N.am    1  UNL1       -0.3230
      4  H         22.3400  -23.4710  -11.0270 H       1  UNL1        0.1690
      5  C         20.1340  -22.8470  -10.0050 C.2     1  UNL1        0.0330
      6  C         20.8090  -23.7050   -9.1340 C.2     1  UNL1        0.0170
      7  C         20.0980  -24.3940   -8.1490 C.2     1  UNL1        0.0090
      8  C         18.7080  -24.2280   -7.9950 C.2     1  UNL1       -0.0390
      9  C         18.0280  -25.0070   -6.9050 C.3     1  UNL1        0.0500
     10  C         18.0430  -23.3400   -8.8630 C.2     1  UNL1        0.0860
     11  C         18.7540  -22.6720   -9.8750 C.2     1  UNL1        0.0420
     12  S         16.2880  -22.9880   -8.7870 S.O2    1  UNL1        0.2630
     13  O         15.5670  -24.1510   -8.3210 O.2     1  UNL1       -0.2000
     14  O         15.9350  -22.3650  -10.0470 O.2     1  UNL1       -0.2000
     15  N         16.1810  -21.7730   -7.6230 N.pl3   1  UNL1       -0.2800
     16  H         16.6050  -20.8970   -7.9230 H       1  UNL1        0.1790
     17  C         16.1620  -22.0880   -6.2300 C.2     1  UNL1        0.0490
     18  C         14.9700  -22.5310   -5.6490 C.2     1  UNL1        0.0310
     19  C         14.9210  -22.8550   -4.2970 C.2     1  UNL1        0.0030
     20  C         16.0580  -22.7150   -3.5100 C.2     1  UNL1        0.0070
     21  C         17.2600  -22.2380   -4.0610 C.2     1  UNL1       -0.0540
     22  C         18.4510  -22.0770   -3.1530 C.3     1  UNL1        0.0490
     23  C         17.3240  -21.9330   -5.4430 C.2     1  UNL1       -0.0290
     24  C         18.5960  -21.3770   -6.0360 C.3     1  UNL1        0.0510
     25  C         23.0610  -21.9450  -12.2120 C.2     1  UNL1        0.0350
     26  C         22.6440  -21.5680  -13.4960 C.2     1  UNL1        0.0310
     27  C         23.5380  -20.9830  -14.3960 C.2     1  UNL1        0.0270
     28  C         24.8640  -20.7810  -14.0100 C.2     1  UNL1        0.0800
     29  C         25.2970  -21.1610  -12.7390 C.2     1  UNL1        0.0270
     30  C         24.3930  -21.7370  -11.8420 C.2     1  UNL1        0.0310
     31  S         26.0210  -20.0500  -15.1420 S.O2    1  UNL1        0.2760
     32  O         25.2850  -19.8110  -16.3680 O.2     1  UNL1       -0.2000
     33  O         26.7100  -18.9600  -14.4840 O.2     1  UNL1       -0.2000
     34  N         27.0830  -21.2770  -15.4740 N.pl3   1  UNL1       -0.1090
     35  H         28.0170  -21.1470  -15.1010 H       1  UNL1        0.1980
     36  C         26.6220  -22.5840  -15.4020 C.cat   1  UNL1        0.7350
     37  N         27.0270  -23.3670  -14.3990 N.2     1  UNL1       -0.0740
     38  C         26.4050  -24.5550  -14.3020 C.2     1  UNL1        0.1380
     39  C         25.3830  -24.9450  -15.1350 C.2     1  UNL1        0.0400
     40  C         25.0160  -24.0290  -16.0940 C.2     1  UNL1        0.1380
     41  N         25.6070  -22.8290  -16.2380 N.2     1  UNL1       -0.0740
@<TRIPOS>BOND
     1    32    31    2
     2    41    40    2
     3    41    36    1
     4    40    39    1
     5    34    36    1
     6    34    31    1
     7    34    35    1
     8    36    37    2
     9    31    33    2
    10    31    28    1
    11    39    38    2
    12    37    38    1
    13    27    28    2
    14    27    26    1
    15    28    29    1
    16    26    25    2
    17    29    30    2
    18    25    30    1
    19    25     3    1
    20     2     1    2
    21     3     1   am
    22     3     4    1
    23     1     5    1
    24    14    12    2
    25     5    11    2
    26     5     6    1
    27    11    10    1
    28     6     7    2
    29    10    12    1
    30    10     8    2
    31    12    13    2
    32    12    15    1
    33     7     8    1
    34     8     9    1
    35    16    15    1
    36    15    17    1
    37    17    18    2
    38    17    23    1
    39    24    23    1
    40    18    19    1
    41    23    21    2
    42    19    20    2
    43    21    20    1
    44    21    22    1
