@<TRIPOS>MOLECULE
3921_out_ligand_01.pdbqt
 33 36 0 0 0
SMALL
GASTEIGER

@<TRIPOS>ATOM
      1  C         18.6140  -22.6300   -9.9910 C.2     1  UNL1        0.0800
      2  C         19.4330  -23.5780   -9.3730 C.2     1  UNL1        0.0270
      3  C         20.7880  -23.6290   -9.6980 C.2     1  UNL1        0.0310
      4  C         21.3280  -22.7630  -10.6620 C.2     1  UNL1        0.0340
      5  C         20.4850  -21.8530  -11.3060 C.2     1  UNL1        0.0310
      6  C         19.1290  -21.7800  -10.9720 C.2     1  UNL1        0.0270
      7  N         22.7080  -22.8820  -10.9160 N.am    1  UNL1       -0.3250
      8  C         23.7370  -22.0720  -10.4580 C.2     1  UNL1        0.2540
      9  O         23.5890  -21.1280   -9.6780 O.2     1  UNL1       -0.2700
     10  H         22.9680  -23.6520  -11.5310 H       1  UNL1        0.1690
     11  C         25.1560  -22.4290  -10.9620 C.3     1  UNL1        0.2450
     12  C         26.1780  -21.2930  -11.0000 C.3     1  UNL1        0.2180
     13  O         25.8120  -20.2970  -11.9670 O.2     1  UNL1       -0.3450
     14  C         25.4730  -20.8850  -13.1630 C.2     1  UNL1        0.1020
     15  C         25.4450  -20.0590  -14.2840 C.2     1  UNL1        0.0390
     16  C         25.1540  -22.2400  -13.2830 C.2     1  UNL1        0.1030
     17  C         25.1340  -20.6020  -15.5350 C.2     1  UNL1        0.0030
     18  C         24.8480  -21.9600  -15.6580 C.2     1  UNL1        0.0030
     19  C         24.8570  -22.7810  -14.5320 C.2     1  UNL1        0.0400
     20  O         25.1120  -23.0990  -12.2200 O.2     1  UNL1       -0.3310
     21  S         16.9000  -22.5050   -9.5310 S.O2    1  UNL1        0.2630
     22  O         16.2490  -21.6260  -10.4910 O.2     1  UNL1       -0.2000
     23  O         16.4060  -23.8440   -9.2860 O.2     1  UNL1       -0.2000
     24  N         16.9690  -21.6390   -8.0880 N.pl3   1  UNL1       -0.2800
     25  H         17.5310  -20.7820   -8.1530 H       1  UNL1        0.1790
     26  C         16.8920  -22.3120   -6.8390 C.2     1  UNL1        0.0490
     27  C         17.9940  -22.3330   -5.9680 C.2     1  UNL1       -0.0350
     28  C         17.8770  -23.0200   -4.7470 C.2     1  UNL1        0.0090
     29  C         19.2810  -21.6270   -6.2790 C.3     1  UNL1        0.0500
     30  C         16.6850  -23.6470   -4.3850 C.2     1  UNL1        0.0070
     31  C         15.5790  -23.5900   -5.2330 C.2     1  UNL1       -0.0600
     32  C         14.2980  -24.2480   -4.8360 C.3     1  UNL1        0.0480
     33  C         15.6930  -22.9350   -6.4660 C.2     1  UNL1        0.0370
@<TRIPOS>BOND
     1    18    17    2
     2    18    19    1
     3    17    15    1
     4    19    16    2
     5    15    14    2
     6    16    14    1
     7    16    20    1
     8    14    13    1
     9    20    11    1
    10    13    12    1
    11    10     7    1
    12     5     6    1
    13     5     4    2
    14    12    11    1
    15     6     1    2
    16    11     8    1
    17     7     4    1
    18     7     8   am
    19     4     3    1
    20    22    21    2
    21     8     9    2
    22     1    21    1
    23     1     2    1
    24     3     2    2
    25    21    23    2
    26    21    24    1
    27    25    24    1
    28    24    26    1
    29    26    33    2
    30    26    27    1
    31    33    31    1
    32    29    27    1
    33    27    28    2
    34    31    32    1
    35    31    30    2
    36    28    30    1
