@<TRIPOS>MOLECULE
3922_out_ligand_01.pdbqt
 32 35 0 0 0
SMALL
GASTEIGER

@<TRIPOS>ATOM
      1  C         18.6500  -23.1490   -9.0460 C.2     1  UNL1        0.0800
      2  C         19.0170  -22.3950  -10.1630 C.2     1  UNL1        0.0270
      3  C         20.3450  -22.4090  -10.6010 C.2     1  UNL1        0.0310
      4  C         21.3040  -23.1790   -9.9360 C.2     1  UNL1        0.0340
      5  C         20.9160  -23.9440   -8.8270 C.2     1  UNL1        0.0310
      6  C         19.5920  -23.9320   -8.3790 C.2     1  UNL1        0.0270
      7  N         22.6570  -23.2480  -10.3160 N.am    1  UNL1       -0.3250
      8  C         23.6520  -22.3020  -10.1180 C.2     1  UNL1        0.2540
      9  O         23.5110  -21.2050   -9.5850 O.2     1  UNL1       -0.2700
     10  H         22.9730  -24.1210  -10.7280 H       1  UNL1        0.1690
     11  C         25.0010  -22.7330  -10.7280 C.3     1  UNL1        0.2450
     12  C         24.8080  -23.4450  -12.0620 C.3     1  UNL1        0.2180
     13  O         24.3860  -22.5410  -13.0920 O.2     1  UNL1       -0.3450
     14  C         25.1100  -21.3810  -13.0780 C.2     1  UNL1        0.1020
     15  C         25.0400  -20.5840  -14.2190 C.2     1  UNL1        0.0390
     16  C         25.8850  -20.9760  -11.9900 C.2     1  UNL1        0.1030
     17  C         25.7700  -19.3960  -14.2840 C.2     1  UNL1        0.0030
     18  C         26.5670  -19.0050  -13.2070 C.2     1  UNL1        0.0030
     19  C         26.6250  -19.7960  -12.0590 C.2     1  UNL1        0.0400
     20  O         25.9630  -21.6770  -10.8160 O.2     1  UNL1       -0.3310
     21  S         16.9640  -23.1280   -8.4950 S.O2    1  UNL1        0.2630
     22  O         16.1240  -23.6860   -9.5330 O.2     1  UNL1       -0.2000
     23  O         16.7020  -21.8080   -7.9600 O.2     1  UNL1       -0.2000
     24  N         16.9940  -24.1770   -7.1680 N.pl3   1  UNL1       -0.2810
     25  H         17.7680  -24.8350   -7.2430 H       1  UNL1        0.1790
     26  C         16.7190  -23.6320   -5.8840 C.2     1  UNL1        0.0430
     27  C         15.4360  -23.7400   -5.3540 C.2     1  UNL1        0.0300
     28  C         15.1510  -23.1740   -4.1120 C.2     1  UNL1        0.0030
     29  C         16.1480  -22.4980   -3.4060 C.2     1  UNL1        0.0070
     30  C         17.4410  -22.3890   -3.9310 C.2     1  UNL1       -0.0600
     31  C         18.4970  -21.6170   -3.1980 C.3     1  UNL1        0.0480
     32  C         17.7170  -22.9520   -5.1840 C.2     1  UNL1        0.0370
@<TRIPOS>BOND
     1    17    15    1
     2    17    18    2
     3    15    14    2
     4    18    19    1
     5    13    14    1
     6    13    12    1
     7    14    16    1
     8    12    11    1
     9    19    16    2
    10    16    20    1
    11    20    11    1
    12    11     8    1
    13    10     7    1
    14     3     2    1
    15     3     4    2
    16     7     8   am
    17     7     4    1
    18     2     1    2
    19     8     9    2
    20     4     5    1
    21    22    21    2
    22     1    21    1
    23     1     6    1
    24     5     6    2
    25    21    23    2
    26    21    24    1
    27    25    24    1
    28    24    26    1
    29    26    27    2
    30    26    32    1
    31    27    28    1
    32    32    30    2
    33    28    29    2
    34    30    29    1
    35    30    31    1
