@<TRIPOS>MOLECULE
39232_out_ligand_01.pdbqt
 39 43 0 0 0
SMALL
GASTEIGER

@<TRIPOS>ATOM
      1  C         25.0200  -23.0550  -10.6800 C.2     1  UNL1        0.1760
      2  S         26.5120  -23.7330  -10.3390 S.2     1  UNL1       -0.0410
      3  N         24.2660  -23.2150  -11.8170 N.am    1  UNL1       -0.3330
      4  H         23.4630  -23.8170  -11.6680 H       1  UNL1        0.1680
      5  C         24.5560  -22.9330  -13.1680 C.2     1  UNL1        0.0340
      6  C         23.8970  -21.8380  -13.7460 C.2     1  UNL1        0.0310
      7  C         24.1570  -21.4630  -15.0670 C.2     1  UNL1        0.0270
      8  C         25.1070  -22.1670  -15.8060 C.2     1  UNL1        0.0800
      9  C         25.7760  -23.2550  -15.2420 C.2     1  UNL1        0.0270
     10  C         25.5060  -23.6270  -13.9200 C.2     1  UNL1        0.0310
     11  S         25.4410  -21.7170  -17.4910 S.O2    1  UNL1        0.2760
     12  O         25.9100  -22.9200  -18.1510 O.2     1  UNL1       -0.2000
     13  O         24.3100  -20.9910  -18.0280 O.2     1  UNL1       -0.2000
     14  N         26.7640  -20.7230  -17.3750 N.pl3   1  UNL1       -0.1090
     15  H         27.4470  -20.8610  -18.1100 H       1  UNL1        0.1980
     16  C         26.5450  -19.3870  -17.0670 C.cat   1  UNL1        0.7350
     17  N         26.6430  -18.9820  -15.8000 N.2     1  UNL1       -0.0740
     18  C         26.5650  -17.6530  -15.6090 C.2     1  UNL1        0.1380
     19  C         26.4380  -16.7450  -16.6340 C.2     1  UNL1        0.0400
     20  C         26.4050  -17.2820  -17.8990 C.2     1  UNL1        0.1380
     21  N         26.4770  -18.6030  -18.1470 N.2     1  UNL1       -0.0740
     22  N         24.4320  -22.3310   -9.6700 N.am    1  UNL1       -0.3310
     23  H         24.9250  -21.4830   -9.4170 H       1  UNL1        0.1680
     24  C         23.1940  -22.5120   -9.0810 C.2     1  UNL1        0.0710
     25  C         22.4600  -21.7540   -8.1430 C.2     1  UNL1        0.1690
     26  N         21.2880  -22.3140   -7.8320 N.2     1  UNL1       -0.1830
     27  N         21.2680  -23.4430   -8.5730 N.pl3   1  UNL1       -0.2750
     28  C         22.4120  -23.6210   -9.3040 C.2     1  UNL1        0.1430
     29  C         20.1400  -24.3610   -8.4710 C.3     1  UNL1        0.1890
     30  C         18.8150  -23.6740   -8.7320 C.2     1  UNL1       -0.0270
     31  C         18.5760  -23.1790  -10.0280 C.2     1  UNL1        0.0100
     32  C         17.3890  -22.5240  -10.3320 C.2     1  UNL1        0.0020
     33  C         16.4200  -22.3550   -9.3480 C.2     1  UNL1        0.0120
     34  C         16.6210  -22.8370   -8.0470 C.2     1  UNL1       -0.0250
     35  C         15.6260  -22.6550   -7.0720 C.2     1  UNL1        0.0120
     36  C         17.8270  -23.5090   -7.7190 C.2     1  UNL1       -0.0180
     37  C         15.7990  -23.1250   -5.7720 C.2     1  UNL1        0.0010
     38  C         16.9710  -23.7880   -5.4330 C.2     1  UNL1        0.0010
     39  C         17.9690  -23.9770   -6.3910 C.2     1  UNL1        0.0130
@<TRIPOS>BOND
     1    12    11    2
     2    21    20    2
     3    21    16    1
     4    15    14    1
     5    13    11    2
     6    20    19    1
     7    11    14    1
     8    11     8    1
     9    14    16    1
    10    16    17    2
    11    19    18    2
    12     8     9    2
    13     8     7    1
    14    17    18    1
    15     9    10    1
    16     7     6    2
    17    10     5    2
    18     6     5    1
    19     5     3    1
    20     3     4    1
    21     3     1    1
    22     1     2    2
    23     1    22    1
    24    32    31    1
    25    32    33    2
    26    31    30    2
    27    22    23    1
    28    22    24    1
    29    33    34    1
    30    28    24    2
    31    28    27    1
    32    24    25    1
    33    30    29    1
    34    30    36    1
    35    27    29    1
    36    27    26    1
    37    25    26    2
    38    34    36    2
    39    34    35    1
    40    36    39    1
    41    35    37    2
    42    39    38    2
    43    37    38    1
