@<TRIPOS>MOLECULE
3923_out_ligand_01.pdbqt
 41 45 0 0 0
SMALL
GASTEIGER

@<TRIPOS>ATOM
      1  O         21.7870  -24.4960   -9.1940 O.2     1  UNL1       -0.2670
      2  C         21.2450  -23.3990   -9.1530 C.2     1  UNL1        0.2560
      3  N         21.4530  -22.3300  -10.0070 N.am    1  UNL1       -0.3230
      4  H         21.0250  -21.4500   -9.7480 H       1  UNL1        0.1690
      5  C         20.2910  -23.1250   -8.0450 C.2     1  UNL1        0.0320
      6  C         19.3630  -24.0830   -7.6230 C.2     1  UNL1        0.0170
      7  C         18.4730  -23.7820   -6.5870 C.2     1  UNL1        0.0110
      8  C         18.5030  -22.5280   -5.9480 C.2     1  UNL1       -0.0250
      9  C         19.4480  -21.5800   -6.3800 C.2     1  UNL1        0.0110
     10  C         20.3420  -21.8800   -7.4110 C.2     1  UNL1        0.0170
     11  C         17.5030  -22.2270   -4.8430 C.3     1  UNL1        0.1830
     12  S         18.0620  -22.9310   -3.2700 S.3     1  UNL1       -0.1300
     13  C         16.6810  -24.0820   -3.1530 C.3     1  UNL1        0.1790
     14  C         15.6890  -23.7030   -4.2260 C.2     1  UNL1        0.2300
     15  O         14.5770  -24.2140   -4.3080 O.2     1  UNL1       -0.2720
     16  N         16.1780  -22.7480   -5.0950 N.am    1  UNL1       -0.3300
     17  C         15.3410  -22.1590   -6.1320 C.3     1  UNL1        0.1660
     18  C         15.6530  -22.7230   -7.4970 C.2     1  UNL1       -0.0400
     19  C         15.2580  -24.0280   -7.8280 C.2     1  UNL1        0.0090
     20  C         15.5230  -24.5490   -9.0950 C.2     1  UNL1        0.0010
     21  C         16.1820  -23.7690  -10.0450 C.2     1  UNL1        0.0000
     22  C         16.5800  -22.4720   -9.7290 C.2     1  UNL1        0.0010
     23  C         16.3170  -21.9480   -8.4600 C.2     1  UNL1        0.0090
     24  C         22.2980  -22.2930  -11.1360 C.2     1  UNL1        0.0350
     25  C         21.8020  -21.6520  -12.2800 C.2     1  UNL1        0.0310
     26  C         22.5840  -21.5450  -13.4330 C.2     1  UNL1        0.0270
     27  C         23.8730  -22.0800  -13.4410 C.2     1  UNL1        0.0800
     28  C         24.3650  -22.7570  -12.3240 C.2     1  UNL1        0.0270
     29  C         23.5780  -22.8520  -11.1710 C.2     1  UNL1        0.0310
     30  S         24.8870  -21.9080  -14.8940 S.O2    1  UNL1        0.2630
     31  O         24.1020  -21.2020  -15.8860 O.2     1  UNL1       -0.2000
     32  O         25.4850  -23.1930  -15.1840 O.2     1  UNL1       -0.2000
     33  N         26.0860  -20.8220  -14.3900 N.pl3   1  UNL1       -0.2810
     34  H         26.8660  -21.3080  -13.9560 H       1  UNL1        0.1790
     35  C         26.3860  -19.7080  -15.2250 C.2     1  UNL1        0.0420
     36  C         26.5880  -19.9100  -16.5920 C.2     1  UNL1        0.0310
     37  C         26.8050  -18.8150  -17.4320 C.2     1  UNL1        0.0210
     38  C         26.8270  -17.5280  -16.8980 C.2     1  UNL1        0.0110
     39 BR         27.1130  -16.0460  -18.0370 Br      1  UNL1       -0.0510
     40  C         26.6320  -17.3230  -15.5340 C.2     1  UNL1        0.0210
     41  C         26.4050  -18.4180  -14.6970 C.2     1  UNL1        0.0310
@<TRIPOS>BOND
     1    39    38    1
     2    37    38    2
     3    37    36    1
     4    38    40    1
     5    36    35    2
     6    31    30    2
     7    40    41    2
     8    35    41    1
     9    35    33    1
    10    32    30    2
    11    30    33    1
    12    30    27    1
    13    33    34    1
    14    27    26    2
    15    27    28    1
    16    26    25    1
    17    28    29    2
    18    25    24    2
    19    29    24    1
    20    24     3    1
    21    21    22    2
    22    21    20    1
    23     3     4    1
    24     3     2   am
    25    22    23    1
    26     1     2    2
    27     2     5    1
    28    20    19    2
    29    23    18    2
    30     5     6    2
    31     5    10    1
    32    19    18    1
    33     6     7    1
    34    18    17    1
    35    10     9    2
    36     7     8    2
    37     9     8    1
    38    17    16    1
    39     8    11    1
    40    16    11    1
    41    16    14   am
    42    11    12    1
    43    15    14    2
    44    14    13    1
    45    12    13    1
