@<TRIPOS>MOLECULE
39274_out_ligand_01.pdbqt
 33 36 0 0 0
SMALL
GASTEIGER

@<TRIPOS>ATOM
      1  C         21.4830  -22.2430   -7.6120 C.2     1  UNL1        0.0790
      2  C         21.8910  -21.0680   -6.9820 C.2     1  UNL1        0.0380
      3  C         21.0230  -20.4350   -6.0910 C.2     1  UNL1        0.0150
      4  C         19.7600  -20.9840   -5.8420 C.2     1  UNL1       -0.0170
      5  C         19.3430  -22.1370   -6.5160 C.2     1  UNL1        0.0150
      6  C         20.2110  -22.7720   -7.4060 C.2     1  UNL1        0.0380
      7  C         18.8710  -20.2660   -4.9090 C.2     1  UNL1        0.1500
      8  N         18.1240  -20.7490   -3.9590 N.2     1  UNL1       -0.1760
      9  N         18.2320  -22.2020   -3.7050 N.pl3   1  UNL1       -0.2000
     10  H         18.8770  -22.5010   -2.9700 H       1  UNL1        0.2020
     11  S         16.8250  -23.1610   -3.7130 S.O2    1  UNL1        0.2770
     12  O         15.7690  -22.3430   -3.1530 O.2     1  UNL1       -0.1990
     13  O         17.1490  -24.4570   -3.1540 O.2     1  UNL1       -0.1990
     14  C         16.4880  -23.3710   -5.4470 C.2     1  UNL1        0.0810
     15  C         15.7510  -22.3980   -6.1320 C.2     1  UNL1        0.0280
     16  C         15.4600  -22.5850   -7.4840 C.2     1  UNL1        0.0440
     17  C         15.8950  -23.7400   -8.1280 C.2     1  UNL1        0.1160
     18  F         15.6130  -23.9160   -9.4250 F       1  UNL1       -0.2060
     19  C         16.6150  -24.7180   -7.4460 C.2     1  UNL1        0.0440
     20  C         16.9090  -24.5390   -6.0940 C.2     1  UNL1        0.0280
     21  O         22.3260  -22.8680   -8.5310 O.3     1  UNL1       -0.2750
     22  C         21.6360  -23.6120   -9.4720 C.2     1  UNL1        0.2990
     23  O         21.2850  -24.7770   -9.3950 O.2     1  UNL1       -0.2590
     24  C         21.4100  -22.7410  -10.6530 C.2     1  UNL1        0.0510
     25  C         22.5090  -22.4720  -11.4850 C.2     1  UNL1        0.0180
     26  C         22.3580  -21.6520  -12.5960 C.2     1  UNL1        0.0020
     27  C         21.1120  -21.0960  -12.8800 C.2     1  UNL1        0.0120
     28  C         20.0000  -21.3480  -12.0590 C.2     1  UNL1       -0.0250
     29  C         18.7560  -20.7740  -12.3700 C.2     1  UNL1        0.0120
     30  C         20.1320  -22.1800  -10.9190 C.2     1  UNL1       -0.0100
     31  C         17.6350  -21.0110  -11.5760 C.2     1  UNL1        0.0010
     32  C         17.7440  -21.8250  -10.4570 C.2     1  UNL1        0.0010
     33  C         18.9740  -22.4030  -10.1330 C.2     1  UNL1        0.0130
@<TRIPOS>BOND
     1    27    26    2
     2    27    28    1
     3    26    25    1
     4    29    28    2
     5    29    31    1
     6    28    30    1
     7    31    32    2
     8    25    24    2
     9    30    24    1
    10    30    33    2
    11    24    22    1
    12    32    33    1
    13    22    23    2
    14    22    21    1
    15    18    17    1
    16    21     1    1
    17    17    16    2
    18    17    19    1
    19     1     6    2
    20     1     2    1
    21    16    15    1
    22    19    20    2
    23     6     5    1
    24     2     3    2
    25     5     4    2
    26    15    14    2
    27    20    14    1
    28     3     4    1
    29     4     7    1
    30    14    11    1
    31     7     8    2
    32     8     9    1
    33    11     9    1
    34    11    13    2
    35    11    12    2
    36     9    10    1
