@<TRIPOS>MOLECULE
39307_out_ligand_01.pdbqt
 40 44 0 0 0
SMALL
GASTEIGER

@<TRIPOS>ATOM
      1  C         21.4020  -22.4320   -8.1890 C.2     1  UNL1        0.0320
      2  C         22.3160  -21.4320   -8.5480 C.2     1  UNL1        0.0180
      3  C         23.3660  -21.7300   -9.4220 C.2     1  UNL1        0.0180
      4  C         23.5210  -23.0270   -9.9300 C.2     1  UNL1        0.0320
      5  C         22.6040  -24.0260   -9.5730 C.2     1  UNL1        0.0180
      6  C         21.5560  -23.7300   -8.6960 C.2     1  UNL1        0.0180
      7  C         20.2750  -22.1620   -7.2530 C.2     1  UNL1        0.2560
      8  O         20.4030  -21.2560   -6.4390 O.2     1  UNL1       -0.2670
      9  N         19.1910  -23.0010   -7.3990 N.am    1  UNL1       -0.3210
     10  H         19.2730  -23.7800   -8.0420 H       1  UNL1        0.1690
     11  C         17.9630  -22.9630   -6.6990 C.2     1  UNL1        0.0690
     12  C         17.8310  -22.5460   -5.3750 C.2     1  UNL1        0.0320
     13  C         16.5730  -22.5340   -4.7600 C.2     1  UNL1        0.0020
     14  C         15.4360  -22.9380   -5.4610 C.2     1  UNL1        0.0030
     15  C         15.5510  -23.3520   -6.7850 C.2     1  UNL1        0.0390
     16  C         16.8060  -23.3470   -7.4010 C.2     1  UNL1        0.1020
     17  O         16.9340  -23.7890   -8.7010 O.2     1  UNL1       -0.3090
     18  C         17.2570  -22.8490   -9.6570 C.2     1  UNL1        0.0760
     19  C         16.4790  -21.7240   -9.9450 C.2     1  UNL1        0.0370
     20  C         16.9150  -20.8060  -10.9050 C.2     1  UNL1        0.0030
     21  C         18.1290  -21.0050  -11.5670 C.2     1  UNL1        0.0000
     22  C         18.9110  -22.1180  -11.2670 C.2     1  UNL1        0.0030
     23  C         18.4780  -23.0370  -10.3090 C.2     1  UNL1        0.0370
     24  C         24.6580  -23.2890  -10.8610 C.2     1  UNL1        0.2560
     25  O         25.7830  -23.3900  -10.3860 O.2     1  UNL1       -0.2670
     26  N         24.3060  -23.4220  -12.1870 N.am    1  UNL1       -0.3210
     27  H         23.3190  -23.4240  -12.4190 H       1  UNL1        0.1690
     28  C         25.1560  -23.6200  -13.2990 C.2     1  UNL1        0.0690
     29  C         25.7790  -24.8330  -13.5940 C.2     1  UNL1        0.0320
     30  C         26.5990  -24.9530  -14.7240 C.2     1  UNL1        0.0020
     31  C         26.8000  -23.8640  -15.5720 C.2     1  UNL1        0.0030
     32  C         26.1920  -22.6450  -15.2880 C.2     1  UNL1        0.0390
     33  C         25.3940  -22.5230  -14.1470 C.2     1  UNL1        0.1020
     34  O         24.7890  -21.3070  -13.9170 O.2     1  UNL1       -0.3090
     35  C         25.5650  -20.2790  -13.4190 C.2     1  UNL1        0.0760
     36  C         25.7410  -20.2940  -12.0330 C.2     1  UNL1        0.0370
     37  C         26.5180  -19.3180  -11.4090 C.2     1  UNL1        0.0030
     38  C         27.1210  -18.3180  -12.1710 C.2     1  UNL1        0.0000
     39  C         26.9430  -18.2940  -13.5530 C.2     1  UNL1        0.0030
     40  C         26.1640  -19.2710  -14.1790 C.2     1  UNL1        0.0370
@<TRIPOS>BOND
     1    31    32    2
     2    31    30    1
     3    32    33    1
     4    30    29    2
     5    40    39    1
     6    40    35    2
     7    33    34    1
     8    33    28    2
     9    34    35    1
    10    29    28    1
    11    39    38    2
    12    35    36    1
    13    28    26    1
    14    27    26    1
    15    26    24   am
    16    38    37    1
    17    36    37    2
    18    21    22    2
    19    21    20    1
    20    22    23    1
    21    20    19    2
    22    24    25    2
    23    24     4    1
    24    23    18    2
    25    19    18    1
    26     4     5    2
    27     4     3    1
    28    18    17    1
    29     5     6    1
    30     3     2    2
    31    17    16    1
    32     6     1    2
    33     2     1    1
    34     1     7    1
    35    10     9    1
    36    16    15    1
    37    16    11    2
    38     9     7   am
    39     9    11    1
    40     7     8    2
    41    15    14    2
    42    11    12    1
    43    14    13    1
    44    12    13    2
