@<TRIPOS>MOLECULE
39333_out_ligand_01.pdbqt
 37 40 0 0 0
SMALL
GASTEIGER

@<TRIPOS>ATOM
      1  C         22.2200  -23.5130   -9.5720 C.2     1  UNL1        0.0340
      2  C         21.4770  -22.4470  -10.1010 C.2     1  UNL1        0.0310
      3  C         20.1210  -22.3030   -9.7970 C.2     1  UNL1        0.0270
      4  C         19.5010  -23.2390   -8.9690 C.2     1  UNL1        0.0750
      5  C         20.2140  -24.3300   -8.4710 C.2     1  UNL1        0.0270
      6  C         21.5720  -24.4640   -8.7780 C.2     1  UNL1        0.0310
      7  N         23.5780  -23.5950   -9.9450 N.am    1  UNL1       -0.3330
      8  H         24.0620  -24.4260   -9.6240 H       1  UNL1        0.1680
      9  C         24.3030  -22.8930  -10.8740 C.2     1  UNL1        0.1760
     10  S         25.1010  -21.4360  -10.6610 S.2     1  UNL1       -0.0410
     11  N         24.2710  -23.3820  -12.1570 N.am    1  UNL1       -0.3330
     12  H         23.8860  -24.3220  -12.1990 H       1  UNL1        0.1680
     13  C         24.5700  -22.7850  -13.3980 C.2     1  UNL1        0.0340
     14  C         25.6530  -23.1550  -14.2050 C.2     1  UNL1        0.0310
     15  C         25.8900  -22.4990  -15.4170 C.2     1  UNL1        0.0270
     16  C         25.0550  -21.4540  -15.8140 C.2     1  UNL1        0.0740
     17  C         23.9820  -21.0620  -15.0140 C.2     1  UNL1        0.0270
     18  C         23.7530  -21.7220  -13.8040 C.2     1  UNL1        0.0310
     19  S         25.3560  -20.6380  -17.3600 S.O2    1  UNL1        0.2390
     20  O         26.5890  -21.1470  -17.9080 O.2     1  UNL1       -0.2060
     21  O         24.1210  -20.6100  -18.1080 O.2     1  UNL1       -0.2060
     22  N         25.6210  -19.0530  -16.8590 N.3     1  UNL1       -0.2250
     23  H         25.9980  -18.4500  -17.5910 H       1  UNL1        0.1360
     24  H         26.2120  -19.0610  -16.0260 H       1  UNL1        0.1360
     25  S         17.7700  -23.0420   -8.5850 S.O2    1  UNL1        0.2480
     26  O         17.2780  -24.3210   -8.1110 O.2     1  UNL1       -0.2050
     27  O         17.1910  -22.4080   -9.7510 O.2     1  UNL1       -0.2050
     28  N         17.8110  -21.9460   -7.2280 N.pl3   1  UNL1       -0.1720
     29  C         19.2080  -21.7790   -6.7050 C.3     1  UNL1        0.1140
     30  C         19.2270  -21.0300   -5.3860 C.3     1  UNL1        0.0200
     31  C         18.4670  -21.8410   -4.3550 C.3     1  UNL1        0.0420
     32  C         17.0720  -22.1160   -4.8440 C.2     1  UNL1       -0.0360
     33  C         16.0650  -22.3300   -3.8860 C.2     1  UNL1        0.0090
     34  C         16.7710  -22.1770   -6.2190 C.2     1  UNL1        0.0310
     35  C         14.7460  -22.5300   -4.2780 C.2     1  UNL1        0.0010
     36  C         14.4220  -22.4990   -5.6270 C.2     1  UNL1        0.0020
     37  C         15.4250  -22.3060   -6.5850 C.2     1  UNL1        0.0250
@<TRIPOS>BOND
     1    21    19    2
     2    20    19    2
     3    23    22    1
     4    19    22    1
     5    19    16    1
     6    22    24    1
     7    16    15    2
     8    16    17    1
     9    15    14    1
    10    17    18    2
    11    14    13    2
    12    18    13    1
    13    13    11    1
    14    12    11    1
    15    11     9    1
    16     9    10    2
    17     9     7    1
    18     2     3    1
    19     2     1    2
    20     7     8    1
    21     7     1    1
    22     3     4    2
    23    27    25    2
    24     1     6    1
    25     4    25    1
    26     4     5    1
    27     6     5    2
    28    25    26    2
    29    25    28    1
    30    28    29    1
    31    28    34    1
    32    29    30    1
    33    37    34    1
    34    37    36    2
    35    34    32    2
    36    36    35    1
    37    30    31    1
    38    32    31    1
    39    32    33    1
    40    35    33    2
