@<TRIPOS>MOLECULE
39354_out_ligand_01.pdbqt
 33 35 0 0 0
SMALL
GASTEIGER

@<TRIPOS>ATOM
      1  C         18.8460  -23.0640   -9.9370 C.2     1  UNL1        0.0340
      2  C         19.6050  -23.8990   -9.1120 C.2     1  UNL1        0.0310
      3  C         20.9990  -23.7930   -9.0820 C.2     1  UNL1        0.0270
      4  C         21.6380  -22.8390   -9.8770 C.2     1  UNL1        0.0800
      5  C         20.8930  -21.9700  -10.6740 C.2     1  UNL1        0.0270
      6  C         19.5000  -22.0830  -10.6960 C.2     1  UNL1        0.0310
      7  N         17.4390  -23.0940  -10.0110 N.am    1  UNL1       -0.3330
      8  H         17.0430  -23.0080  -10.9430 H       1  UNL1        0.1680
      9  C         16.4720  -23.1130   -9.0350 C.2     1  UNL1        0.1760
     10  S         15.3450  -24.3470   -9.1400 S.2     1  UNL1       -0.0410
     11  N         16.6210  -22.1940   -8.0280 N.am    1  UNL1       -0.3330
     12  H         17.1580  -21.3920   -8.3240 H       1  UNL1        0.1680
     13  C         16.3810  -22.2880   -6.6350 C.2     1  UNL1        0.0400
     14  C         15.0900  -22.4840   -6.1300 C.2     1  UNL1        0.0300
     15  C         14.8560  -22.5170   -4.7570 C.2     1  UNL1        0.0030
     16  C         15.9070  -22.3330   -3.8680 C.2     1  UNL1        0.0070
     17  C         17.2100  -22.1060   -4.3360 C.2     1  UNL1       -0.0540
     18  C         18.3020  -21.8980   -3.3200 C.3     1  UNL1        0.0490
     19  C         17.4590  -22.0890   -5.7320 C.2     1  UNL1       -0.0290
     20  C         18.8570  -21.8590   -6.2560 C.3     1  UNL1        0.0510
     21  S         23.4060  -22.6990   -9.8220 S.O2    1  UNL1        0.2630
     22  O         23.8950  -23.7450   -8.9510 O.2     1  UNL1       -0.2000
     23  O         23.7600  -21.3140   -9.6070 O.2     1  UNL1       -0.2000
     24  N         23.8570  -23.1520  -11.3920 N.pl3   1  UNL1       -0.2810
     25  H         24.3340  -24.0550  -11.3690 H       1  UNL1        0.1790
     26  C         24.3920  -22.1450  -12.2420 C.2     1  UNL1        0.0440
     27  C         23.8730  -21.9790  -13.5250 C.2     1  UNL1        0.0320
     28  C         24.3630  -20.9610  -14.3460 C.2     1  UNL1        0.0280
     29  C         25.3680  -20.1060  -13.8820 C.2     1  UNL1        0.0550
     30 CL         25.9300  -18.8720  -14.9510 Cl      1  UNL1       -0.0830
     31  C         25.8780  -20.2710  -12.5890 C.2     1  UNL1        0.0580
     32 CL         27.1160  -19.2500  -11.9460 Cl      1  UNL1       -0.0820
     33  C         25.3860  -21.2910  -11.7670 C.2     1  UNL1        0.0550
@<TRIPOS>BOND
     1    30    29    1
     2    28    29    2
     3    28    27    1
     4    29    31    1
     5    27    26    2
     6    31    32    1
     7    31    33    2
     8    26    33    1
     9    26    24    1
    10    24    25    1
    11    24    21    1
    12     8     7    1
    13     6     5    1
    14     6     1    2
    15     5     4    2
    16     7     1    1
    17     7     9    1
    18     1     2    1
    19     4    21    1
    20     4     3    1
    21    21    23    2
    22    21    22    2
    23    10     9    2
    24     2     3    2
    25     9    11    1
    26    12    11    1
    27    11    13    1
    28    13    14    2
    29    13    19    1
    30    20    19    1
    31    14    15    1
    32    19    17    2
    33    15    16    2
    34    17    16    1
    35    17    18    1
