@<TRIPOS>MOLECULE
39379_out_ligand_01.pdbqt
 31 35 0 0 0
SMALL
GASTEIGER

@<TRIPOS>ATOM
      1  C         23.0010  -21.6680  -12.8310 C.2     1  UNL1        0.0350
      2  C         23.8570  -21.9650  -11.7600 C.2     1  UNL1        0.0310
      3  C         23.3420  -22.3160  -10.5090 C.2     1  UNL1        0.0270
      4  C         21.9590  -22.3800  -10.3280 C.2     1  UNL1        0.0790
      5  C         21.0950  -22.0670  -11.3770 C.2     1  UNL1        0.0270
      6  C         21.6190  -21.7210  -12.6290 C.2     1  UNL1        0.0310
      7  S         21.3130  -22.8070   -8.7330 S.O2    1  UNL1        0.2590
      8  O         21.9270  -21.9610   -7.7360 O.2     1  UNL1       -0.2010
      9  O         21.3730  -24.2500   -8.6290 O.2     1  UNL1       -0.2010
     10  N         19.6910  -22.4370   -8.8480 N.3     1  UNL1       -0.3050
     11  H         19.4810  -21.7800   -9.5970 H       1  UNL1        0.1730
     12  C         18.6000  -22.8500   -7.9510 C.3     1  UNL1        0.0410
     13  C         17.2710  -22.5640   -8.7020 C.3     1  UNL1        0.0360
     14  C         16.0590  -22.8980   -7.8180 C.3     1  UNL1       -0.0120
     15  C         16.1140  -22.0400   -6.5440 C.3     1  UNL1        0.0090
     16  C         16.1110  -24.3850   -7.4330 C.3     1  UNL1        0.0090
     17  C         17.4130  -22.3240   -5.7750 C.3     1  UNL1       -0.0120
     18  C         17.4640  -23.8150   -5.3990 C.3     1  UNL1        0.0090
     19  C         18.6200  -21.9870   -6.6700 C.3     1  UNL1        0.0360
     20  C         17.4110  -24.6820   -6.6700 C.3     1  UNL1       -0.0120
     21  C         18.6170  -24.3400   -7.5660 C.3     1  UNL1        0.0360
     22  N         23.6070  -21.3350  -14.0600 N.am    1  UNL1       -0.3230
     23  C         24.5320  -22.0730  -14.7760 C.2     1  UNL1        0.2580
     24  O         24.9250  -23.1970  -14.4900 O.2     1  UNL1       -0.2670
     25  H         23.2670  -20.4950  -14.5050 H       1  UNL1        0.1690
     26  C         25.0010  -21.4210  -15.9960 C.2     1  UNL1        0.0630
     27  C         25.6100  -20.1310  -16.0750 C.2     1  UNL1        0.0440
     28  C         25.8910  -19.9030  -17.3980 C.2     1  UNL1        0.1430
     29  O         25.4780  -20.9490  -18.1530 O.2     1  UNL1       -0.3260
     30  C         24.9140  -21.8620  -17.3100 C.2     1  UNL1        0.0640
     31  C         24.3310  -23.0480  -17.9750 C.3     1  UNL1        0.0770
@<TRIPOS>BOND
     1    29    28    1
     2    29    30    1
     3    31    30    1
     4    28    27    2
     5    30    26    2
     6    27    26    1
     7    26    23    1
     8    23    24    2
     9    23    22   am
    10    25    22    1
    11    22     1    1
    12     1     6    2
    13     1     2    1
    14     6     5    1
    15     2     3    2
    16     5     4    2
    17     3     4    1
    18     4     7    1
    19    11    10    1
    20    10     7    1
    21    10    12    1
    22     7     9    2
    23     7     8    2
    24    13    12    1
    25    13    14    1
    26    12    21    1
    27    12    19    1
    28    14    16    1
    29    14    15    1
    30    21    20    1
    31    16    20    1
    32    19    17    1
    33    20    18    1
    34    15    17    1
    35    17    18    1
