@<TRIPOS>MOLECULE
39370_out_ligand_01.pdbqt
 30 34 0 0 0
SMALL
GASTEIGER

@<TRIPOS>ATOM
      1  C         23.0670  -21.8680  -13.0800 C.2     1  UNL1        0.0350
      2  C         23.8420  -22.5970  -12.1680 C.2     1  UNL1        0.0310
      3  C         23.3490  -22.9060  -10.8970 C.2     1  UNL1        0.0270
      4  C         22.0650  -22.4900  -10.5390 C.2     1  UNL1        0.0790
      5  C         21.2910  -21.7420  -11.4280 C.2     1  UNL1        0.0270
      6  C         21.7920  -21.4410  -12.6990 C.2     1  UNL1        0.0310
      7  S         21.4510  -22.8740   -8.9210 S.O2    1  UNL1        0.2590
      8  O         21.5190  -24.3140   -8.7780 O.2     1  UNL1       -0.2010
      9  O         22.0820  -22.0000   -7.9590 O.2     1  UNL1       -0.2010
     10  N         19.8260  -22.5140   -9.0120 N.3     1  UNL1       -0.3050
     11  H         19.6010  -21.8610   -9.7610 H       1  UNL1        0.1730
     12  C         18.7550  -22.9080   -8.0820 C.3     1  UNL1        0.0410
     13  C         17.4110  -22.5780   -8.7850 C.3     1  UNL1        0.0360
     14  C         16.2200  -22.8910   -7.8650 C.3     1  UNL1       -0.0120
     15  C         16.3400  -22.0510   -6.5820 C.3     1  UNL1        0.0090
     16  C         16.2450  -24.3830   -7.5000 C.3     1  UNL1        0.0090
     17  C         17.6570  -22.3810   -5.8610 C.3     1  UNL1       -0.0120
     18  C         17.6810  -23.8780   -5.5070 C.3     1  UNL1        0.0090
     19  C         18.8420  -22.0640   -6.7930 C.3     1  UNL1        0.0360
     20  C         17.5620  -24.7250   -6.7850 C.3     1  UNL1       -0.0120
     21  C         18.7450  -24.4050   -7.7180 C.3     1  UNL1        0.0360
     22  N         23.6400  -21.6060  -14.3380 N.am    1  UNL1       -0.3210
     23  C         24.5260  -20.6020  -14.6900 C.2     1  UNL1        0.2790
     24  O         24.9620  -19.7400  -13.9350 O.2     1  UNL1       -0.2650
     25  H         23.3820  -22.2220  -15.1020 H       1  UNL1        0.1690
     26  C         24.9030  -20.6620  -16.0920 C.2     1  UNL1        0.1420
     27  C         25.7750  -19.8880  -16.8330 C.2     1  UNL1        0.0450
     28  C         25.7530  -20.3970  -18.1530 C.2     1  UNL1        0.0270
     29  C         24.8700  -21.4500  -18.1420 C.2     1  UNL1        0.1430
     30  O         24.3470  -21.6220  -16.9010 O.2     1  UNL1       -0.3170
@<TRIPOS>BOND
     1    28    29    2
     2    28    27    1
     3    29    30    1
     4    30    26    1
     5    27    26    2
     6    26    23    1
     7    25    22    1
     8    23    22   am
     9    23    24    2
    10    22     1    1
    11     1     6    2
    12     1     2    1
    13     6     5    1
    14     2     3    2
    15     5     4    2
    16     3     4    1
    17     4     7    1
    18    11    10    1
    19    10     7    1
    20    10    12    1
    21     7     8    2
    22     7     9    2
    23    13    12    1
    24    13    14    1
    25    12    21    1
    26    12    19    1
    27    14    16    1
    28    14    15    1
    29    21    20    1
    30    16    20    1
    31    19    17    1
    32    20    18    1
    33    15    17    1
    34    17    18    1
