@<TRIPOS>MOLECULE
39386_out_ligand_01.pdbqt
 30 33 0 0 0
SMALL
GASTEIGER

@<TRIPOS>ATOM
      1  C         19.2450  -21.5160  -10.8240 C.3     1  UNL1        0.0490
      2  C         20.6760  -21.8910  -11.1010 C.2     1  UNL1       -0.0460
      3  C         21.2500  -21.4940  -12.3220 C.2     1  UNL1        0.0090
      4  C         22.5840  -21.7880  -12.6130 C.2     1  UNL1        0.0250
      5  C         23.3570  -22.4880  -11.6830 C.2     1  UNL1        0.0750
      6  C         22.8110  -22.8970  -10.4670 C.2     1  UNL1        0.0420
      7  C         21.4650  -22.6240  -10.1920 C.2     1  UNL1        0.0390
      8  C         20.9380  -23.1350   -8.9020 C.2     1  UNL1        0.2520
      9  O         21.4170  -22.7450   -7.8450 O.2     1  UNL1       -0.2680
     10  N         19.9400  -24.0760   -9.0100 N.am    1  UNL1       -0.3560
     11  H         19.5520  -24.2630   -9.9250 H       1  UNL1        0.1620
     12  C         19.2110  -24.5200   -7.8380 C.3     1  UNL1        0.1370
     13  C         17.9940  -23.6030   -7.6350 C.3     1  UNL1        0.0030
     14  C         16.6400  -24.4070   -7.6800 C.3     1  UNL1        0.0160
     15  C         16.0530  -23.2560   -8.5170 C.3     1  UNL1        0.0020
     16  C         17.4900  -22.9360   -8.9660 C.3     1  UNL1        0.0160
     17  C         18.1960  -22.6670   -6.3200 C.2     1  UNL1       -0.0480
     18  C         18.9400  -21.4680   -6.3370 C.2     1  UNL1        0.0080
     19  C         19.1200  -20.6870   -5.1900 C.2     1  UNL1        0.0010
     20  C         18.5600  -21.0840   -3.9820 C.2     1  UNL1        0.0000
     21  C         17.8210  -22.2590   -3.9220 C.2     1  UNL1        0.0010
     22  C         17.6450  -23.0330   -5.0720 C.2     1  UNL1        0.0080
     23  S         25.0600  -22.8240  -12.0470 S.O2    1  UNL1        0.2410
     24  O         25.7400  -23.1440  -10.8100 O.2     1  UNL1       -0.2060
     25  O         25.5360  -21.7910  -12.9400 O.2     1  UNL1       -0.2060
     26  N         24.9140  -24.2950  -12.8950 N.3     1  UNL1       -0.2110
     27  H         25.4310  -25.0030  -12.3670 H       1  UNL1        0.1400
     28  C         25.3460  -24.2340  -14.3010 C.3     1  UNL1        0.0710
     29  C         26.6170  -24.8890  -14.7580 C.3     1  UNL1        0.0220
     30  C         25.2890  -25.4630  -15.1650 C.3     1  UNL1        0.0220
@<TRIPOS>BOND
     1    30    29    1
     2    30    28    1
     3    29    28    1
     4    28    26    1
     5    25    23    2
     6    26    27    1
     7    26    23    1
     8     4     3    1
     9     4     5    2
    10     3     2    2
    11    23     5    1
    12    23    24    2
    13     5     6    1
    14     2     1    1
    15     2     7    1
    16     6     7    2
    17     7     8    1
    18    11    10    1
    19    10     8   am
    20    10    12    1
    21    16    15    1
    22    16    13    1
    23     8     9    2
    24    15    14    1
    25    12    13    1
    26    14    13    1
    27    13    17    1
    28    18    17    2
    29    18    19    1
    30    17    22    1
    31    19    20    2
    32    22    21    2
    33    20    21    1
