@<TRIPOS>MOLECULE
39384_out_ligand_01.pdbqt
 27 30 0 0 0
SMALL
GASTEIGER

@<TRIPOS>ATOM
      1  C         20.0340  -21.9570  -11.0700 C.2     1  UNL1        0.0320
      2  C         18.8870  -21.6090  -11.7950 C.2     1  UNL1        0.0180
      3  C         17.6220  -21.7770  -11.2210 C.2     1  UNL1        0.0190
      4  C         17.4990  -22.2730   -9.9170 C.2     1  UNL1        0.0450
      5  C         18.6440  -22.5950   -9.1780 C.2     1  UNL1       -0.0380
      6  C         19.9100  -22.4420   -9.7600 C.2     1  UNL1        0.0250
      7  C         18.4810  -23.1380   -7.7870 C.3     1  UNL1        0.0770
      8  C         17.2260  -22.5160   -7.1710 C.3     1  UNL1        0.1690
      9  O         16.0890  -22.7920   -8.0220 O.3     1  UNL1       -0.3070
     10  C         16.1450  -22.4830   -9.3400 C.2     1  UNL1        0.2940
     11  O         15.1420  -22.4070  -10.0380 O.2     1  UNL1       -0.2590
     12  C         21.4030  -21.7990  -11.6370 C.2     1  UNL1        0.2560
     13  N         22.4200  -22.3480  -10.8770 N.am    1  UNL1       -0.3200
     14  H         22.2030  -22.7330   -9.9670 H       1  UNL1        0.1690
     15  O         21.5250  -21.1840  -12.6910 O.2     1  UNL1       -0.2670
     16  C         23.7580  -22.3420  -11.2240 C.2     1  UNL1        0.0710
     17  C         24.4170  -23.1290  -12.1370 C.2     1  UNL1        0.1420
     18  N         25.7230  -22.7380  -12.1110 N.pl3   1  UNL1       -0.2830
     19  C         26.8040  -23.2740  -12.9020 C.3     1  UNL1        0.1790
     20  N         25.9690  -21.7460  -11.2330 N.2     1  UNL1       -0.1830
     21  C         24.7700  -21.5070  -10.6950 C.2     1  UNL1        0.1690
     22  C         16.8700  -22.9820   -5.7680 C.2     1  UNL1       -0.0290
     23  C         15.5520  -23.4070   -5.5150 C.2     1  UNL1        0.0100
     24  C         15.1590  -23.8280   -4.2440 C.2     1  UNL1        0.0010
     25  C         16.0760  -23.8300   -3.1980 C.2     1  UNL1        0.0000
     26  C         17.3840  -23.4120   -3.4250 C.2     1  UNL1        0.0010
     27  C         17.7790  -22.9900   -4.6980 C.2     1  UNL1        0.0100
@<TRIPOS>BOND
     1    19    18    1
     2    15    12    2
     3    17    18    1
     4    17    16    2
     5    18    20    1
     6     2     3    1
     7     2     1    2
     8    12     1    1
     9    12    13   am
    10    20    21    2
    11    16    13    1
    12    16    21    1
    13     3     4    2
    14     1     6    1
    15    13    14    1
    16    11    10    2
    17     4    10    1
    18     4     5    1
    19     6     5    2
    20    10     9    1
    21     5     7    1
    22     9     8    1
    23     7     8    1
    24     8    22    1
    25    22    23    2
    26    22    27    1
    27    23    24    1
    28    27    26    2
    29    24    25    2
    30    26    25    1
