@<TRIPOS>MOLECULE
39394_out_ligand_01.pdbqt
 30 33 0 0 0
SMALL
GASTEIGER

@<TRIPOS>ATOM
      1  C         20.8720  -23.0020  -10.2470 C.2     1  UNL1        0.2560
      2  O         21.1740  -23.9020   -9.4720 O.2     1  UNL1       -0.2670
      3  N         19.6900  -22.2830  -10.2690 N.am    1  UNL1       -0.3230
      4  H         19.6530  -21.4800  -10.8820 H       1  UNL1        0.1690
      5  C         21.8810  -22.5830  -11.2620 C.2     1  UNL1        0.0320
      6  C         21.4750  -21.7180  -12.2890 C.2     1  UNL1        0.0180
      7  C         22.3860  -21.2980  -13.2600 C.2     1  UNL1        0.0260
      8  C         23.7080  -21.7460  -13.1990 C.2     1  UNL1        0.0790
      9  C         24.1330  -22.5850  -12.1620 C.2     1  UNL1        0.0260
     10  C         23.2180  -23.0020  -11.1920 C.2     1  UNL1        0.0180
     11  S         24.8850  -21.2020  -14.4120 S.O2    1  UNL1        0.2580
     12  O         24.8800  -19.7570  -14.4620 O.2     1  UNL1       -0.2010
     13  O         26.1000  -21.9580  -14.2120 O.2     1  UNL1       -0.2010
     14  N         24.2020  -21.7810  -15.8350 N.3     1  UNL1       -0.3160
     15  H         23.2260  -21.5010  -15.9260 H       1  UNL1        0.1720
     16  C         24.5790  -23.1210  -16.2890 C.3     1  UNL1        0.1280
     17  C         23.9810  -23.3630  -17.6630 C.3     1  UNL1        0.0270
     18  C         18.5480  -22.4810   -9.4610 C.2     1  UNL1        0.0350
     19  C         17.2940  -22.8650   -9.9680 C.2     1  UNL1        0.0300
     20  C         16.1900  -23.0410   -9.1230 C.2     1  UNL1        0.0100
     21  C         16.3640  -22.8240   -7.7690 C.2     1  UNL1       -0.0430
     22  C         17.6120  -22.4340   -7.2440 C.2     1  UNL1       -0.0170
     23  C         15.3390  -22.9450   -6.6610 C.2     1  UNL1        0.0780
     24  C         18.7040  -22.2600   -8.0820 C.3     1  UNL1        0.0420
     25  C         17.4860  -22.2820   -5.8090 C.2     1  UNL1       -0.0190
     26  C         18.4170  -21.9190   -4.8510 C.2     1  UNL1        0.0130
     27  C         16.1560  -22.5770   -5.4380 C.2     1  UNL1       -0.0430
     28  C         18.0060  -21.8530   -3.5160 C.2     1  UNL1        0.0010
     29  C         16.6810  -22.1480   -3.1540 C.2     1  UNL1        0.0010
     30  C         15.7410  -22.5140   -4.1190 C.2     1  UNL1        0.0080
@<TRIPOS>BOND
     1    17    16    1
     2    16    14    1
     3    15    14    1
     4    14    11    1
     5    12    11    2
     6    11    13    2
     7    11     8    1
     8     7     8    2
     9     7     6    1
    10     8     9    1
    11     6     5    2
    12     9    10    2
    13     5    10    1
    14     5     1    1
    15     4     3    1
    16     3     1   am
    17     3    18    1
    18     1     2    2
    19    19    18    2
    20    19    20    1
    21    18    24    1
    22    20    21    2
    23    24    22    1
    24    21    22    1
    25    21    23    1
    26    22    25    2
    27    23    27    2
    28    25    27    1
    29    25    26    1
    30    27    30    1
    31    26    28    2
    32    30    29    2
    33    28    29    1
