@<TRIPOS>MOLECULE
39396_out_ligand_01.pdbqt
 30 33 0 0 0
SMALL
GASTEIGER

@<TRIPOS>ATOM
      1  C         24.0080  -22.5030  -12.2640 C.2     1  UNL1        0.2570
      2  O         24.2520  -23.6550  -11.9250 O.2     1  UNL1       -0.2670
      3  N         23.1210  -21.6230  -11.6770 N.am    1  UNL1       -0.3230
      4  H         23.0610  -20.6970  -12.0810 H       1  UNL1        0.1690
      5  C         24.7970  -21.9430  -13.3910 C.2     1  UNL1        0.0510
      6  C         25.8430  -21.0200  -13.2420 C.2     1  UNL1        0.0260
      7  C         26.5280  -20.5530  -14.3730 C.2     1  UNL1        0.0210
      8 BR         26.3710  -20.3000  -11.5660 Br      1  UNL1       -0.0500
      9  C         26.1690  -20.9900  -15.6500 C.2     1  UNL1        0.0260
     10  C         25.1110  -21.8890  -15.7950 C.2     1  UNL1        0.0750
     11  C         24.4280  -22.3710  -14.6760 C.2     1  UNL1        0.0430
     12  S         24.6450  -22.4640  -17.4020 S.O2    1  UNL1        0.2390
     13  O         23.4660  -23.2840  -17.2720 O.2     1  UNL1       -0.2060
     14  O         25.8270  -22.9050  -18.1060 O.2     1  UNL1       -0.2060
     15  N         24.1660  -21.0440  -18.1530 N.3     1  UNL1       -0.2250
     16  H         23.6940  -21.2520  -19.0340 H       1  UNL1        0.1360
     17  H         24.9610  -20.4120  -18.2520 H       1  UNL1        0.1360
     18  C         22.2610  -21.8700  -10.5860 C.2     1  UNL1        0.0350
     19  C         22.8550  -21.8990   -9.3040 C.2     1  UNL1        0.0300
     20  C         22.0980  -22.1350   -8.1510 C.2     1  UNL1        0.0100
     21  C         20.7410  -22.3410   -8.3020 C.2     1  UNL1       -0.0430
     22  C         20.1310  -22.3150   -9.5740 C.2     1  UNL1       -0.0170
     23  C         19.7060  -22.6130   -7.2280 C.2     1  UNL1        0.0780
     24  C         20.8830  -22.0810  -10.7160 C.2     1  UNL1        0.0420
     25  C         18.7130  -22.5610   -9.4140 C.3     1  UNL1       -0.0190
     26  C         17.6970  -22.6340  -10.3510 C.2     1  UNL1        0.0130
     27  C         18.4350  -22.7400   -8.0410 C.2     1  UNL1       -0.0430
     28  C         16.3960  -22.8880   -9.9030 C.2     1  UNL1        0.0010
     29  C         16.1260  -23.0650   -8.5360 C.2     1  UNL1        0.0010
     30  C         17.1500  -22.9920   -7.5890 C.2     1  UNL1        0.0080
@<TRIPOS>BOND
     1    16    15    1
     2    17    15    1
     3    15    12    1
     4    14    12    2
     5    12    13    2
     6    12    10    1
     7    10     9    2
     8    10    11    1
     9     9     7    1
    10    11     5    2
    11     7     6    2
    12     5     6    1
    13     5     1    1
    14     6     8    1
    15     1     2    2
    16     1     3   am
    17     4     3    1
    18     3    18    1
    19    24    18    2
    20    24    22    1
    21    18    19    1
    22    26    28    2
    23    26    25    1
    24    28    29    1
    25    22    25    1
    26    22    21    2
    27    25    27    1
    28    19    20    2
    29    29    30    2
    30    21    20    1
    31    21    23    1
    32    27    30    1
    33    27    23    2
