@<TRIPOS>MOLECULE
39405_out_ligand_01.pdbqt
 30 33 0 0 0
SMALL
GASTEIGER

@<TRIPOS>ATOM
      1  C         23.2530  -21.8700  -10.9940 C.2     1  UNL1        0.2560
      2  O         23.2840  -21.2070   -9.9650 O.2     1  UNL1       -0.2670
      3  N         22.1390  -22.2950  -11.6910 N.am    1  UNL1       -0.3230
      4  H         22.2980  -22.7270  -12.5920 H       1  UNL1        0.1690
      5  C         24.5520  -22.2560  -11.6060 C.2     1  UNL1        0.0330
      6  C         25.7730  -21.9070  -11.0110 C.2     1  UNL1        0.0170
      7  C         26.9780  -22.2650  -11.6220 C.2     1  UNL1        0.0030
      8  C         26.9670  -22.9580  -12.8340 C.2     1  UNL1        0.0250
      9  C         25.7460  -23.2790  -13.4360 C.2     1  UNL1        0.0800
     10  C         24.5370  -22.9440  -12.8230 C.2     1  UNL1        0.0420
     11  S         25.7340  -24.1740  -14.9710 S.O2    1  UNL1        0.2580
     12  O         25.1900  -25.4890  -14.7170 O.2     1  UNL1       -0.2010
     13  O         27.0250  -23.9900  -15.5970 O.2     1  UNL1       -0.2010
     14  N         24.6360  -23.3090  -15.8930 N.3     1  UNL1       -0.3160
     15  H         23.7120  -23.2220  -15.4740 H       1  UNL1        0.1720
     16  C         24.7700  -23.2570  -17.3470 C.3     1  UNL1        0.1280
     17  C         23.4340  -23.6030  -17.9790 C.3     1  UNL1        0.0270
     18  C         20.7840  -22.1150  -11.3340 C.2     1  UNL1        0.0350
     19  C         19.9020  -21.2680  -12.0300 C.2     1  UNL1        0.0300
     20  C         18.5680  -21.1210  -11.6300 C.2     1  UNL1        0.0100
     21  C         18.1350  -21.8310  -10.5250 C.2     1  UNL1       -0.0430
     22  C         19.0050  -22.6820   -9.8160 C.2     1  UNL1       -0.0170
     23  C         16.7550  -21.8440   -9.9000 C.2     1  UNL1        0.0780
     24  C         20.3250  -22.8270  -10.2130 C.3     1  UNL1        0.0420
     25  C         18.2740  -23.2830   -8.7190 C.2     1  UNL1       -0.0190
     26  C         18.6770  -24.1810   -7.7440 C.2     1  UNL1        0.0130
     27  C         16.9450  -22.8060   -8.7450 C.2     1  UNL1       -0.0430
     28  C         17.7390  -24.5960   -6.7940 C.2     1  UNL1        0.0010
     29  C         16.4190  -24.1170   -6.8270 C.2     1  UNL1        0.0010
     30  C         16.0100  -23.2130   -7.8080 C.2     1  UNL1        0.0080
@<TRIPOS>BOND
     1    17    16    1
     2    16    14    1
     3    14    15    1
     4    14    11    1
     5    13    11    2
     6    11    12    2
     7    11     9    1
     8     9     8    2
     9     9    10    1
    10     8     7    1
    11    10     5    2
    12     4     3    1
    13    19    20    1
    14    19    18    2
    15     3    18    1
    16     3     1   am
    17    20    21    2
    18     7     6    2
    19     5     6    1
    20     5     1    1
    21    18    24    1
    22     1     2    2
    23    21    23    1
    24    21    22    1
    25    24    22    1
    26    23    27    2
    27    22    25    2
    28    27    25    1
    29    27    30    1
    30    25    26    1
    31    30    29    2
    32    26    28    2
    33    29    28    1
