@<TRIPOS>MOLECULE
39418_out_ligand_01.pdbqt
 33 36 0 0 0
SMALL
GASTEIGER

@<TRIPOS>ATOM
      1  C         16.0600  -22.6770   -7.7240 C.2     1  UNL1        0.0230
      2  C         15.4510  -23.8460   -8.1750 C.2     1  UNL1        0.0240
      3  C         15.5030  -24.1880   -9.5270 C.2     1  UNL1        0.0030
      4  C         16.1690  -23.3580  -10.4290 C.2     1  UNL1        0.0170
      5  C         16.7820  -22.1820   -9.9770 C.2     1  UNL1        0.0330
      6  C         16.7070  -21.8310   -8.6230 C.2     1  UNL1        0.0410
      7  C         17.4930  -21.2690  -10.9110 C.2     1  UNL1        0.2520
      8  O         16.9340  -20.2770  -11.3610 O.2     1  UNL1       -0.2680
      9  N         18.7990  -21.5920  -11.1890 N.am    1  UNL1       -0.3510
     10  H         19.3130  -22.1640  -10.5260 H       1  UNL1        0.1630
     11  C         19.6180  -20.7050  -11.9850 C.3     1  UNL1        0.1830
     12  C         21.0180  -21.2140  -11.9270 C.2     1  UNL1        0.0700
     13  C         21.9140  -21.4300  -12.9560 C.2     1  UNL1        0.1270
     14  N         23.0410  -21.9470  -12.3700 N.pl3   1  UNL1       -0.3160
     15  C         24.2380  -22.3540  -12.9530 C.2     1  UNL1        0.0980
     16  C         22.7850  -22.0220  -11.0040 C.2     1  UNL1        0.1340
     17  C         25.2160  -22.8420  -12.1710 C.2     1  UNL1        0.0180
     18  C         24.9950  -22.9150  -10.7310 C.2     1  UNL1        0.0050
     19  C         23.8290  -22.5240  -10.1740 C.2     1  UNL1        0.0510
     20  N         21.5730  -21.5980  -10.7190 N.2     1  UNL1       -0.2320
     21  N         15.9560  -22.3170   -6.3380 N.pl3   1  UNL1       -0.1810
     22  H         15.0350  -22.5540   -5.9660 H       1  UNL1        0.1460
     23  S         17.1070  -23.0850   -5.3330 S.O2    1  UNL1        0.2460
     24  O         16.8470  -24.5040   -5.2580 O.2     1  UNL1       -0.2060
     25  O         17.2050  -22.2690   -4.1400 O.2     1  UNL1       -0.2060
     26  C         18.5990  -22.8420   -6.2910 C.2     1  UNL1        0.0810
     27  C         19.3810  -21.6780   -6.1650 C.2     1  UNL1       -0.0390
     28  C         20.5230  -21.5590   -6.9730 C.2     1  UNL1        0.0090
     29  C         19.0370  -20.5430   -5.2430 C.3     1  UNL1        0.0500
     30  C         20.8860  -22.5710   -7.8630 C.2     1  UNL1        0.0070
     31  C         20.1170  -23.7300   -7.9770 C.2     1  UNL1       -0.0600
     32  C         20.4930  -24.7980   -8.9640 C.3     1  UNL1        0.0480
     33  C         18.9630  -23.8530   -7.1960 C.2     1  UNL1        0.0320
@<TRIPOS>BOND
     1    13    14    1
     2    13    12    2
     3    15    14    1
     4    15    17    2
     5    14    16    1
     6    17    18    1
     7    11    12    1
     8    11     9    1
     9    12    20    1
    10     8     7    2
    11     9     7   am
    12     9    10    1
    13    16    20    2
    14    16    19    1
    15     7     5    1
    16    18    19    2
    17     4     5    2
    18     4     3    1
    19     5     6    1
    20     3     2    2
    21    32    31    1
    22     6     1    2
    23     2     1    1
    24    31    30    2
    25    31    33    1
    26    30    28    1
    27     1    21    1
    28    33    26    2
    29    28    27    2
    30    21    22    1
    31    21    23    1
    32    26    27    1
    33    26    23    1
    34    27    29    1
    35    23    24    2
    36    23    25    2
