@<TRIPOS>MOLECULE
39416_out_ligand_01.pdbqt
 29 32 0 0 0
SMALL
GASTEIGER

@<TRIPOS>ATOM
      1  C         20.9560  -22.9070  -10.3850 C.2     1  UNL1        0.2560
      2  O         21.3250  -23.7210   -9.5470 O.2     1  UNL1       -0.2670
      3  N         19.7310  -22.2690  -10.4410 N.am    1  UNL1       -0.3230
      4  H         19.6290  -21.5220  -11.1140 H       1  UNL1        0.1690
      5  C         18.6140  -22.4760   -9.5990 C.2     1  UNL1        0.0350
      6  C         17.3570  -22.9050  -10.0650 C.2     1  UNL1        0.0300
      7  C         16.2820  -23.0890   -9.1870 C.2     1  UNL1        0.0100
      8  C         16.4840  -22.8360   -7.8430 C.2     1  UNL1       -0.0430
      9  C         17.7340  -22.4030   -7.3600 C.2     1  UNL1       -0.0170
     10  C         15.4900  -22.9590   -6.7060 C.2     1  UNL1        0.0780
     11  C         18.7990  -22.2210   -8.2310 C.3     1  UNL1        0.0420
     12  C         17.6410  -22.2220   -5.9260 C.2     1  UNL1       -0.0190
     13  C         18.5870  -21.8120   -5.0010 C.2     1  UNL1        0.0130
     14  C         16.3290  -22.5420   -5.5140 C.2     1  UNL1       -0.0430
     15  C         18.2070  -21.7270   -3.6570 C.2     1  UNL1        0.0010
     16  C         16.9000  -22.0480   -3.2540 C.2     1  UNL1        0.0010
     17  C         15.9460  -22.4600   -4.1860 C.2     1  UNL1        0.0080
     18  C         21.9250  -22.5070  -11.4460 C.2     1  UNL1        0.0320
     19  C         21.4970  -21.6080  -12.4350 C.2     1  UNL1        0.0180
     20  C         22.3720  -21.1980  -13.4440 C.2     1  UNL1        0.0260
     21  C         23.6790  -21.6910  -13.4600 C.2     1  UNL1        0.0740
     22  C         24.1270  -22.5670  -12.4670 C.2     1  UNL1        0.0260
     23  C         23.2490  -22.9720  -11.4570 C.2     1  UNL1        0.0180
     24  S         24.7890  -21.1530  -14.7370 S.O2    1  UNL1        0.2390
     25  O         24.1370  -21.3300  -16.0140 O.2     1  UNL1       -0.2060
     26  O         26.1010  -21.6830  -14.4490 O.2     1  UNL1       -0.2060
     27  N         24.8250  -19.4910  -14.4780 N.3     1  UNL1       -0.2250
     28  H         24.9590  -18.9450  -15.3270 H       1  UNL1        0.1360
     29  H         25.5270  -19.2800  -13.7680 H       1  UNL1        0.1360
@<TRIPOS>BOND
     1    25    24    2
     2    28    27    1
     3    24    27    1
     4    24    26    2
     5    24    21    1
     6    27    29    1
     7    21    20    2
     8    21    22    1
     9    20    19    1
    10    22    23    2
    11    19    18    2
    12    23    18    1
    13    18     1    1
    14     4     3    1
    15     3     1   am
    16     3     5    1
    17     1     2    2
    18     6     5    2
    19     6     7    1
    20     5    11    1
    21     7     8    2
    22    11     9    1
    23     8     9    1
    24     8    10    1
    25     9    12    2
    26    10    14    2
    27    12    14    1
    28    12    13    1
    29    14    17    1
    30    13    15    2
    31    17    16    2
    32    15    16    1
