@<TRIPOS>MOLECULE
39414_out_ligand_01.pdbqt
 32 35 0 0 0
SMALL
GASTEIGER

@<TRIPOS>ATOM
      1  C         21.7550  -21.9670  -10.8950 C.2     1  UNL1        0.0360
      2  C         21.2650  -21.6310  -12.1610 C.2     1  UNL1        0.0290
      3  C         22.1400  -21.4220  -13.2320 C.2     1  UNL1        0.0040
      4  C         23.5140  -21.5520  -13.0530 C.2     1  UNL1        0.0250
      5  C         24.0070  -21.9080  -11.7990 C.2     1  UNL1        0.0820
      6  C         23.1360  -22.0990  -10.7170 C.2     1  UNL1        0.0540
      7  N         20.9390  -22.1620   -9.7610 N.am    1  UNL1       -0.3230
      8  C         20.8000  -23.3210   -9.0190 C.2     1  UNL1        0.2560
      9  O         21.4300  -24.3620   -9.1500 O.2     1  UNL1       -0.2670
     10  H         20.4520  -21.3420   -9.4240 H       1  UNL1        0.1690
     11  C         19.7960  -23.2390   -7.9220 C.2     1  UNL1        0.0320
     12  C         19.7160  -22.1240   -7.0810 C.2     1  UNL1        0.0180
     13  C         18.7520  -22.0760   -6.0650 C.2     1  UNL1        0.0160
     14  C         17.8530  -23.1390   -5.8790 C.2     1  UNL1        0.0120
     15  C         17.9410  -24.2470   -6.7370 C.2     1  UNL1        0.0160
     16  C         18.8970  -24.2950   -7.7570 C.2     1  UNL1        0.0180
     17  C         16.8370  -23.1300   -4.8300 C.ar    1  UNL1        0.1680
     18  N         16.6060  -24.0700   -3.9300 N.ar    1  UNL1       -0.1420
     19  N         15.5590  -23.6300   -3.1580 N.ar    1  UNL1        0.0180
     20  N         15.1350  -22.4440   -3.5680 N.ar    1  UNL1       -0.0050
     21  N         15.9210  -22.1380   -4.6070 N.ar    1  UNL1       -0.2680
     22  H         15.7660  -21.2710   -5.1040 H       1  UNL1        0.1850
     23  S         25.7560  -22.0370  -11.5400 S.O2    1  UNL1        0.2640
     24  O         26.2590  -20.7870  -11.0180 O.2     1  UNL1       -0.2000
     25  O         25.9900  -23.2790  -10.8280 O.2     1  UNL1       -0.2000
     26  N         26.3620  -22.3000  -13.0680 N.3     1  UNL1       -0.2680
     27  H         27.0600  -21.6100  -13.3260 H       1  UNL1        0.1800
     28  C         25.9490  -23.2720  -13.9740 C.3     1  UNL1        0.1080
     29  N         25.6780  -24.4920  -13.6580 N.3     1  UNL1       -0.2760
     30  C         25.3170  -25.1480  -14.9310 C.3     1  UNL1        0.1510
     31  C         24.9530  -24.0230  -15.8830 C.3     1  UNL1        0.0290
     32  C         25.8430  -22.8960  -15.4160 C.3     1  UNL1        0.0800
@<TRIPOS>BOND
     1    31    32    1
     2    31    30    1
     3    32    28    1
     4    30    29    1
     5    28    29    1
     6    28    26    1
     7    27    26    1
     8     3     4    2
     9     3     2    1
    10    26    23    1
    11     4     5    1
    12     2     1    2
    13     5    23    1
    14     5     6    2
    15    23    24    2
    16    23    25    2
    17     1     6    1
    18     1     7    1
    19     7    10    1
    20     7     8   am
    21     9     8    2
    22     8    11    1
    23    11    16    2
    24    11    12    1
    25    16    15    1
    26    12    13    2
    27    15    14    2
    28    13    14    1
    29    14    17    1
    30    22    21    1
    31    17    21   ar
    32    17    18   ar
    33    21    20   ar
    34    18    19   ar
    35    20    19   ar
