@<TRIPOS>MOLECULE
39427_out_ligand_01.pdbqt
 34 37 0 0 0
SMALL
GASTEIGER

@<TRIPOS>ATOM
      1  C         16.1180  -22.6090   -7.7990 C.2     1  UNL1        0.0230
      2  C         15.4180  -23.7290   -8.2500 C.2     1  UNL1        0.0240
      3  C         15.4650  -24.0880   -9.5980 C.2     1  UNL1        0.0030
      4  C         16.2260  -23.3350  -10.4940 C.2     1  UNL1        0.0170
      5  C         16.9510  -22.2270  -10.0340 C.2     1  UNL1        0.0330
      6  C         16.8910  -21.8610   -8.6840 C.2     1  UNL1        0.0410
      7  C         17.7730  -21.3930  -10.9480 C.2     1  UNL1        0.2510
      8  O         17.2740  -20.4080  -11.4790 O.2     1  UNL1       -0.2680
      9  N         19.0830  -21.7950  -11.1270 N.am    1  UNL1       -0.3540
     10  H         19.4440  -22.5350  -10.5400 H       1  UNL1        0.1620
     11  C         20.0280  -20.9740  -11.8710 C.3     1  UNL1        0.1570
     12  C         21.2840  -21.7270  -12.3430 C.3     1  UNL1        0.1710
     13  C         22.1990  -22.1010  -11.1770 C.3     1  UNL1        0.2090
     14  O         23.2780  -22.9280  -11.6290 O.2     1  UNL1       -0.3460
     15  C         23.8590  -22.4070  -12.7590 C.2     1  UNL1        0.1020
     16  C         25.1150  -22.9030  -13.1050 C.2     1  UNL1        0.0390
     17  C         23.2470  -21.4320  -13.5540 C.2     1  UNL1        0.1020
     18  C         25.7740  -22.3990  -14.2290 C.2     1  UNL1        0.0030
     19  C         25.1760  -21.4040  -15.0050 C.2     1  UNL1        0.0030
     20  C         23.9110  -20.9190  -14.6660 C.2     1  UNL1        0.0390
     21  O         21.9990  -20.9260  -13.2970 O.2     1  UNL1       -0.3390
     22  N         16.0860  -22.2580   -6.4100 N.pl3   1  UNL1       -0.1810
     23  H         16.2320  -21.2560   -6.2650 H       1  UNL1        0.1460
     24  S         17.2170  -23.1000   -5.4470 S.O2    1  UNL1        0.2460
     25  O         17.3840  -22.4300   -4.1750 O.2     1  UNL1       -0.2060
     26  O         16.8550  -24.5000   -5.5210 O.2     1  UNL1       -0.2060
     27  C         18.7090  -22.8650   -6.4050 C.2     1  UNL1        0.0810
     28  C         19.5010  -21.7080   -6.2710 C.2     1  UNL1       -0.0390
     29  C         20.6550  -21.6030   -7.0650 C.2     1  UNL1        0.0090
     30  C         19.1920  -20.5980   -5.3060 C.3     1  UNL1        0.0500
     31  C         21.0070  -22.6100   -7.9660 C.2     1  UNL1        0.0070
     32  C         20.2270  -23.7630   -8.0840 C.2     1  UNL1       -0.0600
     33  C         20.5920  -24.8370   -9.0670 C.3     1  UNL1        0.0480
     34  C         19.0700  -23.8800   -7.3070 C.2     1  UNL1        0.0320
@<TRIPOS>BOND
     1    19    20    2
     2    19    18    1
     3    20    17    1
     4    18    16    2
     5    17    21    1
     6    17    15    2
     7    21    12    1
     8    16    15    1
     9    15    14    1
    10    12    11    1
    11    12    13    1
    12    11     9    1
    13    14    13    1
    14     8     7    2
    15     9     7   am
    16     9    10    1
    17     7     5    1
    18     4     5    2
    19     4     3    1
    20     5     6    1
    21     3     2    2
    22    33    32    1
    23     6     1    2
    24     2     1    1
    25    32    31    2
    26    32    34    1
    27    31    29    1
    28     1    22    1
    29    34    27    2
    30    29    28    2
    31    22    23    1
    32    22    24    1
    33    27    28    1
    34    27    24    1
    35    28    30    1
    36    26    24    2
    37    24    25    2
