@<TRIPOS>MOLECULE
39420_out_ligand_01.pdbqt
 35 38 0 0 0
SMALL
GASTEIGER

@<TRIPOS>ATOM
      1  C         18.8950  -21.9810  -10.7300 C.2     1  UNL1        0.0360
      2  C         18.0240  -21.1490  -11.4390 C.2     1  UNL1        0.0290
      3  C         16.6740  -21.0540  -11.0840 C.2     1  UNL1        0.0040
      4  C         16.1790  -21.7810  -10.0050 C.2     1  UNL1        0.0250
      5  C         17.0510  -22.5950   -9.2800 C.2     1  UNL1        0.0770
      6  C         18.3970  -22.7110   -9.6450 C.2     1  UNL1        0.0540
      7  N         20.2660  -22.1320  -11.0290 N.am    1  UNL1       -0.3230
      8  C         21.3090  -22.2680  -10.1310 C.2     1  UNL1        0.2560
      9  O         21.2400  -22.2300   -8.9090 O.2     1  UNL1       -0.2670
     10  H         20.5070  -22.0640  -12.0090 H       1  UNL1        0.1690
     11  C         22.6540  -22.4480  -10.7480 C.2     1  UNL1        0.0340
     12  C         23.7450  -22.9090  -10.0220 C.2     1  UNL1        0.0180
     13  C         24.9790  -23.0400  -10.6610 C.2     1  UNL1        0.0220
     14  C         25.1660  -22.7090  -12.0240 C.2     1  UNL1        0.0270
     15  S         26.8590  -22.9470  -12.5330 S.3     1  UNL1       -0.1270
     16  C         24.0640  -22.2450  -12.7620 C.2     1  UNL1        0.0520
     17  C         26.9870  -21.8570  -13.9600 C.3     1  UNL1        0.0890
     18  C         26.2220  -22.4670  -15.1030 C.3     1  UNL1        0.1130
     19  C         24.8320  -21.9260  -15.1850 C.2     1  UNL1        0.2220
     20  O         24.3900  -21.5320  -16.2690 O.2     1  UNL1       -0.2730
     21  N         23.9940  -21.8840  -14.1230 N.am    1  UNL1       -0.3260
     22  H         23.0970  -21.5230  -14.4370 H       1  UNL1        0.1690
     23  C         22.8240  -22.1080  -12.0950 C.2     1  UNL1        0.0480
     24  S         16.4340  -23.5200   -7.8940 S.O2    1  UNL1        0.2460
     25  O         15.9360  -24.7850   -8.3900 O.2     1  UNL1       -0.2060
     26  O         15.5910  -22.6340   -7.1190 O.2     1  UNL1       -0.2060
     27  N         17.8210  -23.7970   -6.9660 N.pl3   1  UNL1       -0.1780
     28  H         17.8770  -24.7780   -6.6860 H       1  UNL1        0.1460
     29  C         18.1470  -22.8510   -5.9430 C.2     1  UNL1        0.0610
     30  C         18.9300  -21.7330   -6.2220 C.2     1  UNL1        0.0270
     31  C         19.1930  -20.8010   -5.2140 C.2     1  UNL1        0.0020
     32  C         18.6700  -20.9830   -3.9310 C.2     1  UNL1        0.0030
     33  C         17.8850  -22.1010   -3.6510 C.2     1  UNL1        0.0440
     34  C         17.6300  -23.0260   -4.6560 C.2     1  UNL1        0.1380
     35  F         16.8680  -24.0980   -4.3870 F       1  UNL1       -0.2040
@<TRIPOS>BOND
     1    20    19    2
     2    19    18    1
     3    19    21   am
     4    18    17    1
     5    22    21    1
     6    21    16    1
     7    17    15    1
     8    16    23    1
     9    16    14    2
    10    15    14    1
    11    23    11    2
    12    14    13    1
    13    10     7    1
    14     2     3    1
    15     2     1    2
    16     3     4    2
    17     7     1    1
    18     7     8   am
    19    11     8    1
    20    11    12    1
    21     1     6    1
    22    13    12    2
    23     8     9    2
    24     4     5    1
    25     6     5    2
    26     5    24    1
    27    25    24    2
    28    24    26    2
    29    24    27    1
    30    27    28    1
    31    27    29    1
    32    30    29    2
    33    30    31    1
    34    29    34    1
    35    31    32    2
    36    34    35    1
    37    34    33    2
    38    32    33    1
