@<TRIPOS>MOLECULE
39423_out_ligand_01.pdbqt
 24 26 0 0 0
SMALL
GASTEIGER

@<TRIPOS>ATOM
      1  C         17.7410  -23.1070   -5.4750 C.2     1  UNL1       -0.0400
      2  C         18.6610  -22.0970   -5.8020 C.2     1  UNL1        0.0100
      3  C         19.5130  -22.2450   -6.8980 C.2     1  UNL1        0.0170
      4  C         19.4350  -23.3980   -7.6880 C.2     1  UNL1        0.0320
      5  C         18.5320  -24.4150   -7.3660 C.2     1  UNL1        0.0170
      6  C         17.6820  -24.2620   -6.2700 C.2     1  UNL1        0.0100
      7  C         20.3490  -23.5830   -8.8420 C.2     1  UNL1        0.2580
      8  O         21.1010  -24.5520   -8.7670 O.2     1  UNL1       -0.2670
      9  N         20.2730  -22.6610   -9.9020 N.am    1  UNL1       -0.3130
     10  C         19.0630  -21.8510  -10.1010 C.3     1  UNL1        0.1330
     11  C         21.3430  -22.4820  -10.8550 C.2     1  UNL1        0.0430
     12  C         18.7020  -21.6870  -11.5660 C.3     1  UNL1        0.0250
     13  C         19.8420  -20.9920  -12.2820 C.3     1  UNL1        0.0420
     14  C         21.1510  -21.6760  -11.9990 C.2     1  UNL1       -0.0310
     15  C         22.2080  -21.4610  -12.9060 C.2     1  UNL1        0.0090
     16  C         23.4510  -22.0490  -12.7000 C.2     1  UNL1        0.0010
     17  C         23.6520  -22.8430  -11.5800 C.2     1  UNL1        0.0020
     18  C         22.6120  -23.0510  -10.6670 C.2     1  UNL1        0.0300
     19  C         16.8090  -22.9510   -4.3000 C.3     1  UNL1        0.1610
     20  N         15.7120  -22.0710   -4.6270 N.am    1  UNL1       -0.3570
     21  C         14.5560  -22.5420   -5.2070 C.2     1  UNL1        0.2130
     22  C         13.5840  -21.4560   -5.5830 C.3     1  UNL1        0.1170
     23  O         14.3310  -23.7260   -5.4270 O.2     1  UNL1       -0.2740
     24  H         15.8940  -21.0780   -4.6410 H       1  UNL1        0.1620
@<TRIPOS>BOND
     1    15    16    2
     2    15    14    1
     3    16    17    1
     4    13    14    1
     5    13    12    1
     6    14    11    2
     7    17    18    2
     8    12    10    1
     9    11    18    1
    10    11     9    1
    11    10     9    1
    12     9     7   am
    13     7     8    2
    14     7     4    1
    15     4     5    2
    16     4     3    1
    17     5     6    1
    18     3     2    2
    19     6     1    2
    20     2     1    1
    21    22    21    1
    22     1    19    1
    23    23    21    2
    24    21    20   am
    25    24    20    1
    26    20    19    1
