@<TRIPOS>MOLECULE
39434_out_ligand_01.pdbqt
 34 38 0 0 0
SMALL
GASTEIGER

@<TRIPOS>ATOM
      1  C         20.8590  -22.5010  -10.5110 C.2     1  UNL1        0.0320
      2  C         19.9170  -21.9520  -11.3910 C.2     1  UNL1        0.0180
      3  C         18.5730  -21.8690  -11.0150 C.2     1  UNL1        0.0190
      4  C         18.1660  -22.3120   -9.7510 C.2     1  UNL1        0.0450
      5  C         19.1060  -22.8390   -8.8560 C.2     1  UNL1       -0.0380
      6  C         20.4490  -22.9400   -9.2430 C.2     1  UNL1        0.0250
      7  C         18.6390  -23.3190   -7.5140 C.3     1  UNL1        0.0770
      8  C         17.4650  -22.4400   -7.0840 C.3     1  UNL1        0.1690
      9  O         16.4200  -22.4770   -8.0790 O.3     1  UNL1       -0.3070
     10  C         16.7260  -22.2440   -9.3800 C.2     1  UNL1        0.2940
     11  O         15.8680  -22.0150  -10.2220 O.2     1  UNL1       -0.2590
     12  C         22.3030  -22.6090  -10.8610 C.2     1  UNL1        0.2520
     13  O         23.0430  -23.3180  -10.1870 O.2     1  UNL1       -0.2680
     14  N         22.7210  -21.9090  -11.9750 N.am    1  UNL1       -0.3520
     15  H         22.0200  -21.5730  -12.6220 H       1  UNL1        0.1630
     16  C         24.0840  -22.0410  -12.4840 C.3     1  UNL1        0.0880
     17  C         24.1410  -21.8460  -14.0070 C.3     1  UNL1        0.0550
     18  C         24.4580  -20.3980  -14.3740 C.3     1  UNL1        0.2750
     19  N         25.7200  -19.8990  -13.8030 N.3     1  UNL1        0.0920
     20  C         26.1850  -20.6600  -12.6350 C.3     1  UNL1        0.2750
     21  C         25.0190  -21.0780  -11.7440 C.3     1  UNL1        0.0550
     22  C         26.7970  -19.7810  -14.8010 C.3     1  UNL1        0.3110
     23  C         26.7700  -18.4740  -15.5670 C.2     1  UNL1       -0.0300
     24  C         26.4260  -18.4540  -16.9270 C.2     1  UNL1        0.0090
     25  C         26.4220  -17.2540  -17.6400 C.2     1  UNL1        0.0010
     26  C         26.7660  -16.0620  -17.0040 C.2     1  UNL1        0.0000
     27  C         27.1160  -16.0690  -15.6550 C.2     1  UNL1        0.0010
     28  C         27.1210  -17.2690  -14.9420 C.2     1  UNL1        0.0090
     29  C         16.9160  -22.8920   -5.7440 C.2     1  UNL1       -0.0290
     30  C         15.5630  -23.2330   -5.5800 C.2     1  UNL1        0.0100
     31  C         15.0860  -23.6730   -4.3450 C.2     1  UNL1        0.0010
     32  C         15.9540  -23.7860   -3.2600 C.2     1  UNL1        0.0000
     33  C         17.2990  -23.4560   -3.4090 C.2     1  UNL1        0.0010
     34  C         17.7790  -23.0140   -4.6430 C.2     1  UNL1        0.0100
@<TRIPOS>BOND
     1    25    26    2
     2    25    24    1
     3    26    27    1
     4    24    23    2
     5    27    28    2
     6    23    28    1
     7    23    22    1
     8    22    19    1
     9    18    17    1
    10    18    19    1
    11    17    16    1
    12    19    20    1
    13    20    21    1
    14    15    14    1
    15    16    14    1
    16    16    21    1
    17    14    12   am
    18     2     3    1
    19     2     1    2
    20     3     4    2
    21    12     1    1
    22    12    13    2
    23     1     6    1
    24    11    10    2
    25     4    10    1
    26     4     5    1
    27    10     9    1
    28     6     5    2
    29     5     7    1
    30     9     8    1
    31     7     8    1
    32     8    29    1
    33    29    30    2
    34    29    34    1
    35    30    31    1
    36    34    33    2
    37    31    32    2
    38    33    32    1
