@<TRIPOS>MOLECULE
39441_out_ligand_01.pdbqt
 33 36 0 0 0
SMALL
GASTEIGER

@<TRIPOS>ATOM
      1  C         17.3980  -23.2810   -8.9470 C.2     1  UNL1        0.0870
      2  C         18.7930  -23.4610   -9.0490 C.2     1  UNL1        0.0550
      3  C         19.5240  -22.8150  -10.0430 C.2     1  UNL1        0.0360
      4  C         18.8460  -22.0050  -10.9560 C.2     1  UNL1        0.0300
      5  C         17.4630  -21.8240  -10.8610 C.2     1  UNL1        0.0100
      6  C         16.7130  -22.4520   -9.8540 C.2     1  UNL1       -0.0390
      7  C         15.2330  -22.2010   -9.8130 C.3     1  UNL1        0.0500
      8  N         20.9170  -22.9400  -10.2030 N.am    1  UNL1       -0.3230
      9  C         21.9020  -22.6780   -9.2700 C.2     1  UNL1        0.2580
     10  O         21.7240  -22.1810   -8.1640 O.2     1  UNL1       -0.2670
     11  H         21.2460  -23.1540  -11.1350 H       1  UNL1        0.1690
     12  C         23.2520  -22.9770   -9.7540 C.2     1  UNL1        0.0600
     13  C         24.1850  -23.6880   -9.0190 C.2     1  UNL1        0.1060
     14  N         25.3440  -23.7630   -9.7360 N.pl3   1  UNL1       -0.3640
     15  C         25.1900  -23.1420  -10.9530 C.2     1  UNL1        0.0430
     16  H         26.1900  -24.2260   -9.4310 H       1  UNL1        0.1650
     17  C         26.1040  -22.9910  -12.0030 C.2     1  UNL1        0.0300
     18  C         23.8800  -22.6580  -11.0090 C.2     1  UNL1        0.0080
     19  C         25.6670  -22.3390  -13.1580 C.2     1  UNL1        0.0020
     20  C         24.3610  -21.8680  -13.2610 C.2     1  UNL1        0.0010
     21  C         23.4600  -22.0250  -12.2020 C.2     1  UNL1        0.0150
     22  S         16.5930  -24.1740   -7.6240 S.O2    1  UNL1        0.2630
     23  O         15.4690  -24.9350   -8.1230 O.2     1  UNL1       -0.2000
     24  O         17.6350  -24.8380   -6.8660 O.2     1  UNL1       -0.2000
     25  N         16.0210  -22.9260   -6.6400 N.pl3   1  UNL1       -0.2810
     26  H         15.4660  -22.2580   -7.1730 H       1  UNL1        0.1790
     27  C         16.8820  -22.4250   -5.6290 C.2     1  UNL1        0.0430
     28  C         16.5930  -22.6610   -4.2860 C.2     1  UNL1        0.0300
     29  C         17.4240  -22.1360   -3.2980 C.2     1  UNL1        0.0030
     30  C         18.5360  -21.3680   -3.6530 C.2     1  UNL1        0.0070
     31  C         18.8180  -21.1090   -5.0010 C.2     1  UNL1       -0.0600
     32  C         20.0290  -20.3100   -5.3830 C.3     1  UNL1        0.0480
     33  C         17.9880  -21.6530   -5.9880 C.2     1  UNL1        0.0370
@<TRIPOS>BOND
     1    20    19    2
     2    20    21    1
     3    19    17    1
     4    21    18    2
     5    17    15    2
     6    11     8    1
     7    18    15    1
     8    18    12    1
     9     4     5    2
    10     4     3    1
    11    15    14    1
    12     5     6    1
    13     8     3    1
    14     8     9   am
    15     3     2    2
    16     6     7    1
    17     6     1    2
    18    12     9    1
    19    12    13    2
    20    14    16    1
    21    14    13    1
    22     9    10    2
    23     2     1    1
    24     1    22    1
    25    23    22    2
    26    22    24    2
    27    22    25    1
    28    26    25    1
    29    25    27    1
    30    33    27    2
    31    33    31    1
    32    27    28    1
    33    32    31    1
    34    31    30    2
    35    28    29    2
    36    30    29    1
