@<TRIPOS>MOLECULE
39440_out_ligand_01.pdbqt
 32 36 0 0 0
SMALL
GASTEIGER

@<TRIPOS>ATOM
      1  O         20.4280  -24.2160   -9.5830 O.2     1  UNL1       -0.2670
      2  C         19.9570  -23.0970   -9.7380 C.2     1  UNL1        0.2570
      3  N         20.6060  -21.9690  -10.1980 N.am    1  UNL1       -0.3230
      4  H         20.0640  -21.1150  -10.2420 H       1  UNL1        0.1690
      5  C         18.5470  -22.8840   -9.3240 C.2     1  UNL1        0.0510
      6  C         18.1910  -23.3850   -8.0610 C.2     1  UNL1        0.0430
      7  C         16.8830  -23.2300   -7.5950 C.2     1  UNL1        0.0750
      8  C         15.9220  -22.5810   -8.3710 C.2     1  UNL1        0.0260
      9  C         16.2710  -22.0980   -9.6330 C.2     1  UNL1        0.0210
     10  C         17.5780  -22.2520  -10.1170 C.2     1  UNL1        0.0260
     11 BR         17.9190  -21.6190  -11.8750 Br      1  UNL1       -0.0500
     12  S         16.4670  -23.8530   -5.9850 S.O2    1  UNL1        0.2410
     13  O         17.4800  -24.8120   -5.5980 O.2     1  UNL1       -0.2060
     14  O         15.0610  -24.1840   -6.0080 O.2     1  UNL1       -0.2060
     15  N         16.7390  -22.4780   -5.0260 N.3     1  UNL1       -0.2110
     16  H         16.3120  -21.6750   -5.4920 H       1  UNL1        0.1400
     17  C         18.1460  -22.2410   -4.6670 C.3     1  UNL1        0.0710
     18  C         18.5170  -21.0820   -3.7860 C.3     1  UNL1        0.0220
     19  C         18.9120  -21.0820   -5.2350 C.3     1  UNL1        0.0220
     20  C         21.9430  -21.8670  -10.6400 C.2     1  UNL1        0.0370
     21  C         23.0400  -21.6730   -9.7800 C.2     1  UNL1        0.0320
     22  C         24.3460  -21.5810  -10.2810 C.2     1  UNL1        0.0420
     23  C         24.5210  -21.6870  -11.6410 C.2     1  UNL1        0.1060
     24  C         23.4570  -21.8780  -12.4880 C.2     1  UNL1        0.1080
     25  O         25.7060  -21.6230  -12.3010 O.2     1  UNL1       -0.3110
     26  C         22.1620  -21.9720  -12.0220 C.2     1  UNL1        0.0690
     27  O         23.8400  -21.9560  -13.7910 O.2     1  UNL1       -0.3110
     28  C         25.2730  -21.7930  -13.6640 C.3     1  UNL1        0.1760
     29  C         25.7360  -20.6220  -14.5300 C.3     1  UNL1        0.0690
     30  C         25.9840  -22.9780  -14.3140 C.3     1  UNL1        0.0690
     31  C         25.7280  -21.1810  -15.9500 C.3     1  UNL1        0.0060
     32  C         25.9010  -22.6950  -15.8110 C.3     1  UNL1        0.0060
@<TRIPOS>BOND
     1    31    32    1
     2    31    29    1
     3    32    30    1
     4    29    28    1
     5    30    28    1
     6    27    28    1
     7    27    24    1
     8    28    25    1
     9    24    26    1
    10    24    23    2
    11    25    23    1
    12    26    20    2
    13    11    10    1
    14    23    22    1
    15    20     3    1
    16    20    21    1
    17    22    21    2
    18     4     3    1
    19     3     2   am
    20    10     9    1
    21    10     5    2
    22     2     1    2
    23     2     5    1
    24     9     8    2
    25     5     6    1
    26     8     7    1
    27     6     7    2
    28     7    12    1
    29    14    12    2
    30    12    13    2
    31    12    15    1
    32    16    15    1
    33    19    17    1
    34    19    18    1
    35    15    17    1
    36    17    18    1
