@<TRIPOS>MOLECULE
39455_out_ligand_01.pdbqt
 37 40 0 0 0
SMALL
GASTEIGER

@<TRIPOS>ATOM
      1  O         21.6140  -22.3900   -8.6060 O.2     1  UNL1       -0.2670
      2  C         21.7370  -22.5410   -9.8140 C.2     1  UNL1        0.2560
      3  N         20.7450  -22.4110  -10.7710 N.am    1  UNL1       -0.3230
      4  H         21.0440  -22.3550  -11.7350 H       1  UNL1        0.1690
      5  C         19.3640  -22.2260  -10.5420 C.2     1  UNL1        0.0360
      6  C         18.6750  -21.3900  -11.4310 C.2     1  UNL1        0.0290
      7  C         17.3040  -21.1620  -11.2850 C.2     1  UNL1        0.0040
      8  C         16.6040  -21.7680  -10.2460 C.2     1  UNL1        0.0250
      9  C         17.2900  -22.5960   -9.3550 C.2     1  UNL1        0.0820
     10  C         18.6590  -22.8430   -9.5090 C.2     1  UNL1        0.0540
     11  S         16.3920  -23.3910   -8.0400 S.O2    1  UNL1        0.2630
     12  O         15.5970  -22.3740   -7.3850 O.2     1  UNL1       -0.2000
     13  O         15.7770  -24.5880   -8.5680 O.2     1  UNL1       -0.2000
     14  N         17.6020  -23.8130   -6.9380 N.pl3   1  UNL1       -0.2780
     15  H         17.4820  -24.7730   -6.6090 H       1  UNL1        0.1790
     16  C         17.9720  -22.8650   -5.9330 C.2     1  UNL1        0.0810
     17  C         18.8380  -21.8110   -6.2150 C.2     1  UNL1        0.0330
     18  C         19.1400  -20.8780   -5.2200 C.2     1  UNL1        0.0020
     19  C         18.5850  -21.0020   -3.9420 C.2     1  UNL1        0.0030
     20  C         17.7250  -22.0610   -3.6550 C.2     1  UNL1        0.0440
     21  C         17.4240  -22.9820   -4.6520 C.2     1  UNL1        0.1430
     22  F         16.5850  -23.9930   -4.3790 F       1  UNL1       -0.2040
     23  C         23.0900  -22.8440  -10.3570 C.2     1  UNL1        0.0340
     24  C         24.0830  -23.2760   -9.4730 C.2     1  UNL1        0.0170
     25  C         25.3560  -23.5620   -9.9560 C.2     1  UNL1        0.0030
     26  C         25.6400  -23.4310  -11.3210 C.2     1  UNL1        0.0290
     27  C         24.6520  -23.0280  -12.2210 C.2     1  UNL1        0.0350
     28  C         23.3700  -22.7370  -11.7300 C.2     1  UNL1        0.0460
     29  N         24.8510  -22.8900  -13.6130 N.am    1  UNL1       -0.3220
     30  C         25.1830  -23.8820  -14.5300 C.2     1  UNL1        0.2630
     31  O         25.3300  -25.0650  -14.2340 O.2     1  UNL1       -0.2670
     32  H         24.6790  -21.9710  -13.9910 H       1  UNL1        0.1690
     33  C         25.3390  -23.3890  -15.9030 C.2     1  UNL1        0.0720
     34  C         24.4680  -23.4220  -16.9810 C.2     1  UNL1        0.0250
     35  C         25.0190  -22.8230  -18.1530 C.2     1  UNL1        0.0090
     36  C         26.2900  -22.3420  -17.9380 C.2     1  UNL1        0.0500
     37  S         26.8120  -22.6090  -16.3340 S.3     1  UNL1       -0.0970
@<TRIPOS>BOND
     1    35    36    2
     2    35    34    1
     3    36    37    1
     4    34    33    2
     5    37    33    1
     6    33    30    1
     7    30    31    2
     8    30    29   am
     9    32    29    1
    10    29    27    1
    11    27    28    1
    12    27    26    2
    13     4     3    1
    14    28    23    2
    15     6     7    1
    16     6     5    2
    17    26    25    1
    18     7     8    2
    19     3     5    1
    20     3     2   am
    21     5    10    1
    22    23     2    1
    23    23    24    1
    24     8     9    1
    25    25    24    2
    26     2     1    2
    27    10     9    2
    28     9    11    1
    29    13    11    2
    30    11    12    2
    31    11    14    1
    32    14    15    1
    33    14    16    1
    34    17    16    2
    35    17    18    1
    36    16    21    1
    37    18    19    2
    38    21    22    1
    39    21    20    2
    40    19    20    1
