@<TRIPOS>MOLECULE
3945_out_ligand_01.pdbqt
 36 39 0 0 0
SMALL
GASTEIGER

@<TRIPOS>ATOM
      1  C         20.7160  -22.3740  -10.9570 C.2     1  UNL1        0.0340
      2  C         20.5580  -23.3370   -9.9500 C.2     1  UNL1        0.0310
      3  C         19.3120  -23.5540   -9.3580 C.2     1  UNL1        0.0270
      4  C         18.2130  -22.8040   -9.7800 C.2     1  UNL1        0.0800
      5  C         18.3660  -21.8110  -10.7500 C.2     1  UNL1        0.0270
      6  C         19.6160  -21.6070  -11.3420 C.2     1  UNL1        0.0310
      7  N         21.9990  -22.2440  -11.5220 N.am    1  UNL1       -0.3270
      8  C         23.1300  -21.6900  -10.9460 C.2     1  UNL1        0.2310
      9  O         23.2250  -21.2390   -9.8080 O.2     1  UNL1       -0.2720
     10  H         22.0880  -22.4840  -12.5050 H       1  UNL1        0.1690
     11  C         24.3400  -21.7090  -11.8700 C.3     1  UNL1        0.1770
     12  S         24.6430  -23.3680  -12.5700 S.3     1  UNL1       -0.1550
     13  C         26.1170  -22.9800  -13.5770 C.3     1  UNL1        0.1120
     14  C         25.7230  -22.4160  -14.9190 C.2     1  UNL1       -0.0480
     15  C         26.1250  -21.1240  -15.2920 C.2     1  UNL1        0.0140
     16  C         25.7890  -20.6010  -16.5460 C.2     1  UNL1       -0.0610
     17  C         25.0170  -21.3730  -17.4230 C.2     1  UNL1        0.0130
     18  C         26.2080  -19.2120  -16.9270 C.3     1  UNL1        0.0480
     19  C         24.6000  -22.6620  -17.0690 C.2     1  UNL1       -0.0610
     20  C         23.8090  -23.4980  -18.0310 C.3     1  UNL1        0.0480
     21  C         24.9710  -23.1820  -15.8220 C.2     1  UNL1        0.0140
     22  S         16.6130  -23.0920   -9.0580 S.O2    1  UNL1        0.2630
     23  O         15.8310  -23.8720   -9.9950 O.2     1  UNL1       -0.2000
     24  O         16.1300  -21.8240   -8.5540 O.2     1  UNL1       -0.2000
     25  N         16.9500  -24.0290   -7.6930 N.pl3   1  UNL1       -0.2800
     26  H         16.8760  -25.0280   -7.8740 H       1  UNL1        0.1790
     27  C         16.5590  -23.5440   -6.4050 C.2     1  UNL1        0.0530
     28  C         15.3960  -24.0680   -5.8350 C.2     1  UNL1        0.0310
     29  C         15.0120  -23.6870   -4.5550 C.2     1  UNL1        0.0030
     30  C         15.7940  -22.7860   -3.8370 C.2     1  UNL1        0.0120
     31  C         16.9680  -22.2470   -4.3870 C.2     1  UNL1       -0.0240
     32  C         17.7470  -21.3460   -3.6440 C.2     1  UNL1        0.0120
     33  C         17.3690  -22.6190   -5.6930 C.2     1  UNL1        0.0010
     34  C         18.9180  -20.8040   -4.1710 C.2     1  UNL1        0.0010
     35  C         19.3260  -21.1560   -5.4500 C.2     1  UNL1        0.0010
     36  C         18.5630  -22.0510   -6.2010 C.2     1  UNL1        0.0140
@<TRIPOS>BOND
     1    20    19    1
     2    17    19    2
     3    17    16    1
     4    19    21    1
     5    18    16    1
     6    16    15    2
     7    21    14    2
     8    15    14    1
     9    14    13    1
    10    13    12    1
    11    12    11    1
    12    10     7    1
    13    11     8    1
    14     7     1    1
    15     7     8   am
    16     6     1    2
    17     6     5    1
    18     1     2    1
    19     8     9    2
    20     5     4    2
    21    23    22    2
    22     2     3    2
    23     4     3    1
    24     4    22    1
    25    22    24    2
    26    22    25    1
    27    26    25    1
    28    25    27    1
    29    27    28    2
    30    27    33    1
    31    36    33    1
    32    36    35    2
    33    28    29    1
    34    33    31    2
    35    35    34    1
    36    29    30    2
    37    31    30    1
    38    31    32    1
    39    34    32    2
