@<TRIPOS>MOLECULE
39451_out_ligand_01.pdbqt
 32 35 0 0 0
SMALL
GASTEIGER

@<TRIPOS>ATOM
      1  C         22.2050  -22.5330  -10.7390 C.2     1  UNL1        0.0350
      2  C         23.4890  -23.0550  -10.5840 C.2     1  UNL1        0.0300
      3  C         24.4790  -22.8110  -11.5450 C.2     1  UNL1        0.0170
      4  C         24.2050  -22.0280  -12.6720 C.2     1  UNL1        0.0120
      5  C         22.9080  -21.5320  -12.8400 C.2     1  UNL1        0.0170
      6  C         21.9180  -21.7790  -11.8820 C.2     1  UNL1        0.0300
      7  N         21.1570  -22.7350   -9.8170 N.am    1  UNL1       -0.3230
      8  C         21.1830  -22.4960   -8.4550 C.2     1  UNL1        0.2560
      9  O         22.0980  -21.9880   -7.8170 O.2     1  UNL1       -0.2670
     10  H         20.2720  -23.0170  -10.2180 H       1  UNL1        0.1690
     11  C         19.9310  -22.8570   -7.7290 C.2     1  UNL1        0.0320
     12  C         19.2330  -24.0400   -8.0010 C.2     1  UNL1        0.0170
     13  C         18.0630  -24.3360   -7.2970 C.2     1  UNL1        0.0100
     14  C         17.5870  -23.4680   -6.3020 C.2     1  UNL1       -0.0400
     15  C         18.2960  -22.2910   -6.0290 C.2     1  UNL1        0.0100
     16  C         19.4650  -21.9910   -6.7320 C.2     1  UNL1        0.0170
     17  C         16.3130  -23.7910   -5.5620 C.3     1  UNL1        0.1610
     18  N         15.2300  -22.9440   -6.0070 N.am    1  UNL1       -0.3570
     19  C         14.5570  -22.1160   -5.1400 C.2     1  UNL1        0.2130
     20  C         13.4020  -21.3770   -5.7620 C.3     1  UNL1        0.1170
     21  O         14.8650  -21.9640   -3.9620 O.2     1  UNL1       -0.2740
     22  H         14.8270  -23.1400   -6.9140 H       1  UNL1        0.1620
     23  C         25.2180  -21.7500  -13.6870 C.ar    1  UNL1        0.1630
     24  N         26.3820  -21.1710  -13.4580 N.ar    1  UNL1       -0.1290
     25  N         27.0540  -21.0530  -14.6440 N.ar    1  UNL1       -0.1340
     26  C         26.3120  -21.5850  -15.5930 C.ar    1  UNL1        0.1300
     27  N         25.1620  -22.0810  -15.0280 N.ar    1  UNL1       -0.3160
     28  C         26.6940  -21.6460  -17.0330 C.3     1  UNL1        0.0810
     29  C         24.1090  -22.8380  -15.6770 C.3     1  UNL1        0.1320
     30  C         24.5510  -23.6730  -16.8750 C.3     1  UNL1        0.0200
     31  C         24.7460  -22.8590  -18.1530 C.3     1  UNL1        0.0020
     32  C         25.5100  -21.5450  -17.9850 C.3     1  UNL1        0.0080
@<TRIPOS>BOND
     1    31    32    1
     2    31    30    1
     3    32    28    1
     4    28    26    1
     5    30    29    1
     6    29    27    1
     7    26    27   ar
     8    26    25   ar
     9    27    23   ar
    10    25    24   ar
    11    23    24   ar
    12    23     4    1
    13     5     4    2
    14     5     6    1
    15     4     3    1
    16     6     1    2
    17     3     2    2
    18     1     2    1
    19     1     7    1
    20    10     7    1
    21     7     8   am
    22     8     9    2
    23     8    11    1
    24    12    11    2
    25    12    13    1
    26    11    16    1
    27    13    14    2
    28    22    18    1
    29    16    15    2
    30    14    15    1
    31    14    17    1
    32    18    17    1
    33    18    19   am
    34    20    19    1
    35    19    21    2
