@<TRIPOS>MOLECULE
39462_out_ligand_01.pdbqt
 33 36 0 0 0
SMALL
GASTEIGER

@<TRIPOS>ATOM
      1  C         15.4790  -22.1720   -9.8100 C.3     1  UNL1        0.0500
      2  C         16.9590  -22.4250   -9.8540 C.2     1  UNL1       -0.0390
      3  C         17.7060  -21.8510  -10.8950 C.2     1  UNL1        0.0100
      4  C         19.0890  -22.0420  -10.9930 C.2     1  UNL1        0.0300
      5  C         19.7660  -22.8090  -10.0490 C.2     1  UNL1        0.0360
      6  C         19.0380  -23.3840   -9.0030 C.2     1  UNL1        0.0540
      7  C         17.6480  -23.1930   -8.9000 C.2     1  UNL1        0.0830
      8  N         21.1500  -23.0640  -10.0840 N.am    1  UNL1       -0.3230
      9  C         22.1140  -22.6480   -9.1840 C.2     1  UNL1        0.2580
     10  O         21.9060  -22.0560   -8.1300 O.2     1  UNL1       -0.2670
     11  H         21.4760  -23.6750  -10.8200 H       1  UNL1        0.1690
     12  C         23.4710  -23.0450   -9.5700 C.2     1  UNL1        0.0600
     13  C         24.2530  -23.9100   -8.8220 C.2     1  UNL1        0.1060
     14  N         25.4410  -24.1010   -9.4690 N.pl3   1  UNL1       -0.3640
     15  C         25.4790  -23.3490  -10.6200 C.2     1  UNL1        0.0430
     16  H         26.1940  -24.6920   -9.1450 H       1  UNL1        0.1650
     17  C         26.4950  -23.2270  -11.5770 C.2     1  UNL1        0.0300
     18  C         24.2690  -22.6540  -10.7020 C.2     1  UNL1        0.0080
     19  C         26.2830  -22.3550  -12.6450 C.2     1  UNL1        0.0020
     20  C         25.1040  -21.6240  -12.7450 C.2     1  UNL1        0.0010
     21  C         24.0950  -21.7580  -11.7820 C.2     1  UNL1        0.0150
     22  S         16.8130  -23.9780   -7.5320 S.O2    1  UNL1        0.2460
     23  O         15.7900  -24.8450   -8.0710 O.2     1  UNL1       -0.2060
     24  O         17.8270  -24.4830   -6.6290 O.2     1  UNL1       -0.2060
     25  N         16.1210  -22.6440   -6.7230 N.pl3   1  UNL1       -0.1780
     26  H         16.0460  -21.8880   -7.4040 H       1  UNL1        0.1460
     27  C         16.8890  -22.2270   -5.5760 C.2     1  UNL1        0.0610
     28  C         18.0680  -21.5030   -5.7570 C.2     1  UNL1        0.0270
     29  C         18.8510  -21.1630   -4.6490 C.2     1  UNL1        0.0020
     30  C         18.4650  -21.5550   -3.3650 C.2     1  UNL1        0.0030
     31  C         17.2950  -22.2910   -3.1850 C.2     1  UNL1        0.0440
     32  C         16.5170  -22.6280   -4.2890 C.2     1  UNL1        0.1380
     33  F         15.3840  -23.3210   -4.0960 F       1  UNL1       -0.2040
@<TRIPOS>BOND
     1    20    19    2
     2    20    21    1
     3    19    17    1
     4    21    18    2
     5    17    15    2
     6     4     3    1
     7     4     5    2
     8     3     2    2
     9    11     8    1
    10    18    15    1
    11    18    12    1
    12    15    14    1
    13     8     5    1
    14     8     9   am
    15     5     6    1
    16     2     1    1
    17     2     7    1
    18    12     9    1
    19    12    13    2
    20    14    16    1
    21    14    13    1
    22     9    10    2
    23     6     7    2
    24     7    22    1
    25    23    22    2
    26    22    25    1
    27    22    24    2
    28    26    25    1
    29    25    27    1
    30    28    27    2
    31    28    29    1
    32    27    32    1
    33    29    30    2
    34    32    33    1
    35    32    31    2
    36    30    31    1
