@<TRIPOS>MOLECULE
39463_out_ligand_01.pdbqt
 32 35 0 0 0
SMALL
GASTEIGER

@<TRIPOS>ATOM
      1  N         19.1500  -23.3570   -7.4650 N.am    1  UNL1       -0.3210
      2  C         20.1270  -22.4020   -7.2710 C.2     1  UNL1        0.2560
      3  O         20.0840  -21.4560   -6.4960 O.2     1  UNL1       -0.2670
      4  H         19.2640  -24.0080   -8.2330 H       1  UNL1        0.1690
      5  C         17.9190  -23.4890   -6.7830 C.2     1  UNL1        0.0690
      6  C         17.7610  -23.2940   -5.4110 C.2     1  UNL1        0.0320
      7  C         16.5040  -23.4500   -4.8130 C.2     1  UNL1        0.0020
      8  C         15.3940  -23.8100   -5.5800 C.2     1  UNL1        0.0030
      9  C         15.5370  -24.0140   -6.9500 C.2     1  UNL1        0.0390
     10  C         16.7890  -23.8380   -7.5440 C.2     1  UNL1        0.1020
     11  O         16.9270  -24.0830   -8.8920 O.2     1  UNL1       -0.3080
     12  C         17.3090  -23.0340   -9.7040 C.2     1  UNL1        0.0760
     13  C         16.3250  -22.0650   -9.9170 C.2     1  UNL1        0.0370
     14  C         16.5790  -20.9740  -10.7490 C.2     1  UNL1        0.0030
     15  C         17.8210  -20.8490  -11.3720 C.2     1  UNL1        0.0070
     16  C         18.8210  -21.8080  -11.1620 C.2     1  UNL1       -0.0590
     17  C         20.1450  -21.6970  -11.8580 C.3     1  UNL1        0.0480
     18  C         18.5520  -22.9090  -10.3340 C.2     1  UNL1        0.0440
     19  C         21.3290  -22.5480   -8.1440 C.2     1  UNL1        0.0320
     20  C         21.6580  -23.7690   -8.7550 C.2     1  UNL1        0.0180
     21  C         22.7930  -23.8650   -9.5660 C.2     1  UNL1        0.0260
     22  C         23.5980  -22.7390   -9.7600 C.2     1  UNL1        0.0740
     23  C         23.2940  -21.5250   -9.1350 C.2     1  UNL1        0.0260
     24  C         22.1600  -21.4330   -8.3260 C.2     1  UNL1        0.0180
     25  S         25.0580  -22.8490  -10.7670 S.O2    1  UNL1        0.2410
     26  O         24.6480  -23.0290  -12.1440 O.2     1  UNL1       -0.2060
     27  O         25.9730  -23.7550  -10.1120 O.2     1  UNL1       -0.2060
     28  N         25.6420  -21.2520  -10.6610 N.3     1  UNL1       -0.2110
     29  H         24.8300  -20.6320  -10.6110 H       1  UNL1        0.1400
     30  C         26.5630  -20.8670  -11.7410 C.3     1  UNL1        0.0710
     31  C         27.0780  -19.4590  -11.8320 C.3     1  UNL1        0.0220
     32  C         26.1200  -19.9780  -12.8660 C.3     1  UNL1        0.0220
@<TRIPOS>BOND
     1    32    31    1
     2    32    30    1
     3    26    25    2
     4    17    16    1
     5    31    30    1
     6    30    28    1
     7    15    16    2
     8    15    14    1
     9    16    18    1
    10    25    28    1
    11    25    27    2
    12    25    22    1
    13    14    13    2
    14    28    29    1
    15    18    12    2
    16    13    12    1
    17    22    21    2
    18    22    23    1
    19    12    11    1
    20    21    20    1
    21    23    24    2
    22    11    10    1
    23    20    19    2
    24    24    19    1
    25     4     1    1
    26    19     2    1
    27    10     9    1
    28    10     5    2
    29     1     2   am
    30     1     5    1
    31     2     3    2
    32     9     8    2
    33     5     6    1
    34     8     7    1
    35     6     7    2
