@<TRIPOS>MOLECULE
39469_out_ligand_01.pdbqt
 32 35 0 0 0
SMALL
GASTEIGER

@<TRIPOS>ATOM
      1  C         20.0260  -22.8240   -9.7040 C.2     1  UNL1        0.0330
      2  C         19.4120  -22.1190  -10.7500 C.2     1  UNL1        0.0170
      3  C         20.1880  -21.5590  -11.7680 C.2     1  UNL1        0.0030
      4  C         21.5760  -21.6910  -11.7410 C.2     1  UNL1        0.0250
      5  C         22.1850  -22.3730  -10.6810 C.2     1  UNL1        0.0750
      6  C         21.4190  -22.9450   -9.6630 C.2     1  UNL1        0.0410
      7  C         19.2340  -23.4180   -8.5970 C.2     1  UNL1        0.2520
      8  O         19.6340  -24.4420   -8.0580 O.2     1  UNL1       -0.2680
      9  N         18.0640  -22.7610   -8.2730 N.am    1  UNL1       -0.3440
     10  H         17.7880  -21.9700   -8.8390 H       1  UNL1        0.1640
     11  C         17.1860  -23.1610   -7.1270 C.3     1  UNL1        0.0600
     12  C         15.6670  -22.9270   -7.4860 C.3     1  UNL1        0.0360
     13  C         15.6270  -24.3540   -8.0570 C.3     1  UNL1        0.0060
     14  C         16.8080  -24.6890   -7.1320 C.3     1  UNL1        0.0360
     15  C         17.6840  -22.5230   -5.7420 C.2     1  UNL1       -0.0300
     16  C         17.3330  -23.0860   -4.4980 C.2     1  UNL1        0.0100
     17  C         17.7670  -22.5430   -3.2850 C.2     1  UNL1        0.0010
     18  C         18.5750  -21.4130   -3.2790 C.2     1  UNL1        0.0000
     19  C         18.9540  -20.8340   -4.4840 C.2     1  UNL1        0.0010
     20  C         18.5180  -21.3870   -5.6930 C.2     1  UNL1        0.0100
     21  S         23.9540  -22.5470  -10.6590 S.O2    1  UNL1        0.2460
     22  O         24.5320  -21.2340  -10.8350 O.2     1  UNL1       -0.2060
     23  O         24.2890  -23.3850   -9.5280 O.2     1  UNL1       -0.2060
     24  N         24.1930  -23.4160  -12.1070 N.pl3   1  UNL1       -0.1780
     25  H         23.2670  -23.6360  -12.4890 H       1  UNL1        0.1460
     26  C         24.9570  -22.6950  -13.0960 C.2     1  UNL1        0.0610
     27  C         24.3220  -21.9760  -14.1080 C.2     1  UNL1        0.0270
     28  C         25.0870  -21.3120  -15.0710 C.2     1  UNL1        0.0020
     29  C         26.4830  -21.3650  -15.0250 C.2     1  UNL1        0.0030
     30  C         27.1200  -22.0830  -14.0130 C.2     1  UNL1        0.0440
     31  C         26.3540  -22.7440  -13.0590 C.2     1  UNL1        0.1380
     32  F         26.9680  -23.4240  -12.0770 F       1  UNL1       -0.2040
@<TRIPOS>BOND
     1    28    29    2
     2    28    27    1
     3    29    30    1
     4    27    26    2
     5    30    31    2
     6    26    31    1
     7    26    24    1
     8    31    32    1
     9    25    24    1
    10    24    21    1
    11     3     4    2
    12     3     2    1
    13     4     5    1
    14    22    21    2
    15     2     1    2
    16     5    21    1
    17     5     6    2
    18    21    23    2
    19     1     6    1
    20     1     7    1
    21    10     9    1
    22     7     9   am
    23     7     8    2
    24     9    11    1
    25    13    12    1
    26    13    14    1
    27    12    11    1
    28    14    11    1
    29    11    15    1
    30    15    20    2
    31    15    16    1
    32    20    19    1
    33    16    17    2
    34    19    18    2
    35    17    18    1
