@<TRIPOS>MOLECULE
39482_out_ligand_01.pdbqt
 30 33 0 0 0
SMALL
GASTEIGER

@<TRIPOS>ATOM
      1  N         17.5230  -23.2930   -8.3040 N.am    1  UNL1       -0.3490
      2  C         17.9550  -22.6790   -9.4570 C.2     1  UNL1        0.2520
      3  O         17.2020  -22.1260  -10.2500 O.2     1  UNL1       -0.2680
      4  H         18.1900  -23.5810   -7.6030 H       1  UNL1        0.1630
      5  C         19.4260  -22.6720   -9.6950 C.2     1  UNL1        0.0320
      6  C         19.9890  -22.1470  -10.8670 C.2     1  UNL1        0.0180
      7  C         21.3760  -22.1610  -11.0470 C.2     1  UNL1        0.0260
      8  C         22.1960  -22.6990  -10.0510 C.2     1  UNL1        0.0740
      9  C         21.6470  -23.2020   -8.8680 C.2     1  UNL1        0.0260
     10  C         20.2610  -23.1860   -8.6920 C.2     1  UNL1        0.0180
     11  S         23.9600  -22.7090  -10.2560 S.O2    1  UNL1        0.2410
     12  O         24.4200  -21.3390  -10.3050 O.2     1  UNL1       -0.2060
     13  O         24.5030  -23.6720   -9.3250 O.2     1  UNL1       -0.2060
     14  N         24.0910  -23.2990  -11.8490 N.3     1  UNL1       -0.2110
     15  H         23.1600  -23.6070  -12.1400 H       1  UNL1        0.1400
     16  C         24.6810  -22.3490  -12.8040 C.3     1  UNL1        0.0710
     17  C         23.8410  -21.6560  -13.8380 C.3     1  UNL1        0.0220
     18  C         24.8170  -22.7190  -14.2550 C.3     1  UNL1        0.0220
     19  C         16.1150  -23.3240   -7.9290 C.3     1  UNL1        0.1140
     20  C         15.4190  -24.5110   -8.6080 C.3     1  UNL1        0.0370
     21  C         16.0090  -23.2810   -6.4030 C.2     1  UNL1       -0.0250
     22  C         15.0070  -24.0170   -5.7410 C.2     1  UNL1        0.0100
     23  C         14.9020  -24.0050   -4.3530 C.2     1  UNL1        0.0020
     24  C         15.8030  -23.2670   -3.5950 C.2     1  UNL1        0.0120
     25  C         16.8280  -22.5370   -4.2100 C.2     1  UNL1       -0.0250
     26  C         17.7340  -21.8110   -3.4170 C.2     1  UNL1        0.0120
     27  C         16.9520  -22.5360   -5.6240 C.2     1  UNL1       -0.0180
     28  C         18.7720  -21.0840   -3.9930 C.2     1  UNL1        0.0010
     29  C         18.9180  -21.0740   -5.3720 C.2     1  UNL1        0.0010
     30  C         18.0230  -21.7890   -6.1740 C.2     1  UNL1        0.0130
@<TRIPOS>BOND
     1    18    17    1
     2    18    16    1
     3    17    16    1
     4    16    14    1
     5    15    14    1
     6    14    11    1
     7     7     6    1
     8     7     8    2
     9     6     5    2
    10    12    11    2
    11    11     8    1
    12    11    13    2
    13     3     2    2
    14     8     9    1
    15     5     2    1
    16     5    10    1
    17     2     1   am
    18     9    10    2
    19    20    19    1
    20     1    19    1
    21     1     4    1
    22    19    21    1
    23    21    22    2
    24    21    27    1
    25    30    27    1
    26    30    29    2
    27    22    23    1
    28    27    25    2
    29    29    28    1
    30    23    24    2
    31    25    24    1
    32    25    26    1
    33    28    26    2
