@<TRIPOS>MOLECULE
39486_out_ligand_01.pdbqt
 34 37 0 0 0
SMALL
GASTEIGER

@<TRIPOS>ATOM
      1  C         21.2090  -22.2310  -11.4550 C.2     1  UNL1        0.2580
      2  O         21.0770  -21.6630  -12.5310 O.2     1  UNL1       -0.2670
      3  N         22.3960  -22.6500  -10.8880 N.am    1  UNL1       -0.3230
      4  H         22.3220  -22.9840   -9.9380 H       1  UNL1        0.1690
      5  C         23.6910  -22.5990  -11.4410 C.2     1  UNL1        0.0360
      6  C         24.5700  -21.6490  -10.8980 C.2     1  UNL1        0.0290
      7  C         25.8810  -21.5310  -11.3660 C.2     1  UNL1        0.0040
      8  C         26.3290  -22.3630  -12.3870 C.2     1  UNL1        0.0250
      9  C         25.4520  -23.3020  -12.9400 C.2     1  UNL1        0.0820
     10  C         24.1410  -23.4340  -12.4650 C.2     1  UNL1        0.0540
     11  S         26.0510  -24.3890  -14.2070 S.O2    1  UNL1        0.2640
     12  O         24.9450  -25.0430  -14.8680 O.2     1  UNL1       -0.2000
     13  O         27.1200  -25.1750  -13.6190 O.2     1  UNL1       -0.2000
     14  N         26.8160  -23.3700  -15.2800 N.3     1  UNL1       -0.2680
     15  H         27.8250  -23.4230  -15.2040 H       1  UNL1        0.1800
     16  C         26.2050  -22.5630  -16.2320 C.3     1  UNL1        0.1080
     17  N         25.7770  -22.9850  -17.3720 N.3     1  UNL1       -0.2760
     18  C         25.2300  -21.7930  -18.0470 C.3     1  UNL1        0.1510
     19  C         24.9490  -20.7920  -16.9390 C.3     1  UNL1        0.0290
     20  C         26.0200  -21.1130  -15.9240 C.3     1  UNL1        0.0800
     21  C         20.0480  -22.4660  -10.5840 C.2     1  UNL1        0.0560
     22  C         18.7450  -21.9490  -10.8140 C.2     1  UNL1        0.0430
     23  C         17.9220  -22.3500   -9.7820 C.2     1  UNL1        0.0090
     24  C         16.4820  -22.0400   -9.5690 C.3     1  UNL1        0.0680
     25  N         18.6830  -23.1200   -8.9240 N.pl3   1  UNL1       -0.3490
     26  C         19.9700  -23.2490   -9.4320 C.2     1  UNL1        0.0240
     27  C         20.9930  -24.1370   -8.8040 C.3     1  UNL1        0.0690
     28  C         18.1750  -23.7590   -7.7050 C.3     1  UNL1        0.1670
     29  C         18.3220  -22.8980   -6.4720 C.2     1  UNL1       -0.0400
     30  C         17.6000  -23.1620   -5.2980 C.2     1  UNL1        0.0090
     31  C         17.7280  -22.3320   -4.1820 C.2     1  UNL1        0.0010
     32  C         18.5670  -21.2210   -4.2300 C.2     1  UNL1        0.0000
     33  C         19.2790  -20.9370   -5.3930 C.2     1  UNL1        0.0010
     34  C         19.1530  -21.7670   -6.5090 C.2     1  UNL1        0.0090
@<TRIPOS>BOND
     1    18    17    1
     2    18    19    1
     3    17    16    1
     4    19    20    1
     5    16    20    1
     6    16    14    1
     7    14    15    1
     8    14    11    1
     9    12    11    2
    10    11    13    2
    11    11     9    1
    12     9    10    1
    13     9     8    2
    14     2     1    2
    15    10     5    2
    16     8     7    1
    17     1     3   am
    18     1    21    1
    19     5     6    1
    20     5     3    1
    21     7     6    2
    22     3     4    1
    23    22    21    1
    24    22    23    2
    25    21    26    2
    26    23    24    1
    27    23    25    1
    28    26    25    1
    29    26    27    1
    30    25    28    1
    31    28    29    1
    32    34    29    2
    33    34    33    1
    34    29    30    1
    35    33    32    2
    36    30    31    2
    37    32    31    1
