@<TRIPOS>MOLECULE
3950_out_ligand_01.pdbqt
 44 47 0 0 0
SMALL
GASTEIGER

@<TRIPOS>ATOM
      1  N         22.7500  -21.5410  -10.6540 N.am    1  UNL1       -0.3260
      2  C         22.7700  -22.1230   -9.3950 C.2     1  UNL1        0.2410
      3  O         23.5390  -23.0100   -9.0270 O.2     1  UNL1       -0.2710
      4  H         22.2190  -20.6860  -10.7600 H       1  UNL1        0.1690
      5  C         21.7380  -21.5310   -8.4410 C.3     1  UNL1        0.2450
      6  N         20.8370  -22.6130   -7.9510 N.pl3   1  UNL1       -0.2630
      7  C         19.8840  -22.1960   -6.9500 C.2     1  UNL1        0.0460
      8  C         20.0950  -21.0770   -6.1410 C.2     1  UNL1        0.0300
      9  C         19.1940  -20.7720   -5.1190 C.2     1  UNL1        0.0030
     10  C         18.0980  -21.6010   -4.8840 C.2     1  UNL1        0.0160
     11  C         17.8880  -22.7450   -5.6680 C.2     1  UNL1        0.0500
     12  C         18.8010  -23.0420   -6.6940 C.2     1  UNL1        0.0460
     13  C         16.7320  -23.6710   -5.3860 C.3     1  UNL1        0.4170
     14  F         15.5170  -23.0850   -5.5680 F       1  UNL1       -0.1660
     15  F         16.7420  -24.1150   -4.0980 F       1  UNL1       -0.1660
     16  F         16.7310  -24.7850   -6.1650 F       1  UNL1       -0.1660
     17  S         20.2090  -23.6250   -9.1780 S.O2    1  UNL1        0.2650
     18  O         21.2680  -23.9760  -10.1010 O.2     1  UNL1       -0.2000
     19  O         19.4190  -24.6470   -8.5150 O.2     1  UNL1       -0.2000
     20  C         19.0930  -22.5560  -10.0540 C.2     1  UNL1        0.0800
     21  C         19.5740  -21.7320  -11.0760 C.2     1  UNL1        0.0250
     22  C         18.6840  -20.9120  -11.7690 C.2     1  UNL1        0.0020
     23  C         17.3260  -20.9180  -11.4430 C.2     1  UNL1        0.0000
     24  C         16.8520  -21.7450  -10.4210 C.2     1  UNL1        0.0020
     25  C         17.7360  -22.5650   -9.7200 C.2     1  UNL1        0.0250
     26  C         23.4720  -21.9560  -11.7950 C.2     1  UNL1        0.0340
     27  C         23.1160  -21.3800  -13.0230 C.2     1  UNL1        0.0310
     28  C         23.7500  -21.7690  -14.2070 C.2     1  UNL1        0.0270
     29  C         24.7470  -22.7450  -14.1610 C.2     1  UNL1        0.0750
     30  C         25.1110  -23.3270  -12.9470 C.2     1  UNL1        0.0270
     31  C         24.4760  -22.9290  -11.7680 C.2     1  UNL1        0.0310
     32  S         25.5400  -23.2950  -15.6540 S.O2    1  UNL1        0.2450
     33  O         24.8020  -22.7460  -16.7730 O.2     1  UNL1       -0.2060
     34  O         25.7730  -24.7130  -15.5060 O.2     1  UNL1       -0.2060
     35  N         26.9990  -22.4180  -15.5720 N.pl3   1  UNL1       -0.1810
     36  H         27.3800  -22.5640  -14.6370 H       1  UNL1        0.1460
     37  C         26.8810  -21.0190  -15.8730 C.2     1  UNL1        0.0280
     38  C         26.6410  -20.6660  -17.2040 C.2     1  UNL1        0.0250
     39  C         26.4760  -19.3280  -17.5620 C.2     1  UNL1        0.0080
     40  C         26.5460  -18.3260  -16.5930 C.2     1  UNL1       -0.0610
     41  C         26.3290  -16.8900  -16.9690 C.3     1  UNL1        0.0480
     42  C         26.7540  -18.6870  -15.2550 C.2     1  UNL1        0.0150
     43  C         26.9340  -20.0310  -14.8780 C.2     1  UNL1       -0.0390
     44  C         27.1200  -20.3510  -13.4210 C.3     1  UNL1        0.0500
@<TRIPOS>BOND
     1    39    38    1
     2    39    40    2
     3    38    37    2
     4    41    40    1
     5    33    32    2
     6    40    42    1
     7    37    35    1
     8    37    43    1
     9    32    35    1
    10    32    34    2
    11    32    29    1
    12    35    36    1
    13    42    43    2
    14    43    44    1
    15    28    29    2
    16    28    27    1
    17    29    30    1
    18    27    26    2
    19    30    31    2
    20    26    31    1
    21    26     1    1
    22    22    23    2
    23    22    21    1
    24    23    24    1
    25    21    20    2
    26     4     1    1
    27     1     2   am
    28    24    25    2
    29    18    17    2
    30    20    25    1
    31    20    17    1
    32     2     3    2
    33     2     5    1
    34    17    19    2
    35    17     6    1
    36     5     6    1
    37     6     7    1
    38     7    12    2
    39     7     8    1
    40    12    11    1
    41    16    13    1
    42     8     9    2
    43    11    13    1
    44    11    10    2
    45    14    13    1
    46    13    15    1
    47     9    10    1
