@<TRIPOS>MOLECULE
39502_out_ligand_01.pdbqt
 34 36 0 0 0
SMALL
GASTEIGER

@<TRIPOS>ATOM
      1  C         17.2000  -23.7080   -5.4540 C.2     1  UNL1        0.0500
      2  C         17.1580  -23.6350   -4.0560 C.2     1  UNL1        0.0300
      3  C         15.9390  -23.6750   -3.3710 C.2     1  UNL1        0.0020
      4  C         14.7420  -23.7780   -4.0710 C.2     1  UNL1        0.0010
      5  C         14.7600  -23.8550   -5.4630 C.2     1  UNL1        0.0190
      6  C         15.9810  -23.8410   -6.1600 C.2     1  UNL1        0.0580
      7  N         18.4170  -23.6350   -6.1760 N.am    1  UNL1       -0.3220
      8  C         19.0170  -22.5290   -6.7410 C.2     1  UNL1        0.2560
      9  O         18.6520  -21.3650   -6.6290 O.2     1  UNL1       -0.2670
     10  H         18.9100  -24.5270   -6.2530 H       1  UNL1        0.1690
     11  C         20.2600  -22.8150   -7.5190 C.2     1  UNL1        0.0320
     12  C         20.4500  -24.0230   -8.2010 C.2     1  UNL1        0.0170
     13  C         21.6300  -24.2450   -8.9160 C.2     1  UNL1        0.0100
     14  C         22.6330  -23.2650   -8.9630 C.2     1  UNL1       -0.0400
     15  C         22.4300  -22.0510   -8.2920 C.2     1  UNL1        0.0100
     16  C         21.2490  -21.8250   -7.5810 C.2     1  UNL1        0.0170
     17  C         23.9120  -23.5220   -9.7170 C.3     1  UNL1        0.1610
     18  N         23.7860  -23.1160  -11.0960 N.am    1  UNL1       -0.3570
     19  C         24.2730  -21.9020  -11.5170 C.2     1  UNL1        0.2130
     20  C         24.1380  -21.6750  -12.9970 C.3     1  UNL1        0.1170
     21  O         24.7890  -21.0800  -10.7690 O.2     1  UNL1       -0.2740
     22  H         23.5690  -23.8250  -11.7850 H       1  UNL1        0.1620
     23  C         15.9780  -23.9660   -7.6520 C.2     1  UNL1        0.2530
     24  O         15.7480  -25.0490   -8.1850 O.2     1  UNL1       -0.2680
     25  N         16.1810  -22.8030   -8.3710 N.am    1  UNL1       -0.3560
     26  H         16.0320  -21.9260   -7.8860 H       1  UNL1        0.1620
     27  C         16.0230  -22.7960   -9.8160 C.3     1  UNL1        0.1270
     28  C         16.4530  -21.4610  -10.4250 C.3     1  UNL1        0.0580
     29  C         17.8900  -21.4860  -10.8770 C.2     1  UNL1       -0.0570
     30  C         18.5140  -20.3160  -11.3300 C.2     1  UNL1        0.0070
     31  C         19.8390  -20.3470  -11.7680 C.2     1  UNL1        0.0010
     32  C         20.5490  -21.5450  -11.7600 C.2     1  UNL1        0.0000
     33  C         19.9350  -22.7150  -11.3180 C.2     1  UNL1        0.0010
     34  C         18.6110  -22.6870  -10.8810 C.2     1  UNL1        0.0070
@<TRIPOS>BOND
     1    20    19    1
     2    22    18    1
     3    31    32    2
     4    31    30    1
     5    32    33    1
     6    19    18   am
     7    19    21    2
     8    30    29    2
     9    33    34    2
    10    18    17    1
    11    34    29    1
    12    29    28    1
    13    28    27    1
    14    27    25    1
    15    17    14    1
    16    14    13    2
    17    14    15    1
    18    13    12    1
    19    25    26    1
    20    25    23   am
    21    15    16    2
    22    12    11    2
    23    24    23    2
    24    23     6    1
    25    16    11    1
    26    11     8    1
    27     8     9    2
    28     8     7   am
    29    10     7    1
    30     7     1    1
    31     6     5    1
    32     6     1    2
    33     5     4    2
    34     1     2    1
    35     4     3    1
    36     2     3    2
