@<TRIPOS>MOLECULE
39516_out_ligand_01.pdbqt
 37 40 0 0 0
SMALL
GASTEIGER

@<TRIPOS>ATOM
      1  C         22.4430  -22.7860  -11.2770 C.2     1  UNL1        0.0230
      2  C         21.8270  -21.9490  -12.2090 C.2     1  UNL1        0.0240
      3  C         20.5590  -21.4280  -11.9520 C.2     1  UNL1        0.0030
      4  C         19.8950  -21.7540  -10.7670 C.2     1  UNL1        0.0170
      5  C         20.5010  -22.6140   -9.8410 C.2     1  UNL1        0.0340
      6  C         21.7860  -23.1140  -10.0910 C.2     1  UNL1        0.0410
      7  N         23.7620  -23.2940  -11.5240 N.pl3   1  UNL1       -0.1810
      8  H         23.9310  -24.1680  -11.0230 H       1  UNL1        0.1460
      9  S         25.0220  -22.2110  -11.1260 S.O2    1  UNL1        0.2450
     10  O         26.1570  -23.0120  -10.7230 O.2     1  UNL1       -0.2060
     11  O         24.5080  -21.1330  -10.3090 O.2     1  UNL1       -0.2060
     12  C         25.3760  -21.5310  -12.7310 C.2     1  UNL1        0.0750
     13  C         25.9720  -20.2700  -12.8430 C.2     1  UNL1        0.0340
     14  C         26.2310  -19.7420  -14.1130 C.2     1  UNL1       -0.0290
     15  C         26.9590  -18.4380  -14.2800 C.3     1  UNL1        0.0500
     16  C         25.8960  -20.4880  -15.2520 C.2     1  UNL1        0.0410
     17  C         26.5590  -17.7440  -15.5710 C.3     1  UNL1        0.1080
     18  C         26.5870  -18.6870  -16.7530 C.2     1  UNL1        0.2220
     19  O         26.8710  -18.3110  -17.8890 O.2     1  UNL1       -0.2730
     20  N         26.1730  -19.9710  -16.5190 N.am    1  UNL1       -0.3270
     21  H         26.0630  -20.5500  -17.3420 H       1  UNL1        0.1690
     22  C         25.3120  -21.7500  -15.1340 C.2     1  UNL1        0.0310
     23  C         25.0400  -22.2720  -13.8690 C.2     1  UNL1        0.0270
     24  C         19.8330  -22.9990   -8.5620 C.2     1  UNL1        0.2560
     25  O         19.9910  -24.1430   -8.1520 O.2     1  UNL1       -0.2670
     26  N         19.0480  -22.0180   -7.9850 N.am    1  UNL1       -0.3230
     27  H         18.8990  -21.1720   -8.5200 H       1  UNL1        0.1690
     28  C         18.3430  -22.0940   -6.7660 C.2     1  UNL1        0.0350
     29  C         18.9470  -21.5190   -5.6410 C.2     1  UNL1        0.0290
     30  C         18.3200  -21.5570   -4.3950 C.2     1  UNL1        0.0030
     31  C         17.0780  -22.1720   -4.2590 C.2     1  UNL1        0.0160
     32  C         16.4530  -22.7550   -5.3700 C.2     1  UNL1        0.0500
     33  C         17.0990  -22.7120   -6.6200 C.2     1  UNL1        0.0450
     34  C         15.1120  -23.4360   -5.2450 C.3     1  UNL1        0.4170
     35  F         14.8550  -24.3120   -6.2580 F       1  UNL1       -0.1660
     36  F         14.9910  -24.1560   -4.0950 F       1  UNL1       -0.1660
     37  F         14.0760  -22.5530   -5.2490 F       1  UNL1       -0.1660
@<TRIPOS>BOND
     1    19    18    2
     2    21    20    1
     3    18    20   am
     4    18    17    1
     5    20    16    1
     6    17    15    1
     7    16    22    2
     8    16    14    1
     9    22    23    1
    10    15    14    1
    11    14    13    2
    12    23    12    2
    13    13    12    1
    14    12     9    1
    15     2     3    1
    16     2     1    2
    17     3     4    2
    18     7     1    1
    19     7     9    1
    20     7     8    1
    21     1     6    1
    22     9    10    2
    23     9    11    2
    24     4     5    1
    25     6     5    2
    26     5    24    1
    27    24    25    2
    28    24    26   am
    29    27    26    1
    30    26    28    1
    31    28    33    2
    32    28    29    1
    33    33    32    1
    34    35    34    1
    35    29    30    2
    36    32    34    1
    37    32    31    2
    38    37    34    1
    39    34    36    1
    40    30    31    1
