@<TRIPOS>MOLECULE
39519_out_ligand_01.pdbqt
 31 34 0 0 0
SMALL
GASTEIGER

@<TRIPOS>ATOM
      1  C         19.7200  -21.6280  -10.7530 C.2     1  UNL1        0.2530
      2  O         19.5370  -20.7510  -11.5950 O.2     1  UNL1       -0.2670
      3  N         18.6880  -22.2390  -10.0370 N.am    1  UNL1       -0.3480
      4  C         17.3250  -21.8370  -10.3470 C.3     1  UNL1        0.1530
      5  C         21.1100  -22.0680  -10.5200 C.2     1  UNL1        0.0330
      6  C         21.5670  -22.3050   -9.2220 C.2     1  UNL1        0.0190
      7  C         22.8830  -22.7160   -8.9960 C.2     1  UNL1        0.0310
      8  C         23.7200  -22.8540  -10.1110 C.ar    1  UNL1        0.0430
      9  N         25.0470  -23.2250  -10.1790 N.ar    1  UNL1       -0.3580
     10  C         23.2940  -22.5930  -11.4170 C.ar    1  UNL1       -0.0000
     11  C         25.4700  -23.1910  -11.4760 C.ar    1  UNL1        0.0170
     12  H         25.6160  -23.4670   -9.3790 H       1  UNL1        0.1660
     13  C         26.8420  -23.5320  -11.9380 C.3     1  UNL1        0.0580
     14  C         24.4080  -22.8150  -12.2720 C.ar    1  UNL1       -0.0230
     15  C         27.0330  -23.0510  -13.3900 C.3     1  UNL1        0.0100
     16  C         25.8130  -23.3330  -14.3040 C.3     1  UNL1       -0.0140
     17  C         25.6110  -24.8360  -14.5190 C.3     1  UNL1        0.0100
     18  C         24.5260  -22.6640  -13.7540 C.3     1  UNL1        0.0450
     19  C         21.9630  -22.1860  -11.6260 C.2     1  UNL1        0.0310
     20  C         18.8500  -23.4720   -9.2630 C.3     1  UNL1        0.1640
     21  C         18.3120  -23.4050   -7.8490 C.2     1  UNL1       -0.0400
     22  C         17.2700  -24.2720   -7.4770 C.2     1  UNL1        0.0100
     23  C         16.7200  -24.2210   -6.1930 C.2     1  UNL1        0.0170
     24  C         17.2020  -23.3020   -5.2560 C.2     1  UNL1        0.0310
     25  C         18.2200  -22.4150   -5.6240 C.2     1  UNL1        0.0170
     26  C         18.7680  -22.4670   -6.9100 C.2     1  UNL1        0.0100
     27  C         16.5810  -23.2770   -3.9060 C.2     1  UNL1        0.2490
     28  N         16.3960  -22.0530   -3.3240 N.am    1  UNL1       -0.3660
     29  H         16.8490  -21.2140   -3.6590 H       1  UNL1        0.1590
     30  H         16.0620  -22.0530   -2.3660 H       1  UNL1        0.1590
     31  O         16.2670  -24.3070   -3.3250 O.2     1  UNL1       -0.2680
@<TRIPOS>BOND
     1    17    16    1
     2    16    18    1
     3    16    15    1
     4    18    14    1
     5    15    13    1
     6    14    11   ar
     7    14    10   ar
     8    13    11    1
     9    19    10    1
    10    19     5    2
    11     2     1    2
    12    11     9   ar
    13    10     8   ar
    14     1     5    1
    15     1     3   am
    16     5     6    1
    17     4     3    1
    18     9     8   ar
    19     9    12    1
    20     8     7    1
    21     3    20    1
    22    20    21    1
    23     6     7    2
    24    21    22    2
    25    21    26    1
    26    22    23    1
    27    26    25    2
    28    23    24    2
    29    25    24    1
    30    24    27    1
    31    27    31    2
    32    27    28   am
    33    29    28    1
    34    28    30    1
