@<TRIPOS>MOLECULE
39521_out_ligand_01.pdbqt
 36 39 0 0 0
SMALL
GASTEIGER

@<TRIPOS>ATOM
      1  C         23.6840  -21.7880  -12.8540 C.2     1  UNL1        0.0530
      2  C         24.2520  -22.1040  -14.1020 C.2     1  UNL1        0.0190
      3  C         25.5900  -22.4720  -14.1840 C.2     1  UNL1        0.0010
      4  C         26.3560  -22.5350  -13.0260 C.2     1  UNL1        0.0020
      5  C         25.7950  -22.2060  -11.7850 C.2     1  UNL1        0.0240
      6  C         24.4630  -21.7800  -11.6720 C.2     1  UNL1        0.0240
      7  N         23.8620  -21.5060  -10.4310 N.pl3   1  UNL1       -0.2830
      8  H         24.1440  -20.5560  -10.1320 H       1  UNL1        0.1280
      9  C         23.9710  -22.4380   -9.3070 C.3     1  UNL1        0.1950
     10  C         22.6140  -23.0270   -8.8830 C.2     1  UNL1        0.2350
     11  O         22.2680  -24.1500   -9.2410 O.2     1  UNL1       -0.2720
     12  N         21.8930  -22.1710   -8.0580 N.am    1  UNL1       -0.3260
     13  H         22.3290  -21.2930   -7.8110 H       1  UNL1        0.1690
     14  C         20.6250  -22.3980   -7.4870 C.2     1  UNL1        0.0340
     15  C         20.1280  -21.4220   -6.6220 C.2     1  UNL1        0.0320
     16  C         18.8780  -21.5790   -6.0030 C.2     1  UNL1        0.0310
     17  C         18.0780  -22.7100   -6.2180 C.2     1  UNL1        0.0300
     18  C         18.5950  -23.6680   -7.1010 C.2     1  UNL1        0.0310
     19  C         19.8450  -23.5220   -7.7260 C.2     1  UNL1        0.0320
     20  N         16.8580  -22.8650   -5.6050 N.pl3   1  UNL1       -0.3810
     21  C         16.4580  -22.1830   -4.3770 C.3     1  UNL1        0.1230
     22  C         14.9780  -22.5270   -4.2360 C.3     1  UNL1        0.0210
     23  C         14.8930  -23.9170   -4.8390 C.3     1  UNL1        0.0210
     24  C         15.8510  -23.8390   -6.0260 C.3     1  UNL1        0.1230
     25  C         22.2340  -21.4370  -12.8050 C.2     1  UNL1        0.2580
     26  N         21.5570  -21.9830  -11.7280 N.am    1  UNL1       -0.3230
     27  H         22.1190  -22.4610  -11.0370 H       1  UNL1        0.1690
     28  O         21.7790  -20.6940  -13.6650 O.2     1  UNL1       -0.2670
     29  C         20.1870  -21.8520  -11.4220 C.2     1  UNL1        0.0350
     30  C         19.4690  -20.6640  -11.5530 C.2     1  UNL1        0.0300
     31  C         18.1080  -20.6160  -11.2280 C.2     1  UNL1        0.0090
     32  C         17.4410  -21.7590  -10.7730 C.2     1  UNL1       -0.0580
     33  C         18.1610  -22.9500  -10.6410 C.2     1  UNL1        0.0090
     34  C         19.5200  -22.9960  -10.9660 C.2     1  UNL1        0.0300
     35  C         15.9810  -21.6970  -10.4050 C.3     1  UNL1        0.0340
     36  C         15.5630  -22.8860   -9.5520 C.3     1  UNL1        0.0100
@<TRIPOS>BOND
     1     3     2    1
     2     3     4    2
     3     2     1    2
     4    28    25    2
     5     4     5    1
     6     1    25    1
     7     1     6    1
     8    25    26   am
     9     5     6    2
    10    26    29    1
    11    26    27    1
    12     6     7    1
    13    30    29    2
    14    30    31    1
    15    29    34    1
    16    31    32    2
    17    34    33    2
    18    32    33    1
    19    32    35    1
    20     7     8    1
    21     7     9    1
    22    35    36    1
    23     9    10    1
    24    11    10    2
    25    10    12   am
    26    12    13    1
    27    12    14    1
    28    19    14    2
    29    19    18    1
    30    14    15    1
    31    18    17    2
    32    15    16    2
    33    17    16    1
    34    17    20    1
    35    24    20    1
    36    24    23    1
    37    20    21    1
    38    23    22    1
    39    21    22    1
