@<TRIPOS>MOLECULE
3953_out_ligand_01.pdbqt
 33 36 0 0 0
SMALL
GASTEIGER

@<TRIPOS>ATOM
      1  C         21.3770  -23.2640   -9.9240 C.2     1  UNL1        0.0340
      2  C         20.4110  -22.5270  -10.6150 C.2     1  UNL1        0.0310
      3  C         19.0640  -22.6040  -10.2490 C.2     1  UNL1        0.0270
      4  C         18.6800  -23.4310   -9.1910 C.2     1  UNL1        0.0750
      5  C         19.6370  -24.1460   -8.4680 C.2     1  UNL1        0.0270
      6  C         20.9810  -24.0670   -8.8440 C.2     1  UNL1        0.0310
      7  N         22.7450  -23.2660  -10.2510 N.am    1  UNL1       -0.3250
      8  C         23.6470  -22.2160  -10.1690 C.2     1  UNL1        0.2540
      9  O         23.4220  -21.1040   -9.6970 O.2     1  UNL1       -0.2700
     10  H         23.1130  -24.1140  -10.6740 H       1  UNL1        0.1690
     11  C         25.0520  -22.6160  -10.6630 C.3     1  UNL1        0.2450
     12  C         25.9990  -21.4220  -10.7000 C.3     1  UNL1        0.2180
     13  O         25.6460  -20.4890  -11.7290 O.2     1  UNL1       -0.3450
     14  C         25.3180  -21.1130  -12.9000 C.2     1  UNL1        0.1020
     15  C         25.2440  -20.3120  -14.0380 C.2     1  UNL1        0.0390
     16  C         25.0480  -22.4810  -12.9910 C.2     1  UNL1        0.1030
     17  C         24.9370  -20.8810  -15.2750 C.2     1  UNL1        0.0030
     18  C         24.6990  -22.2530  -15.3710 C.2     1  UNL1        0.0030
     19  C         24.7570  -23.0540  -14.2280 C.2     1  UNL1        0.0400
     20  O         25.0400  -23.3230  -11.9080 O.2     1  UNL1       -0.3310
     21  S         16.9610  -23.5520   -8.7530 S.O2    1  UNL1        0.2450
     22  O         16.1870  -23.5470   -9.9770 O.2     1  UNL1       -0.2060
     23  O         16.8300  -24.6190   -7.7850 O.2     1  UNL1       -0.2060
     24  N         16.6860  -22.1060   -7.9070 N.pl3   1  UNL1       -0.1800
     25  H         15.9700  -21.5540   -8.3820 H       1  UNL1        0.1460
     26  C         16.5660  -22.1640   -6.4760 C.2     1  UNL1        0.0460
     27  C         15.3300  -22.4880   -5.9090 C.2     1  UNL1        0.0260
     28  C         15.1810  -22.5300   -4.5220 C.2     1  UNL1        0.0040
     29  C         16.2670  -22.2440   -3.6960 C.2     1  UNL1        0.0260
     30  C         17.5090  -21.9220   -4.2530 C.2     1  UNL1        0.0570
     31 CL         18.8050  -21.5820   -3.1600 Cl      1  UNL1       -0.0820
     32  C         17.6680  -21.8850   -5.6460 C.2     1  UNL1        0.0770
     33 CL         19.2010  -21.5040   -6.3710 Cl      1  UNL1       -0.0810
@<TRIPOS>BOND
     1    18    17    2
     2    18    19    1
     3    17    15    1
     4    19    16    2
     5    15    14    2
     6    16    14    1
     7    16    20    1
     8    14    13    1
     9    20    11    1
    10    13    12    1
    11    12    11    1
    12    10     7    1
    13    11     8    1
    14     2     3    1
    15     2     1    2
    16     7     8   am
    17     7     1    1
    18     3     4    2
    19     8     9    2
    20    22    21    2
    21     1     6    1
    22     4    21    1
    23     4     5    1
    24     6     5    2
    25    21    24    1
    26    21    23    2
    27    25    24    1
    28    24    26    1
    29    26    27    2
    30    26    32    1
    31    33    32    1
    32    27    28    1
    33    32    30    2
    34    28    29    2
    35    30    29    1
    36    30    31    1
