@<TRIPOS>MOLECULE
39535_out_ligand_01.pdbqt
 35 38 0 0 0
SMALL
GASTEIGER

@<TRIPOS>ATOM
      1  N         23.7130  -22.0400  -10.6430 N.pl3   1  UNL1       -0.2830
      2  H         24.0380  -21.0890  -10.4070 H       1  UNL1        0.1280
      3  C         23.8020  -22.9400   -9.4690 C.3     1  UNL1        0.1950
      4  C         22.4120  -23.3870   -8.9860 C.2     1  UNL1        0.2350
      5  O         21.9310  -24.4580   -9.3460 O.2     1  UNL1       -0.2720
      6  N         21.8380  -22.4640   -8.1320 N.am    1  UNL1       -0.3260
      7  H         22.4160  -21.6320   -8.0020 H       1  UNL1        0.1690
      8  C         20.5910  -22.5120   -7.4910 C.2     1  UNL1        0.0340
      9  C         19.7090  -23.5800   -7.5860 C.2     1  UNL1        0.0320
     10  C         18.4760  -23.5430   -6.9120 C.2     1  UNL1        0.0310
     11  C         18.0800  -22.4510   -6.1260 C.2     1  UNL1        0.0300
     12  C         18.9920  -21.3890   -6.0470 C.2     1  UNL1        0.0310
     13  C         20.2260  -21.4150   -6.7130 C.2     1  UNL1        0.0320
     14  N         16.8720  -22.4230   -5.4740 N.pl3   1  UNL1       -0.3810
     15  C         15.5740  -22.5220   -6.1380 C.3     1  UNL1        0.1230
     16  C         14.5740  -22.1370   -5.0490 C.3     1  UNL1        0.0210
     17  C         15.2540  -22.6080   -3.7750 C.3     1  UNL1        0.0210
     18  C         16.7230  -22.2770   -4.0270 C.3     1  UNL1        0.1230
     19  C         24.3390  -22.4740  -11.8350 C.2     1  UNL1        0.0240
     20  C         25.4580  -23.3230  -11.7640 C.2     1  UNL1        0.0240
     21  C         26.0470  -23.8480  -12.9160 C.2     1  UNL1        0.0020
     22  C         25.5130  -23.5570  -14.1650 C.2     1  UNL1        0.0010
     23  C         24.3980  -22.7250  -14.2660 C.2     1  UNL1        0.0190
     24  C         23.8120  -22.1630  -13.1160 C.2     1  UNL1        0.0530
     25  C         22.6430  -21.2310  -13.2520 C.2     1  UNL1        0.2530
     26  O         22.6120  -20.4000  -14.1570 O.2     1  UNL1       -0.2680
     27  N         21.6030  -21.3930  -12.3580 N.am    1  UNL1       -0.3530
     28  H         21.5480  -22.2450  -11.8180 H       1  UNL1        0.1630
     29  C         20.3750  -20.6360  -12.4760 C.3     1  UNL1        0.1610
     30  C         19.2680  -21.2880  -11.6880 C.2     1  UNL1       -0.0410
     31  C         19.4510  -22.5500  -11.1030 C.2     1  UNL1        0.0090
     32  C         18.4160  -23.1560  -10.3880 C.2     1  UNL1        0.0010
     33  C         17.1870  -22.5100  -10.2580 C.2     1  UNL1        0.0000
     34  C         16.9910  -21.2600  -10.8430 C.2     1  UNL1        0.0010
     35  C         18.0250  -20.6520  -11.5580 C.2     1  UNL1        0.0090
@<TRIPOS>BOND
     1    23    22    2
     2    23    24    1
     3    22    21    1
     4    26    25    2
     5    25    24    1
     6    25    27   am
     7    24    19    2
     8    21    20    2
     9    29    27    1
    10    29    30    1
    11    27    28    1
    12    19    20    1
    13    19     1    1
    14    30    35    2
    15    30    31    1
    16    35    34    1
    17    31    32    2
    18    34    33    2
    19     1     2    1
    20     1     3    1
    21    32    33    1
    22     3     4    1
    23     5     4    2
    24     4     6   am
    25     6     7    1
    26     6     8    1
    27     9     8    2
    28     9    10    1
    29     8    13    1
    30    10    11    2
    31    13    12    2
    32    15    14    1
    33    15    16    1
    34    11    12    1
    35    11    14    1
    36    14    18    1
    37    16    17    1
    38    18    17    1
