@<TRIPOS>MOLECULE
39536_out_ligand_01.pdbqt
 27 30 0 0 0
SMALL
GASTEIGER

@<TRIPOS>ATOM
      1  N         21.2460  -23.3550   -9.0970 N.3     1  UNL1        0.1090
      2  C         22.5240  -24.0790   -8.9300 C.3     1  UNL1        0.2940
      3  C         23.7600  -23.2920   -9.3810 C.3     1  UNL1        0.1580
      4  N         23.5200  -22.6210  -10.6450 N.pl3   1  UNL1       -0.3560
      5  C         24.4730  -22.0430  -11.4360 C.2     1  UNL1        0.0910
      6  C         23.8410  -21.5500  -12.5550 C.2     1  UNL1        0.0190
      7  C         22.4610  -21.8400  -12.4240 C.2     1  UNL1        0.0290
      8  C         22.2730  -22.4760  -11.2070 C.2     1  UNL1        0.0490
      9  C         21.0400  -23.0610  -10.5460 C.3     1  UNL1        0.3060
     10  C         21.1480  -22.1540   -8.2470 C.3     1  UNL1        0.3120
     11  C         20.0120  -22.2130   -7.2390 C.2     1  UNL1       -0.0300
     12  C         19.8830  -21.2180   -6.2590 C.2     1  UNL1        0.0100
     13  C         18.8500  -21.2740   -5.3210 C.2     1  UNL1        0.0170
     14  C         17.9290  -22.3270   -5.3500 C.2     1  UNL1        0.0310
     15  C         18.0620  -23.3350   -6.3120 C.2     1  UNL1        0.0170
     16  C         19.0980  -23.2770   -7.2510 C.2     1  UNL1        0.0100
     17  C         16.8460  -22.3440   -4.3300 C.2     1  UNL1        0.2490
     18  N         17.0760  -21.6850   -3.1540 N.am    1  UNL1       -0.3660
     19  H         18.0060  -21.4340   -2.8520 H       1  UNL1        0.1590
     20  H         16.3780  -21.8240   -2.4330 H       1  UNL1        0.1590
     21  O         15.7990  -22.9510   -4.5090 O.2     1  UNL1       -0.2680
     22  C         19.7230  -22.3390  -10.8360 C.2     1  UNL1       -0.0190
     23  C         19.6690  -21.0590  -11.4160 C.2     1  UNL1        0.0100
     24  C         18.4440  -20.4250  -11.6410 C.2     1  UNL1        0.0010
     25  C         17.2550  -21.0520  -11.2790 C.2     1  UNL1        0.0000
     26  C         17.2880  -22.3120  -10.6860 C.2     1  UNL1        0.0010
     27  C         18.5110  -22.9480  -10.4620 C.2     1  UNL1        0.0100
@<TRIPOS>BOND
     1     6     7    1
     2     6     5    2
     3     7     8    2
     4    24    23    1
     5    24    25    2
     6     5     4    1
     7    23    22    2
     8    25    26    1
     9     8     4    1
    10     8     9    1
    11    22     9    1
    12    22    27    1
    13    26    27    2
    14     4     3    1
    15     9     1    1
    16     3     2    1
    17     1     2    1
    18     1    10    1
    19    10    11    1
    20    16    11    2
    21    16    15    1
    22    11    12    1
    23    15    14    2
    24    12    13    2
    25    14    13    1
    26    14    17    1
    27    21    17    2
    28    17    18   am
    29    18    19    1
    30    18    20    1
