@<TRIPOS>MOLECULE
39548_out_ligand_01.pdbqt
 37 40 0 0 0
SMALL
GASTEIGER

@<TRIPOS>ATOM
      1  N         22.0430  -22.5650   -9.4630 N.am    1  UNL1       -0.2520
      2  C         21.2350  -23.6390   -9.1320 C.2     1  UNL1        0.2700
      3  O         21.3300  -24.7500   -9.6410 O.2     1  UNL1       -0.2660
      4  H         22.1820  -21.8110   -8.8030 H       1  UNL1        0.1910
      5  C         20.2400  -23.3950   -8.0500 C.2     1  UNL1        0.0330
      6  C         20.1550  -22.1630   -7.3840 C.2     1  UNL1        0.0180
      7  C         19.2040  -21.9790   -6.3760 C.2     1  UNL1        0.0260
      8  C         18.3410  -23.0270   -6.0400 C.2     1  UNL1        0.0750
      9  C         18.4000  -24.2490   -6.7150 C.2     1  UNL1        0.0260
     10  C         19.3510  -24.4290   -7.7220 C.2     1  UNL1        0.0180
     11  S         17.1270  -22.7650   -4.7610 S.O2    1  UNL1        0.2470
     12  O         17.6030  -21.6890   -3.9130 O.2     1  UNL1       -0.2050
     13  O         16.8190  -24.0710   -4.2190 O.2     1  UNL1       -0.2050
     14  N         15.7830  -22.1850   -5.6620 N.pl3   1  UNL1       -0.1760
     15  C         14.4880  -22.2070   -4.9400 C.3     1  UNL1        0.1360
     16  C         15.7070  -22.7170   -7.0000 C.2     1  UNL1        0.0250
     17  C         15.3030  -24.0460   -7.1470 C.2     1  UNL1        0.0240
     18  C         15.2720  -24.6320   -8.4130 C.2     1  UNL1        0.0020
     19  C         15.6640  -23.8970   -9.5310 C.2     1  UNL1        0.0000
     20  C         16.0920  -22.5770   -9.3840 C.2     1  UNL1        0.0020
     21  C         16.1240  -21.9900   -8.1180 C.2     1  UNL1        0.0240
     22  N         23.1230  -22.8350  -10.2940 N.am    1  UNL1       -0.1670
     23  C         24.2860  -23.4120   -9.8600 C.2     1  UNL1        0.3450
     24  N         25.2030  -23.3290  -10.8900 N.am    1  UNL1       -0.3190
     25  O         24.5280  -23.9260   -8.7800 O.2     1  UNL1       -0.2450
     26  C         24.7050  -22.5610  -12.0250 C.3     1  UNL1        0.1450
     27  H         26.1700  -23.5840  -10.7400 H       1  UNL1        0.1660
     28  C         23.2550  -22.2820  -11.5450 C.2     1  UNL1        0.2800
     29  O         22.3780  -21.7000  -12.1730 O.2     1  UNL1       -0.2680
     30  C         24.6370  -23.4860  -13.2630 C.3     1  UNL1        0.0420
     31  C         25.9350  -24.2330  -13.5550 C.3     1  UNL1        0.0080
     32  C         25.4560  -21.2420  -12.2150 C.2     1  UNL1       -0.0210
     33  C         25.5510  -20.6240  -13.4770 C.2     1  UNL1        0.0100
     34  C         26.2540  -19.4270  -13.6490 C.2     1  UNL1        0.0010
     35  C         26.8860  -18.8270  -12.5670 C.2     1  UNL1        0.0000
     36  C         26.8330  -19.4310  -11.3150 C.2     1  UNL1        0.0010
     37  C         26.1330  -20.6300  -11.1440 C.2     1  UNL1        0.0100
@<TRIPOS>BOND
     1    34    33    1
     2    34    35    2
     3    31    30    1
     4    33    32    2
     5    30    26    1
     6    35    36    1
     7    32    26    1
     8    32    37    1
     9    29    28    2
    10    26    28    1
    11    26    24    1
    12    28    22   am
    13    36    37    2
    14    24    27    1
    15    24    23   am
    16    22    23   am
    17    22     1    1
    18    23    25    2
    19     3     2    2
    20    19    20    2
    21    19    18    1
    22     1     2   am
    23     1     4    1
    24    20    21    1
    25     2     5    1
    26    18    17    2
    27    21    16    2
    28     5    10    2
    29     5     6    1
    30    10     9    1
    31     6     7    2
    32    17    16    1
    33    16    14    1
    34     9     8    2
    35     7     8    1
    36     8    11    1
    37    14    15    1
    38    14    11    1
    39    11    13    2
    40    11    12    2
