@<TRIPOS>MOLECULE
39558_out_ligand_01.pdbqt
 35 38 0 0 0
SMALL
GASTEIGER

@<TRIPOS>ATOM
      1  C         19.7600  -23.1430   -9.8430 C.2     1  UNL1        0.0340
      2  C         20.1920  -22.3500  -10.9090 C.2     1  UNL1        0.0310
      3  C         21.5570  -22.1420  -11.1350 C.2     1  UNL1        0.0270
      4  C         22.4940  -22.7320  -10.2870 C.2     1  UNL1        0.0790
      5  C         22.0800  -23.5330   -9.2220 C.2     1  UNL1        0.0270
      6  C         20.7140  -23.7340   -9.0040 C.2     1  UNL1        0.0310
      7  N         18.4040  -23.4060   -9.5530 N.am    1  UNL1       -0.3270
      8  C         17.3020  -22.6870   -9.9700 C.2     1  UNL1        0.2220
      9  O         17.3100  -21.6450  -10.6170 O.2     1  UNL1       -0.2730
     10  H         18.2380  -24.1990   -8.9290 H       1  UNL1        0.1690
     11  C         15.9830  -23.2810   -9.5050 C.3     1  UNL1        0.1050
     12  C         15.6870  -22.9260   -8.0480 C.3     1  UNL1        0.0290
     13  C         16.0560  -24.0130   -7.0360 C.3     1  UNL1        0.1350
     14  N         16.3770  -23.4890   -5.7300 N.ar    1  UNL1       -0.2910
     15  C         15.7130  -23.7620   -4.5510 C.ar    1  UNL1        0.3720
     16  O         14.7350  -24.4950   -4.4390 O.2     1  UNL1       -0.2370
     17  O         16.2770  -23.0680   -3.4740 O.2     1  UNL1       -0.2590
     18  C         17.2870  -22.3450   -4.0860 C.ar    1  UNL1        0.1070
     19  C         18.1400  -21.4690   -3.4480 C.2     1  UNL1        0.0400
     20  C         17.3650  -22.5740   -5.4460 C.ar    1  UNL1        0.0730
     21  C         19.0950  -20.8150   -4.2330 C.2     1  UNL1        0.0030
     22  C         19.1670  -21.0480   -5.6210 C.2     1  UNL1        0.0020
     23  C         18.2910  -21.9410   -6.2460 C.2     1  UNL1        0.0330
     24  S         24.2240  -22.4600  -10.5460 S.O2    1  UNL1        0.2590
     25  O         24.9770  -23.5240   -9.9210 O.2     1  UNL1       -0.2010
     26  O         24.4970  -21.0650  -10.2910 O.2     1  UNL1       -0.2010
     27  N         24.3600  -22.6710  -12.2140 N.3     1  UNL1       -0.3100
     28  H         23.5310  -22.3250  -12.7070 H       1  UNL1        0.1720
     29  C         25.6960  -22.6240  -12.8300 C.3     1  UNL1        0.1080
     30  C         26.0530  -23.9990  -13.4000 C.3     1  UNL1        0.0410
     31  C         25.2650  -24.1670  -14.6880 C.3     1  UNL1        0.1420
     32  S         25.2140  -22.5420  -15.4190 S.O2    1  UNL1        0.1460
     33  O         23.8290  -22.2160  -15.6880 O.2     1  UNL1       -0.2280
     34  O         26.2450  -22.4570  -16.4330 O.2     1  UNL1       -0.2280
     35  C         25.7470  -21.6300  -13.9820 C.3     1  UNL1        0.1660
@<TRIPOS>BOND
     1    34    32    2
     2    33    32    2
     3    32    31    1
     4    32    35    1
     5    31    30    1
     6    35    29    1
     7    30    29    1
     8    29    27    1
     9    28    27    1
    10    27    24    1
    11     3     2    1
    12     3     4    2
    13     2     1    2
    14     9     8    2
    15    24    26    2
    16    24     4    1
    17    24    25    2
    18     4     5    1
    19     8     7   am
    20     8    11    1
    21     1     7    1
    22     1     6    1
    23     7    10    1
    24    11    12    1
    25     5     6    2
    26    12    13    1
    27    13    14    1
    28    23    22    2
    29    23    20    1
    30    14    20   ar
    31    14    15   ar
    32    22    21    1
    33    20    18   ar
    34    15    16    2
    35    15    17   ar
    36    21    19    2
    37    18    17   ar
    38    18    19    1
