@<TRIPOS>MOLECULE
39569_out_ligand_01.pdbqt
 36 39 0 0 0
SMALL
GASTEIGER

@<TRIPOS>ATOM
      1  C         22.3540  -22.3730  -10.0040 C.2     1  UNL1        0.0340
      2  C         22.2890  -22.5640  -11.3920 C.2     1  UNL1        0.0310
      3  C         23.3470  -22.1770  -12.2200 C.2     1  UNL1        0.0270
      4  C         24.4860  -21.6030  -11.6530 C.2     1  UNL1        0.0790
      5  C         24.5620  -21.3950  -10.2750 C.2     1  UNL1        0.0270
      6  C         23.4970  -21.7840   -9.4560 C.2     1  UNL1        0.0310
      7  N         21.2430  -22.7970   -9.2460 N.am    1  UNL1       -0.3270
      8  C         20.9600  -24.0850   -8.8040 C.2     1  UNL1        0.2230
      9  O         21.6830  -25.0610   -8.9540 O.2     1  UNL1       -0.2730
     10  H         20.5740  -22.0770   -9.0030 H       1  UNL1        0.1690
     11  C         19.6540  -24.1280   -8.0150 C.3     1  UNL1        0.1170
     12  C         18.9480  -22.7790   -7.7570 C.3     1  UNL1        0.0600
     13  C         18.6410  -22.3760   -6.3130 C.2     1  UNL1       -0.0490
     14  C         17.8800  -23.1590   -5.4330 C.2     1  UNL1        0.0080
     15  C         17.6630  -22.7530   -4.1120 C.2     1  UNL1        0.0010
     16  C         18.2080  -21.5610   -3.6430 C.2     1  UNL1        0.0000
     17  C         18.9720  -20.7720   -4.4950 C.2     1  UNL1        0.0010
     18  C         19.1900  -21.1770   -5.8130 C.2     1  UNL1        0.0080
     19  C         17.8010  -22.5650   -8.7470 C.2     1  UNL1       -0.0490
     20  C         16.5730  -23.2180   -8.5450 C.2     1  UNL1        0.0080
     21  C         15.5070  -23.0220   -9.4240 C.2     1  UNL1        0.0010
     22  C         15.6500  -22.1690  -10.5160 C.2     1  UNL1        0.0000
     23  C         16.8590  -21.5110  -10.7280 C.2     1  UNL1        0.0010
     24  C         17.9260  -21.7060   -9.8490 C.2     1  UNL1        0.0080
     25  S         25.8370  -21.1020  -12.6850 S.O2    1  UNL1        0.2590
     26  O         27.0610  -21.2720  -11.9370 O.2     1  UNL1       -0.2010
     27  O         25.4970  -19.8550  -13.3340 O.2     1  UNL1       -0.2010
     28  N         25.8350  -22.3050  -13.8570 N.3     1  UNL1       -0.3100
     29  H         26.3390  -23.1460  -13.5740 H       1  UNL1        0.1720
     30  C         25.7000  -21.9460  -15.2700 C.3     1  UNL1        0.1080
     31  C         26.8370  -22.5550  -16.0920 C.3     1  UNL1        0.0410
     32  C         26.4610  -22.3240  -17.5500 C.3     1  UNL1        0.1420
     33  S         24.6840  -22.5060  -17.6080 S.O2    1  UNL1        0.1460
     34  O         24.1160  -21.2900  -18.1520 O.2     1  UNL1       -0.2280
     35  O         24.3650  -23.8160  -18.1330 O.2     1  UNL1       -0.2280
     36  C         24.4120  -22.5180  -15.8470 C.3     1  UNL1        0.1660
@<TRIPOS>BOND
     1    34    33    2
     2    35    33    2
     3    33    32    1
     4    33    36    1
     5    32    31    1
     6    31    30    1
     7    36    30    1
     8    30    28    1
     9    28    29    1
    10    28    25    1
    11    27    25    2
    12    25    26    2
    13    25     4    1
    14     3     4    2
    15     3     2    1
    16     4     5    1
    17     2     1    2
    18    23    22    2
    19    23    24    1
    20    22    21    1
    21     5     6    2
    22     1     6    1
    23     1     7    1
    24    24    19    2
    25    21    20    2
    26     7    10    1
    27     7     8   am
    28     9     8    2
    29     8    11    1
    30    19    20    1
    31    19    12    1
    32    11    12    1
    33    12    13    1
    34    13    18    2
    35    13    14    1
    36    18    17    1
    37    14    15    2
    38    17    16    2
    39    15    16    1
