@<TRIPOS>MOLECULE
39562_out_ligand_01.pdbqt
 34 37 0 0 0
SMALL
GASTEIGER

@<TRIPOS>ATOM
      1  C         19.7250  -23.1090   -9.7080 C.2     1  UNL1        0.0340
      2  C         20.6880  -23.7950   -8.9520 C.2     1  UNL1        0.0310
      3  C         22.0470  -23.6940   -9.2630 C.2     1  UNL1        0.0270
      4  C         22.4480  -22.9060  -10.3420 C.2     1  UNL1        0.0790
      5  C         21.5060  -22.2040  -11.0940 C.2     1  UNL1        0.0270
      6  C         20.1460  -22.3130  -10.7770 C.2     1  UNL1        0.0310
      7  N         18.3780  -23.2650   -9.3220 N.am    1  UNL1       -0.3270
      8  C         17.2890  -22.5080   -9.7260 C.2     1  UNL1        0.2220
      9  O         17.3190  -21.5520  -10.4940 O.2     1  UNL1       -0.2730
     10  H         18.1850  -24.0390   -8.6990 H       1  UNL1        0.1690
     11  C         16.0030  -22.9480   -9.0410 C.3     1  UNL1        0.1080
     12  C         16.2340  -24.0690   -8.0320 C.3     1  UNL1        0.0500
     13  C         16.1430  -23.5870   -6.6170 C.2     1  UNL1       -0.0300
     14  C         15.1370  -23.8840   -5.7190 C.2     1  UNL1        0.0960
     15  N         15.4160  -23.2610   -4.5350 N.pl3   1  UNL1       -0.3650
     16  C         16.5970  -22.5640   -4.6310 C.2     1  UNL1        0.0420
     17  H         14.8400  -23.3030   -3.7060 H       1  UNL1        0.1650
     18  C         17.2690  -21.7910   -3.6760 C.2     1  UNL1        0.0300
     19  C         17.0770  -22.7450   -5.9290 C.2     1  UNL1       -0.0020
     20  C         18.4690  -21.1850   -4.0600 C.2     1  UNL1        0.0020
     21  C         18.9730  -21.3450   -5.3490 C.2     1  UNL1        0.0010
     22  C         18.2890  -22.1210   -6.2910 C.2     1  UNL1        0.0140
     23  S         24.1720  -22.7670  -10.7250 S.O2    1  UNL1        0.2590
     24  O         24.9040  -23.5940   -9.7920 O.2     1  UNL1       -0.2010
     25  O         24.5040  -21.3790  -10.9470 O.2     1  UNL1       -0.2010
     26  N         24.2600  -23.5540  -12.2070 N.3     1  UNL1       -0.3100
     27  H         24.2240  -24.5720  -12.1190 H       1  UNL1        0.1720
     28  C         24.9680  -22.9250  -13.3260 C.3     1  UNL1        0.1080
     29  C         23.9750  -22.1010  -14.1510 C.3     1  UNL1        0.0410
     30  C         24.7320  -21.6770  -15.4000 C.3     1  UNL1        0.1420
     31  S         25.7500  -23.0820  -15.8200 S.O2    1  UNL1        0.1460
     32  O         27.1200  -22.6300  -15.9400 O.2     1  UNL1       -0.2280
     33  O         25.0860  -23.8350  -16.8640 O.2     1  UNL1       -0.2280
     34  C         25.5580  -23.9570  -14.2780 C.3     1  UNL1        0.1660
@<TRIPOS>BOND
     1    33    31    2
     2    32    31    2
     3    31    30    1
     4    31    34    1
     5    30    29    1
     6    34    28    1
     7    29    28    1
     8    28    26    1
     9    26    27    1
    10    26    23    1
    11     5     6    1
    12     5     4    2
    13    25    23    2
    14     6     1    2
    15    23     4    1
    16    23    24    2
    17     9     8    2
    18     4     3    1
    19     8     7   am
    20     8    11    1
    21     1     7    1
    22     1     2    1
    23     7    10    1
    24     3     2    2
    25    11    12    1
    26    12    13    1
    27    13    19    1
    28    13    14    2
    29    22    19    1
    30    22    21    2
    31    19    16    2
    32    14    15    1
    33    21    20    1
    34    16    15    1
    35    16    18    1
    36    15    17    1
    37    20    18    2
