@<TRIPOS>MOLECULE
39585_out_ligand_01.pdbqt
 34 37 0 0 0
SMALL
GASTEIGER

@<TRIPOS>ATOM
      1  C         20.3730  -23.4360   -9.3620 C.2     1  UNL1        0.2560
      2  O         20.4640  -24.5560   -9.8490 O.2     1  UNL1       -0.2670
      3  N         20.9520  -22.2740   -9.8430 N.am    1  UNL1       -0.3230
      4  H         20.9190  -21.4630   -9.2400 H       1  UNL1        0.1690
      5  C         21.6630  -22.1110  -11.0510 C.2     1  UNL1        0.0360
      6  C         21.1880  -21.3780  -12.1420 C.2     1  UNL1        0.0290
      7  C         21.9630  -21.2320  -13.2970 C.2     1  UNL1        0.0040
      8  C         23.2220  -21.8220  -13.3780 C.2     1  UNL1        0.0250
      9  C         23.6920  -22.5730  -12.3000 C.2     1  UNL1        0.0820
     10  C         22.9270  -22.7050  -11.1330 C.2     1  UNL1        0.0540
     11  S         25.3080  -23.2980  -12.3680 S.O2    1  UNL1        0.2640
     12  O         25.8170  -23.4750  -11.0270 O.2     1  UNL1       -0.2000
     13  O         25.2310  -24.4240  -13.2800 O.2     1  UNL1       -0.2000
     14  N         26.2150  -22.1590  -13.1750 N.3     1  UNL1       -0.2680
     15  H         26.6440  -22.5370  -14.0140 H       1  UNL1        0.1800
     16  C         26.4740  -20.8550  -12.7670 C.3     1  UNL1        0.1080
     17  N         26.8160  -20.5230  -11.5680 N.3     1  UNL1       -0.2760
     18  C         26.9520  -19.0520  -11.6000 C.3     1  UNL1        0.1510
     19  C         27.1200  -18.6870  -13.0660 C.3     1  UNL1        0.0290
     20  C         26.3110  -19.7550  -13.7630 C.3     1  UNL1        0.0800
     21  C         19.6150  -23.2760   -8.0890 C.2     1  UNL1        0.0330
     22  C         19.7630  -22.1430   -7.2770 C.2     1  UNL1        0.0260
     23  C         19.0330  -22.0210   -6.0810 C.2     1  UNL1       -0.0300
     24  C         19.2840  -20.8230   -5.1990 C.3     1  UNL1        0.0420
     25  C         18.1370  -23.0400   -5.7070 C.2     1  UNL1        0.0510
     26  C         18.2530  -20.6630   -4.0900 C.3     1  UNL1        0.0260
     27  C         17.9560  -22.0100   -3.4520 C.3     1  UNL1        0.1420
     28  N         17.3940  -22.9280   -4.4750 N.pl3   1  UNL1       -0.2760
     29  C         18.0000  -24.1690   -6.5210 C.2     1  UNL1        0.0320
     30  C         18.7230  -24.2820   -7.7110 C.2     1  UNL1        0.0190
     31  S         15.6810  -23.0030   -4.5480 S.O2    1  UNL1        0.2290
     32  C         15.4270  -22.3760   -6.1920 C.3     1  UNL1        0.1860
     33  O         15.2790  -24.3950   -4.5400 O.2     1  UNL1       -0.2060
     34  O         15.0800  -22.0470   -3.6440 O.2     1  UNL1       -0.2060
@<TRIPOS>BOND
     1    15    14    1
     2    20    19    1
     3    20    16    1
     4     8     7    2
     5     8     9    1
     6     7     6    1
     7    13    11    2
     8    14    16    1
     9    14    11    1
    10    19    18    1
    11    16    17    1
    12    11     9    1
    13    11    12    2
    14     9    10    2
    15     6     5    2
    16    18    17    1
    17    10     5    1
    18     5     3    1
    19     2     1    2
    20     3     1   am
    21     3     4    1
    22     1    21    1
    23    21    30    2
    24    21    22    1
    25    30    29    1
    26    22    23    2
    27    29    25    2
    28    32    31    1
    29    23    25    1
    30    23    24    1
    31    25    28    1
    32    24    26    1
    33    31    33    2
    34    31    28    1
    35    31    34    2
    36    28    27    1
    37    26    27    1
