@<TRIPOS>MOLECULE
39603_out_ligand_01.pdbqt
 27 29 0 0 0
SMALL
GASTEIGER

@<TRIPOS>ATOM
      1  C         21.1830  -22.5280   -8.7060 C.2     1  UNL1        0.2560
      2  O         22.2190  -22.1730   -8.1600 O.2     1  UNL1       -0.2670
      3  N         20.9490  -22.6320  -10.0650 N.am    1  UNL1       -0.3230
      4  H         19.9950  -22.8020  -10.3540 H       1  UNL1        0.1690
      5  C         20.0080  -22.8530   -7.8470 C.2     1  UNL1        0.0320
      6  C         19.3020  -24.0530   -7.9900 C.2     1  UNL1        0.0170
      7  C         18.2070  -24.3240   -7.1630 C.2     1  UNL1        0.0100
      8  C         17.8160  -23.4050   -6.1770 C.2     1  UNL1       -0.0400
      9  C         18.5340  -22.2090   -6.0370 C.2     1  UNL1        0.0100
     10  C         19.6290  -21.9370   -6.8590 C.2     1  UNL1        0.0170
     11  C         16.6280  -23.6820   -5.2900 C.3     1  UNL1        0.1610
     12  N         15.4540  -22.9930   -5.7760 N.am    1  UNL1       -0.3570
     13  C         14.7030  -22.1810   -4.9580 C.2     1  UNL1        0.2130
     14  C         13.5910  -21.4560   -5.6670 C.3     1  UNL1        0.1170
     15  O         14.9110  -22.0370   -3.7590 O.2     1  UNL1       -0.2740
     16  H         15.3330  -22.9250   -6.7760 H       1  UNL1        0.1620
     17  C         21.8760  -22.4280  -11.1110 C.2     1  UNL1        0.0370
     18  C         21.4650  -21.6160  -12.1750 C.2     1  UNL1        0.0320
     19  C         22.3250  -21.3570  -13.2450 C.2     1  UNL1        0.0420
     20  C         23.6070  -21.9040  -13.2680 C.2     1  UNL1        0.1020
     21  C         24.0050  -22.7650  -12.2360 C.2     1  UNL1        0.1040
     22  O         24.3730  -21.5400  -14.3460 O.2     1  UNL1       -0.3480
     23  C         23.1500  -22.9980  -11.1510 C.2     1  UNL1        0.0690
     24  O         25.2100  -23.4230  -12.1760 O.2     1  UNL1       -0.3480
     25  C         25.6850  -23.8570  -13.4500 C.3     1  UNL1        0.1780
     26  C         26.4680  -22.7550  -14.1420 C.3     1  UNL1        0.0530
     27  C         25.7620  -21.4150  -14.0420 C.3     1  UNL1        0.1780
@<TRIPOS>BOND
     1    22    27    1
     2    22    20    1
     3    26    27    1
     4    26    25    1
     5    25    24    1
     6    20    19    2
     7    20    21    1
     8    19    18    1
     9    21    24    1
    10    21    23    2
    11    18    17    2
    12    23    17    1
    13    17     3    1
    14     4     3    1
    15     3     1   am
    16     1     2    2
    17     1     5    1
    18     6     5    2
    19     6     7    1
    20     5    10    1
    21     7     8    2
    22    10     9    2
    23    16    12    1
    24     8     9    1
    25     8    11    1
    26    12    11    1
    27    12    13   am
    28    14    13    1
    29    13    15    2
