@<TRIPOS>MOLECULE
39605_out_ligand_01.pdbqt
 28 30 0 0 0
SMALL
GASTEIGER

@<TRIPOS>ATOM
      1  C         20.7270  -22.9140   -9.0380 C.2     1  UNL1        0.2520
      2  O         21.2950  -22.6100   -7.9980 O.2     1  UNL1       -0.2680
      3  N         19.5340  -23.5970   -9.1030 N.am    1  UNL1       -0.3560
      4  H         19.1900  -23.8790  -10.0100 H       1  UNL1        0.1620
      5  C         21.2890  -22.4910  -10.3450 C.2     1  UNL1        0.0390
      6  C         20.5740  -21.7040  -11.2720 C.2     1  UNL1       -0.0460
      7  C         21.2190  -21.3100  -12.4570 C.2     1  UNL1        0.0090
      8  C         19.1500  -21.2710  -11.0530 C.3     1  UNL1        0.0490
      9  C         22.5260  -21.7190  -12.7340 C.2     1  UNL1        0.0260
     10  C         23.2020  -22.5280  -11.8190 C.2     1  UNL1        0.0800
     11  C         22.5890  -22.9280  -10.6320 C.2     1  UNL1        0.0420
     12  S         24.8530  -23.0780  -12.1680 S.O2    1  UNL1        0.2580
     13  O         25.6370  -21.9330  -12.5740 O.2     1  UNL1       -0.2010
     14  O         24.7580  -24.2700  -12.9800 O.2     1  UNL1       -0.2010
     15  N         25.3950  -23.5650  -10.6640 N.3     1  UNL1       -0.3200
     16  C         26.7960  -23.8690  -10.4380 C.3     1  UNL1        0.1590
     17  H         24.7850  -23.3340   -9.8810 H       1  UNL1        0.1710
     18  C         18.9770  -24.2340   -7.9250 C.3     1  UNL1        0.1370
     19  C         17.7410  -23.4370   -7.4600 C.3     1  UNL1        0.0030
     20  C         16.3890  -24.2350   -7.5510 C.3     1  UNL1        0.0160
     21  C         16.2210  -23.7130   -8.9880 C.3     1  UNL1        0.0020
     22  C         17.1510  -22.5470   -8.6140 C.3     1  UNL1        0.0160
     23  C         18.0570  -22.6530   -6.0840 C.2     1  UNL1       -0.0480
     24  C         17.5960  -23.1350   -4.8410 C.2     1  UNL1        0.0080
     25  C         17.8400  -22.4580   -3.6420 C.2     1  UNL1        0.0010
     26  C         18.5590  -21.2680   -3.6510 C.2     1  UNL1        0.0000
     27  C         19.0340  -20.7600   -4.8550 C.2     1  UNL1        0.0010
     28  C         18.7840  -21.4450   -6.0490 C.2     1  UNL1        0.0080
@<TRIPOS>BOND
     1    14    12    2
     2     9     7    2
     3     9    10    1
     4    13    12    2
     5     7     6    1
     6    12    10    1
     7    12    15    1
     8    10    11    2
     9     6     8    1
    10     6     5    2
    11    15    16    1
    12    15    17    1
    13    11     5    1
    14     5     1    1
    15     4     3    1
    16     3     1   am
    17     3    18    1
    18     1     2    2
    19    21    22    1
    20    21    20    1
    21    22    19    1
    22    18    19    1
    23    20    19    1
    24    19    23    1
    25    23    28    2
    26    23    24    1
    27    28    27    1
    28    27    26    2
    29    24    25    2
    30    26    25    1
