@<TRIPOS>MOLECULE
3961_out_ligand_01.pdbqt
 38 41 0 0 0
SMALL
GASTEIGER

@<TRIPOS>ATOM
      1  C         19.7840  -21.7860  -11.2500 C.2     1  UNL1        0.0340
      2  C         18.5320  -21.2370  -11.5180 C.2     1  UNL1        0.0310
      3  C         17.3970  -21.7070  -10.8480 C.2     1  UNL1        0.0270
      4  C         17.5210  -22.6990   -9.8760 C.2     1  UNL1        0.0800
      5  C         18.7610  -23.2740   -9.6190 C.2     1  UNL1        0.0270
      6  C         19.8860  -22.8170  -10.3070 C.2     1  UNL1        0.0310
      7  N         20.9790  -21.3650  -11.8590 N.am    1  UNL1       -0.3260
      8  C         22.1750  -22.0450  -11.9700 C.2     1  UNL1        0.2410
      9  O         22.4270  -23.1500  -11.4840 O.2     1  UNL1       -0.2710
     10  H         20.9550  -20.4310  -12.2720 H       1  UNL1        0.1690
     11  C         23.2460  -21.2770  -12.7410 C.3     1  UNL1        0.2440
     12  N         24.6170  -21.8320  -12.6030 N.pl3   1  UNL1       -0.2660
     13  S         25.5100  -21.5240  -11.2120 S.O2    1  UNL1        0.2290
     14  C         26.0160  -23.1610  -10.7260 C.3     1  UNL1        0.1860
     15  O         24.5710  -21.0320  -10.2210 O.2     1  UNL1       -0.2060
     16  O         26.7010  -20.7710  -11.5320 O.2     1  UNL1       -0.2060
     17  C         25.2940  -22.3220  -13.7730 C.2     1  UNL1        0.0620
     18  C         25.4270  -23.6980  -13.9490 C.2     1  UNL1        0.0310
     19  C         26.1000  -24.2030  -15.0650 C.2     1  UNL1        0.0020
     20  C         26.6570  -23.3400  -16.0080 C.2     1  UNL1        0.0020
     21  C         26.5360  -21.9660  -15.8350 C.2     1  UNL1        0.0210
     22  C         25.8540  -21.4530  -14.7220 C.2     1  UNL1        0.0380
     23 BR         25.7080  -19.5630  -14.5630 Br      1  UNL1       -0.0490
     24  S         16.0880  -23.2510   -8.9780 S.O2    1  UNL1        0.2630
     25  O         15.4150  -24.2400   -9.7990 O.2     1  UNL1       -0.2000
     26  O         15.3860  -22.0800   -8.4920 O.2     1  UNL1       -0.2000
     27  N         16.7370  -24.1100   -7.6750 N.pl3   1  UNL1       -0.2800
     28  H         17.6000  -24.5870   -7.9010 H       1  UNL1        0.1790
     29  C         16.5630  -23.6080   -6.3480 C.2     1  UNL1        0.0530
     30  C         15.4360  -24.0360   -5.6400 C.2     1  UNL1        0.0310
     31  C         15.1720  -23.5370   -4.3690 C.2     1  UNL1        0.0030
     32  C         16.0350  -22.6050   -3.8010 C.2     1  UNL1        0.0120
     33  C         17.1740  -22.1560   -4.4930 C.2     1  UNL1       -0.0240
     34  C         18.0260  -21.2090   -3.9050 C.2     1  UNL1        0.0120
     35  C         17.4590  -22.6580   -5.7880 C.2     1  UNL1        0.0010
     36  C         19.1520  -20.7390   -4.5840 C.2     1  UNL1        0.0010
     37  C         19.4430  -21.2110   -5.8590 C.2     1  UNL1        0.0010
     38  C         18.6120  -22.1640   -6.4520 C.2     1  UNL1        0.0140
@<TRIPOS>BOND
     1    20    21    2
     2    20    19    1
     3    21    22    1
     4    19    18    2
     5    22    23    1
     6    22    17    2
     7    18    17    1
     8    17    12    1
     9    11    12    1
    10    11     8    1
    11    12    13    1
    12    10     7    1
    13     8     7   am
    14     8     9    2
    15     7     1    1
    16    16    13    2
    17     2     1    2
    18     2     3    1
    19     1     6    1
    20    13    14    1
    21    13    15    2
    22     3     4    2
    23     6     5    2
    24     4     5    1
    25     4    24    1
    26    25    24    2
    27    24    26    2
    28    24    27    1
    29    28    27    1
    30    27    29    1
    31    38    37    2
    32    38    35    1
    33    29    35    2
    34    29    30    1
    35    37    36    1
    36    35    33    1
    37    30    31    2
    38    36    34    2
    39    33    34    1
    40    33    32    2
    41    31    32    1
