@<TRIPOS>MOLECULE
39622_out_ligand_01.pdbqt
 31 35 0 0 0
SMALL
GASTEIGER

@<TRIPOS>ATOM
      1  C         23.0720  -22.7160  -10.5180 C.ar    1  UNL1        0.2110
      2  N         23.5750  -23.5450   -9.6190 N.ar    1  UNL1       -0.1070
      3  N         22.5070  -24.1830   -8.9790 N.ar    1  UNL1        0.0450
      4  C         21.4100  -23.7270   -9.5340 C.ar    1  UNL1        0.7350
      5  N         20.0550  -23.8240   -9.4190 N.ar    1  UNL1       -0.1730
      6  C         19.5200  -22.8410  -10.2700 C.ar    1  UNL1        0.0800
      7  C         18.2290  -22.4330  -10.5070 C.2     1  UNL1        0.0320
      8  C         18.0150  -21.4040  -11.4410 C.2     1  UNL1        0.0020
      9  C         19.0860  -20.7980  -12.1310 C.2     1  UNL1        0.0020
     10  C         20.4000  -21.2010  -11.9070 C.2     1  UNL1        0.0330
     11  C         20.5700  -22.2100  -10.9850 C.ar    1  UNL1        0.0870
     12  N         21.7210  -22.7950  -10.4850 N.ar    1  UNL1       -0.1170
     13  S         23.9790  -21.6120  -11.4850 S.3     1  UNL1       -0.0800
     14  C         24.0250  -22.5260  -13.0550 C.3     1  UNL1        0.1850
     15  C         23.9130  -21.6070  -14.2570 C.2     1  UNL1        0.2330
     16  O         23.0610  -20.7160  -14.2700 O.2     1  UNL1       -0.2720
     17  N         24.8780  -21.8480  -15.2170 N.am    1  UNL1       -0.3050
     18  H         25.4910  -22.6590  -15.1540 H       1  UNL1        0.1710
     19  C         25.0870  -21.0060  -16.2710 C.2     1  UNL1        0.1720
     20  N         24.4690  -20.9400  -17.4220 N.2     1  UNL1       -0.2360
     21  C         24.9720  -19.8820  -18.1530 C.2     1  UNL1        0.1260
     22  C         25.9610  -19.1470  -17.5270 C.2     1  UNL1        0.0720
     23  S         26.3060  -19.8390  -15.9930 S.3     1  UNL1       -0.0620
     24  C         19.4600  -24.2750   -8.1710 C.3     1  UNL1        0.1880
     25  C         19.2300  -23.1630   -7.1700 C.2     1  UNL1       -0.0180
     26  C         20.2000  -22.1500   -7.0360 C.2     1  UNL1        0.0100
     27  C         20.0180  -21.0960   -6.1440 C.2     1  UNL1        0.0010
     28  C         18.8710  -21.0400   -5.3550 C.2     1  UNL1        0.0020
     29  C         17.9120  -22.0460   -5.4560 C.2     1  UNL1        0.0240
     30  C         18.0890  -23.1050   -6.3520 C.2     1  UNL1        0.0420
     31 CL         16.8750  -24.3370   -6.3710 Cl      1  UNL1       -0.0840
@<TRIPOS>BOND
     1    21    22    2
     2    21    20    1
     3    22    23    1
     4    20    19    2
     5    19    23    1
     6    19    17    1
     7    17    18    1
     8    17    15   am
     9    16    15    2
    10    15    14    1
    11    14    13    1
    12     9    10    2
    13     9     8    1
    14    10    11    1
    15    13     1    1
    16     8     7    2
    17    11    12   ar
    18    11     6   ar
    19     1    12   ar
    20     1     2   ar
    21     7     6    1
    22    12     4   ar
    23     6     5   ar
    24     2     3   ar
    25     4     5   ar
    26     4     3   ar
    27     5    24    1
    28    24    25    1
    29    25    26    2
    30    25    30    1
    31    26    27    1
    32    31    30    1
    33    30    29    2
    34    27    28    2
    35    29    28    1
