@<TRIPOS>MOLECULE
39621_out_ligand_01.pdbqt
 36 41 0 0 0
SMALL
GASTEIGER

@<TRIPOS>ATOM
      1  N         20.3670  -24.1430   -9.4870 N.ar    1  UNL1       -0.1680
      2  C         19.8490  -23.0620  -10.2290 C.ar    1  UNL1        0.0800
      3  C         18.5500  -22.7300  -10.5410 C.2     1  UNL1        0.0320
      4  C         18.3430  -21.5830  -11.3220 C.2     1  UNL1        0.0020
      5  C         19.4210  -20.7880  -11.7720 C.2     1  UNL1        0.0020
      6  C         20.7420  -21.1090  -11.4520 C.2     1  UNL1        0.0330
      7  C         20.9120  -22.2410  -10.6900 C.ar    1  UNL1        0.0870
      8  N         22.0450  -22.8180  -10.1390 N.ar    1  UNL1       -0.1170
      9  C         23.3810  -22.6560   -9.9900 C.ar    1  UNL1        0.2110
     10  N         23.8330  -23.6040   -9.1840 N.ar    1  UNL1       -0.1070
     11  N         22.7570  -24.4070   -8.7950 N.ar    1  UNL1        0.0450
     12  C         21.7080  -23.9310   -9.4130 C.ar    1  UNL1        0.7350
     13  S         24.2990  -21.3790  -10.6930 S.3     1  UNL1       -0.0800
     14  C         25.8090  -22.2830  -11.1460 C.3     1  UNL1        0.1850
     15  C         25.6780  -23.0000  -12.4810 C.2     1  UNL1        0.2340
     16  O         25.6720  -24.2310  -12.5480 O.2     1  UNL1       -0.2720
     17  N         25.5530  -22.2310  -13.6200 N.am    1  UNL1       -0.3170
     18  C         25.1210  -22.8430  -14.8860 C.3     1  UNL1        0.1370
     19  C         26.0000  -20.9250  -13.9050 C.2     1  UNL1        0.0430
     20  C         24.8300  -21.6860  -15.8450 C.3     1  UNL1        0.0610
     21  C         25.6270  -20.5850  -15.2130 C.2     1  UNL1       -0.0300
     22  C         25.9660  -19.3590  -15.7700 C.2     1  UNL1        0.0090
     23  C         26.7200  -18.4700  -15.0030 C.2     1  UNL1        0.0010
     24  C         27.1210  -18.8160  -13.7060 C.2     1  UNL1        0.0020
     25  C         26.7670  -20.0520  -13.1520 C.2     1  UNL1        0.0300
     26  C         19.6400  -24.7310   -8.3650 C.3     1  UNL1        0.2500
     27  C         18.9710  -23.6480   -7.5080 C.2     1  UNL1        0.2360
     28  O         19.5790  -22.6510   -7.1210 O.2     1  UNL1       -0.2720
     29  N         17.6470  -23.9190   -7.1960 N.am    1  UNL1       -0.3550
     30  H         17.3810  -24.9010   -7.2580 H       1  UNL1        0.1620
     31  C         16.9010  -23.1150   -6.2340 C.3     1  UNL1        0.0840
     32  C         17.1080  -23.6690   -4.8210 C.3     1  UNL1        0.0250
     33  C         16.4390  -22.8050   -3.7520 C.3     1  UNL1        0.0020
     34  C         15.1720  -22.1050   -4.2410 C.3     1  UNL1        0.0000
     35  C         14.4890  -22.8830   -5.3560 C.3     1  UNL1        0.0020
     36  C         15.3980  -23.0450   -6.5770 C.3     1  UNL1        0.0250
@<TRIPOS>BOND
     1    20    21    1
     2    20    18    1
     3    22    21    1
     4    22    23    2
     5    21    19    2
     6    23    24    1
     7    18    17    1
     8    19    17    1
     9    19    25    1
    10    24    25    2
    11    17    15   am
    12    16    15    2
    13    15    14    1
    14     5     6    2
    15     5     4    1
    16     6     7    1
    17     4     3    2
    18    14    13    1
    19    13     9    1
    20     7     2   ar
    21     7     8   ar
    22     3     2    1
    23     2     1   ar
    24     8     9   ar
    25     8    12   ar
    26     9    10   ar
    27     1    12   ar
    28     1    26    1
    29    12    11   ar
    30    10    11   ar
    31    26    27    1
    32    27    29   am
    33    27    28    2
    34    30    29    1
    35    29    31    1
    36    36    31    1
    37    36    35    1
    38    31    32    1
    39    35    34    1
    40    32    33    1
    41    34    33    1
