@<TRIPOS>MOLECULE
39627_out_ligand_01.pdbqt
 37 41 0 0 0
SMALL
GASTEIGER

@<TRIPOS>ATOM
      1  C         23.1510  -22.6660  -10.2230 C.ar    1  UNL1        0.2110
      2  N         23.7520  -23.5470   -9.4340 N.ar    1  UNL1       -0.1070
      3  N         22.7750  -24.3720   -8.8670 N.ar    1  UNL1        0.0450
      4  C         21.6330  -23.9860   -9.3760 C.ar    1  UNL1        0.7350
      5  N         20.3040  -24.2710   -9.2830 N.ar    1  UNL1       -0.1680
      6  C         19.6450  -23.2790  -10.0390 C.ar    1  UNL1        0.0800
      7  C         18.3040  -23.0530  -10.2530 C.2     1  UNL1        0.0320
      8  C         17.9490  -21.9740  -11.0780 C.2     1  UNL1        0.0020
      9  C         18.9260  -21.1350  -11.6700 C.2     1  UNL1        0.0020
     10  C         20.2880  -21.3530  -11.4520 C.2     1  UNL1        0.0330
     11  C         20.6010  -22.4260  -10.6500 C.ar    1  UNL1        0.0870
     12  N         21.8180  -22.9010  -10.1950 N.ar    1  UNL1       -0.1170
     13  S         23.8950  -21.4100  -11.1430 S.3     1  UNL1       -0.0800
     14  C         23.8360  -22.1020  -12.8260 C.3     1  UNL1        0.1850
     15  C         23.9710  -21.0770  -13.9520 C.2     1  UNL1        0.2310
     16  N         25.2560  -20.8530  -14.4060 N.am    1  UNL1       -0.3270
     17  H         25.9810  -21.4160  -13.9750 H       1  UNL1        0.1690
     18  O         22.9580  -20.5430  -14.3990 O.2     1  UNL1       -0.2720
     19  C         25.6960  -19.9440  -15.3880 C.2     1  UNL1        0.0350
     20  C         25.6730  -20.1990  -16.7570 C.2     1  UNL1        0.0290
     21  C         26.1230  -19.2330  -17.6610 C.2     1  UNL1        0.0030
     22  C         26.5940  -18.0030  -17.2020 C.2     1  UNL1        0.0070
     23  C         26.6410  -17.7310  -15.8310 C.2     1  UNL1       -0.0600
     24  C         27.1190  -16.3990  -15.3360 C.3     1  UNL1        0.0480
     25  C         26.1830  -18.7060  -14.9330 C.2     1  UNL1        0.0360
     26  C         19.7390  -24.7680   -8.0300 C.3     1  UNL1        0.2510
     27  C         18.9350  -23.6770   -7.3030 C.2     1  UNL1        0.2410
     28  O         19.4060  -22.5520   -7.1360 O.2     1  UNL1       -0.2710
     29  N         17.7000  -24.1270   -6.8670 N.am    1  UNL1       -0.3250
     30  H         17.4980  -25.1120   -7.0340 H       1  UNL1        0.1690
     31  C         16.7340  -23.4360   -6.0980 C.2     1  UNL1        0.0400
     32  C         16.7950  -23.3680   -4.7030 C.2     1  UNL1        0.0300
     33  C         15.8040  -22.7080   -3.9710 C.2     1  UNL1        0.0020
     34  C         14.7400  -22.0930   -4.6280 C.2     1  UNL1        0.0010
     35  C         14.6690  -22.1450   -6.0150 C.2     1  UNL1        0.0090
     36  C         15.6550  -22.8130   -6.7660 C.2     1  UNL1       -0.0350
     37  C         15.5110  -22.8400   -8.2600 C.3     1  UNL1        0.0500
@<TRIPOS>BOND
     1    21    22    2
     2    21    20    1
     3    22    23    1
     4    20    19    2
     5    23    24    1
     6    23    25    2
     7    19    25    1
     8    19    16    1
     9    16    17    1
    10    16    15   am
    11    18    15    2
    12    15    14    1
    13    14    13    1
    14     9    10    2
    15     9     8    1
    16    10    11    1
    17    13     1    1
    18     8     7    2
    19    11    12   ar
    20    11     6   ar
    21     7     6    1
    22     1    12   ar
    23     1     2   ar
    24    12     4   ar
    25     6     5   ar
    26     2     3   ar
    27     4     5   ar
    28     4     3   ar
    29     5    26    1
    30    37    36    1
    31    26    27    1
    32    27    28    2
    33    27    29   am
    34    30    29    1
    35    29    31    1
    36    36    31    2
    37    36    35    1
    38    31    32    1
    39    35    34    2
    40    32    33    2
    41    34    33    1
