@<TRIPOS>MOLECULE
39623_out_ligand_01.pdbqt
 35 39 0 0 0
SMALL
GASTEIGER

@<TRIPOS>ATOM
      1  C         26.9750  -18.5770  -16.8430 C.3     1  UNL1        0.0570
      2  C         26.4030  -19.7500  -16.1120 C.ar    1  UNL1       -0.0120
      3  S         25.8090  -19.5390  -14.5300 S.2     1  UNL1       -0.0750
      4  C         25.3440  -21.1640  -14.3820 C.ar    1  UNL1        0.0980
      5  C         25.6620  -21.8760  -15.5230 C.ar    1  UNL1        0.0850
      6  C         25.4220  -23.2810  -15.6830 C.1     1  UNL1        0.1030
      7  N         25.2540  -24.4170  -15.8520 N.1     1  UNL1       -0.1910
      8  C         26.2650  -21.0550  -16.5480 C.ar    1  UNL1       -0.0260
      9  C         26.6960  -21.5620  -17.8880 C.3     1  UNL1        0.0510
     10  N         24.7420  -21.6380  -13.2220 N.am    1  UNL1       -0.3190
     11  C         25.3760  -21.9580  -12.0290 C.2     1  UNL1        0.2320
     12  O         26.5770  -21.8900  -11.7770 O.2     1  UNL1       -0.2720
     13  H         23.7190  -21.6620  -13.2180 H       1  UNL1        0.1690
     14  C         24.4160  -22.4380  -10.9510 C.3     1  UNL1        0.1850
     15  S         22.6930  -22.0960  -11.4310 S.3     1  UNL1       -0.0800
     16  C         21.8460  -23.0610  -10.2860 C.ar    1  UNL1        0.2110
     17  N         22.3850  -23.9300   -9.4470 N.ar    1  UNL1       -0.1070
     18  N         21.3670  -24.4830   -8.6740 N.ar    1  UNL1        0.0450
     19  C         20.2520  -23.9460   -9.0940 C.ar    1  UNL1        0.7350
     20  N         18.9150  -23.9730   -8.8380 N.ar    1  UNL1       -0.1730
     21  N         20.5080  -23.0300  -10.0800 N.ar    1  UNL1       -0.1170
     22  C         18.3510  -22.9530   -9.6260 C.ar    1  UNL1        0.0800
     23  C         17.0620  -22.4730   -9.7110 C.2     1  UNL1        0.0320
     24  C         19.3500  -22.3770  -10.4500 C.ar    1  UNL1        0.0870
     25  C         16.8030  -21.4290  -10.6140 C.2     1  UNL1        0.0020
     26  C         17.8270  -20.8750  -11.4170 C.2     1  UNL1        0.0020
     27  C         19.1350  -21.3500  -11.3410 C.2     1  UNL1        0.0330
     28  C         18.4220  -24.3550   -7.5240 C.3     1  UNL1        0.1860
     29  C         18.4510  -23.2040   -6.5380 C.2     1  UNL1       -0.0390
     30  C         17.5820  -23.1850   -5.4330 C.2     1  UNL1        0.0120
     31  C         17.6140  -22.1270   -4.5220 C.2     1  UNL1        0.0430
     32  C         18.5170  -21.0880   -4.7130 C.2     1  UNL1        0.1160
     33  F         18.5430  -20.0690   -3.8400 F       1  UNL1       -0.2060
     34  C         19.3930  -21.0890   -5.7940 C.2     1  UNL1        0.0430
     35  C         19.3650  -22.1490   -6.7040 C.2     1  UNL1        0.0120
@<TRIPOS>BOND
     1     9     8    1
     2     1     2    1
     3     8     2   ar
     4     8     5   ar
     5     2     3   ar
     6     7     6    3
     7     6     5    1
     8     5     4   ar
     9     3     4   ar
    10     4    10    1
    11    10    13    1
    12    10    11   am
    13    11    12    2
    14    11    14    1
    15    15    14    1
    16    15    16    1
    17    26    27    2
    18    26    25    1
    19    27    24    1
    20    25    23    2
    21    24    21   ar
    22    24    22   ar
    23    16    21   ar
    24    16    17   ar
    25    21    19   ar
    26    23    22    1
    27    22    20   ar
    28    17    18   ar
    29    19    20   ar
    30    19    18   ar
    31    20    28    1
    32    28    29    1
    33    35    29    2
    34    35    34    1
    35    29    30    1
    36    34    32    2
    37    30    31    2
    38    32    31    1
    39    32    33    1
