@<TRIPOS>MOLECULE
39639_out_ligand_01.pdbqt
 31 34 0 0 0
SMALL
GASTEIGER

@<TRIPOS>ATOM
      1  C         23.2070  -22.2820   -9.4690 C.2     1  UNL1        0.2310
      2  O         23.0440  -21.1490   -9.0230 O.2     1  UNL1       -0.2720
      3  N         22.4000  -23.3720   -9.2020 N.am    1  UNL1       -0.3270
      4  H         22.7090  -24.2600   -9.5860 H       1  UNL1        0.1690
      5  C         24.4610  -22.5890  -10.2810 C.3     1  UNL1        0.1860
      6  S         24.1710  -22.8930  -12.0500 S.3     1  UNL1       -0.0730
      7  C         22.6320  -22.1160  -12.2590 C.ar    1  UNL1        0.2310
      8  N         22.3980  -21.1190  -13.0880 N.ar    1  UNL1       -0.1140
      9  N         21.0680  -20.7900  -12.9350 N.ar    1  UNL1       -0.1200
     10  C         20.5770  -21.6170  -12.0320 C.ar    1  UNL1        0.2030
     11  O         21.5200  -22.4860  -11.5520 O.2     1  UNL1       -0.2630
     12  C         19.2230  -21.7340  -11.4990 C.2     1  UNL1        0.0190
     13  C         18.8300  -22.9180  -10.8570 C.2     1  UNL1        0.0160
     14  C         17.5460  -23.0510  -10.3190 C.2     1  UNL1        0.0070
     15  C         16.6250  -22.0010  -10.4100 C.2     1  UNL1       -0.0620
     16  C         15.2380  -22.1360   -9.8480 C.3     1  UNL1        0.0480
     17  C         17.0040  -20.8230  -11.0620 C.2     1  UNL1        0.0070
     18  C         18.2890  -20.6910  -11.6010 C.2     1  UNL1        0.0160
     19  C         21.2110  -23.4000   -8.4470 C.2     1  UNL1        0.0340
     20  C         20.4660  -24.5860   -8.4670 C.2     1  UNL1        0.0300
     21  C         19.2860  -24.7010   -7.7210 C.2     1  UNL1        0.0190
     22  C         18.8370  -23.6300   -6.9430 C.2     1  UNL1        0.0320
     23  C         19.5570  -22.4300   -6.9530 C.2     1  UNL1        0.0190
     24  C         20.7380  -22.3220   -7.6960 C.2     1  UNL1        0.0300
     25  C         17.5890  -23.8050   -6.1480 C.2     1  UNL1        0.2520
     26  O         17.5980  -24.5050   -5.1390 O.2     1  UNL1       -0.2680
     27  N         16.4790  -23.1080   -6.5930 N.am    1  UNL1       -0.3520
     28  H         16.5980  -22.4040   -7.3100 H       1  UNL1        0.1630
     29  C         15.2410  -23.1110   -5.8720 C.3     1  UNL1        0.0840
     30  C         15.0800  -22.2770   -4.6320 C.3     1  UNL1        0.0270
     31  C         14.3470  -21.9010   -5.8860 C.3     1  UNL1        0.0270
@<TRIPOS>BOND
     1     8     9   ar
     2     8     7   ar
     3     9    10   ar
     4     7     6    1
     5     7    11   ar
     6     6     5    1
     7    10    11   ar
     8    10    12    1
     9    18    12    2
    10    18    17    1
    11    12    13    1
    12    17    15    2
    13    13    14    2
    14    15    14    1
    15    15    16    1
    16     5     1    1
    17     4     3    1
    18     1     3   am
    19     1     2    2
    20     3    19    1
    21    20    19    2
    22    20    21    1
    23    19    24    1
    24    21    22    2
    25    24    23    2
    26    28    27    1
    27    23    22    1
    28    22    25    1
    29    27    25   am
    30    27    29    1
    31    25    26    2
    32    31    29    1
    33    31    30    1
    34    29    30    1
