@<TRIPOS>MOLECULE
3963_out_ligand_01.pdbqt
 45 49 0 0 0
SMALL
GASTEIGER

@<TRIPOS>ATOM
      1  C         22.7800  -21.2800  -12.6720 C.2     1  UNL1        0.2410
      2  O         23.2730  -21.6510  -11.6070 O.2     1  UNL1       -0.2710
      3  N         21.4200  -21.1990  -12.9430 N.am    1  UNL1       -0.3260
      4  H         21.1560  -20.7170  -13.8010 H       1  UNL1        0.1690
      5  C         20.3500  -21.5640  -12.1030 C.2     1  UNL1        0.0340
      6  C         20.6000  -22.5670  -11.1520 C.2     1  UNL1        0.0310
      7  C         19.6140  -22.9560  -10.2410 C.2     1  UNL1        0.0270
      8  C         18.3640  -22.3400  -10.2930 C.2     1  UNL1        0.0800
      9  C         18.0840  -21.3670  -11.2570 C.2     1  UNL1        0.0270
     10  C         19.0840  -20.9740  -12.1530 C.2     1  UNL1        0.0310
     11  S         17.1170  -22.7650   -9.1060 S.O2    1  UNL1        0.2630
     12  O         16.5880  -21.5190   -8.5890 O.2     1  UNL1       -0.2000
     13  O         16.2450  -23.7700   -9.6750 O.2     1  UNL1       -0.2000
     14  N         18.0260  -23.4470   -7.8590 N.pl3   1  UNL1       -0.2800
     15  H         18.8010  -24.0220   -8.1970 H       1  UNL1        0.1790
     16  C         18.2170  -22.7070   -6.6550 C.2     1  UNL1        0.0530
     17  C         19.2810  -21.7970   -6.6220 C.2     1  UNL1        0.0310
     18  C         19.5070  -21.0260   -5.4860 C.2     1  UNL1        0.0030
     19  C         18.6730  -21.1660   -4.3760 C.2     1  UNL1        0.0120
     20  C         17.6050  -22.0800   -4.3850 C.2     1  UNL1       -0.0240
     21  C         16.7760  -22.2120   -3.2600 C.2     1  UNL1        0.0120
     22  C         17.3630  -22.8750   -5.5350 C.2     1  UNL1        0.0010
     23  C         15.7190  -23.1220   -3.2510 C.2     1  UNL1        0.0010
     24  C         15.4750  -23.9150   -4.3680 C.2     1  UNL1        0.0010
     25  C         16.2840  -23.7920   -5.4970 C.2     1  UNL1        0.0140
     26  C         23.6520  -20.8820  -13.8540 C.3     1  UNL1        0.2450
     27  N         24.7020  -21.8090  -14.3260 N.pl3   1  UNL1       -0.2600
     28  C         25.5500  -22.4340  -13.3340 C.2     1  UNL1        0.0790
     29  C         26.3080  -21.5920  -12.5120 C.2     1  UNL1        0.0330
     30  C         27.0930  -22.1190  -11.4870 C.2     1  UNL1        0.0020
     31  C         27.1200  -23.4980  -11.2760 C.2     1  UNL1        0.0030
     32  C         26.3630  -24.3500  -12.0860 C.2     1  UNL1        0.0390
     33  C         25.5650  -23.8280  -13.1110 C.2     1  UNL1        0.0950
     34  O         24.8020  -24.5950  -13.9480 O.2     1  UNL1       -0.3540
     35  C         25.4860  -25.4460  -14.8670 C.3     1  UNL1        0.2100
     36  S         25.3380  -21.6580  -15.8930 S.O2    1  UNL1        0.2650
     37  O         24.2640  -21.9580  -16.8230 O.2     1  UNL1       -0.2000
     38  O         26.5680  -22.4220  -15.9750 O.2     1  UNL1       -0.2000
     39  C         25.7960  -19.9490  -16.0810 C.2     1  UNL1        0.0800
     40  C         26.3250  -19.2580  -14.9800 C.2     1  UNL1        0.0260
     41  C         26.7300  -17.9310  -15.1210 C.2     1  UNL1        0.0080
     42  C         26.6390  -17.2890  -16.3660 C.2     1  UNL1       -0.0620
     43  C         27.0590  -15.8550  -16.4970 C.3     1  UNL1        0.0480
     44  C         26.1430  -17.9990  -17.4690 C.2     1  UNL1        0.0080
     45  C         25.7380  -19.3310  -17.3350 C.2     1  UNL1        0.0260
@<TRIPOS>BOND
     1    44    45    1
     2    44    42    2
     3    45    39    2
     4    37    36    2
     5    43    42    1
     6    42    41    1
     7    39    36    1
     8    39    40    1
     9    38    36    2
    10    36    27    1
    11    41    40    2
    12    35    34    1
    13    27    26    1
    14    27    28    1
    15    34    33    1
    16    26     1    1
    17     4     3    1
    18    28    33    2
    19    28    29    1
    20    33    32    1
    21     3     1   am
    22     3     5    1
    23     1     2    2
    24    29    30    2
    25    10     5    2
    26    10     9    1
    27     5     6    1
    28    32    31    2
    29    30    31    1
    30     9     8    2
    31     6     7    2
    32     8     7    1
    33     8    11    1
    34    13    11    2
    35    11    12    2
    36    11    14    1
    37    15    14    1
    38    14    16    1
    39    16    17    2
    40    16    22    1
    41    17    18    1
    42    22    25    1
    43    22    20    2
    44    25    24    2
    45    18    19    2
    46    20    19    1
    47    20    21    1
    48    24    23    1
    49    21    23    2
