@<TRIPOS>MOLECULE
39641_out_ligand_01.pdbqt
 34 38 0 0 0
SMALL
GASTEIGER

@<TRIPOS>ATOM
      1  C         23.6790  -23.2020   -9.6920 C.3     1  UNL1        0.1840
      2  C         22.4270  -23.6970   -8.9750 C.2     1  UNL1        0.2310
      3  O         22.2710  -24.9030   -8.7780 O.2     1  UNL1       -0.2720
      4  N         21.5850  -22.6930   -8.5340 N.am    1  UNL1       -0.3270
      5  H         21.8410  -21.7450   -8.8120 H       1  UNL1        0.1690
      6  C         20.3880  -22.8210   -7.8040 C.2     1  UNL1        0.0340
      7  C         20.0450  -21.7730   -6.9500 C.2     1  UNL1        0.0310
      8  C         18.8710  -21.8260   -6.1870 C.2     1  UNL1        0.0260
      9  C         17.9950  -22.9200   -6.2550 C.2     1  UNL1        0.0100
     10  C         18.3660  -23.9690   -7.1050 C.2     1  UNL1        0.0260
     11  C         19.5400  -23.9210   -7.8730 C.2     1  UNL1        0.0310
     12  N         16.8340  -22.9260   -5.4660 N.pl3   1  UNL1       -0.2790
     13  C         17.0090  -22.2700   -4.1470 C.3     1  UNL1        0.1220
     14  C         15.7760  -22.5300   -3.2650 C.3     1  UNL1        0.1820
     15  O         14.5630  -22.0990   -3.9030 O.3     1  UNL1       -0.3890
     16  C         14.3890  -22.7960   -5.1490 C.3     1  UNL1        0.1820
     17  C         15.5610  -22.5300   -6.1060 C.3     1  UNL1        0.1220
     18  S         23.6600  -21.4050   -9.9720 S.3     1  UNL1       -0.1000
     19  C         23.7720  -21.4270  -11.7520 C.2     1  UNL1        0.1070
     20  N         25.0520  -21.4210  -12.2190 N.2     1  UNL1       -0.2530
     21  C         25.2210  -21.4010  -13.5590 C.2     1  UNL1        0.1180
     22  C         24.1780  -21.3840  -14.4660 C.2     1  UNL1        0.0200
     23  C         22.8770  -21.3980  -13.9730 C.2     1  UNL1        0.0200
     24  C         22.6520  -21.4230  -12.5900 C.2     1  UNL1        0.0450
     25  C         21.2880  -21.4970  -12.0890 C.ar    1  UNL1        0.1420
     26  N         20.7160  -22.5560  -11.5480 N.ar    1  UNL1       -0.2280
     27  C         19.4330  -22.1720  -11.2420 C.ar    1  UNL1        0.0860
     28  C         18.3950  -22.9060  -10.6530 C.2     1  UNL1        0.0340
     29  C         19.2120  -20.8500  -11.6010 C.ar    1  UNL1        0.0620
     30  C         17.1620  -22.2750  -10.4450 C.2     1  UNL1        0.0020
     31  C         16.9700  -20.9420  -10.8120 C.2     1  UNL1        0.0020
     32  C         17.9960  -20.1940  -11.4030 C.2     1  UNL1        0.0320
     33  N         20.4070  -20.4420  -12.1350 N.ar    1  UNL1       -0.3380
     34  H         20.6120  -19.5210  -12.4940 H       1  UNL1        0.1670
@<TRIPOS>BOND
     1    22    23    2
     2    22    21    1
     3    23    24    1
     4    21    20    2
     5    24    25    1
     6    24    19    2
     7    34    33    1
     8    20    19    1
     9    33    25   ar
    10    33    29   ar
    11    25    26   ar
    12    19    18    1
    13    29    32    1
    14    29    27   ar
    15    26    27   ar
    16    32    31    2
    17    27    28    1
    18    31    30    1
    19    28    30    2
    20    18     1    1
    21     1     2    1
    22     2     3    2
    23     2     4   am
    24     5     4    1
    25     4     6    1
    26    11     6    2
    27    11    10    1
    28     6     7    1
    29    10     9    2
    30     7     8    2
    31     9     8    1
    32     9    12    1
    33    17    12    1
    34    17    16    1
    35    12    13    1
    36    16    15    1
    37    13    14    1
    38    15    14    1
