@<TRIPOS>MOLECULE
39654_out_ligand_01.pdbqt
 33 37 0 0 0
SMALL
GASTEIGER

@<TRIPOS>ATOM
      1  N         19.7690  -19.9340   -5.2520 N.1     1  UNL1       -0.1910
      2  C         19.5330  -20.9550   -5.7560 C.1     1  UNL1        0.1030
      3  C         19.1000  -22.1760   -6.3750 C.ar    1  UNL1        0.0850
      4  C         19.7620  -22.8560   -7.3760 C.ar    1  UNL1        0.0980
      5  S         18.8360  -24.1420   -8.0140 S.2     1  UNL1       -0.0750
      6  C         17.5870  -23.8780   -6.8960 C.ar    1  UNL1       -0.0070
      7  C         17.8340  -22.7960   -6.0730 C.ar    1  UNL1       -0.0210
      8  C         16.8330  -22.3420   -5.0460 C.3     1  UNL1        0.0410
      9  C         15.7800  -23.4230   -4.7530 C.3     1  UNL1        0.0050
     10  C         15.2510  -24.0630   -6.0440 C.3     1  UNL1        0.0050
     11  C         16.3730  -24.7540   -6.8350 C.3     1  UNL1        0.0470
     12  N         20.9790  -22.7340   -8.0120 N.am    1  UNL1       -0.3190
     13  C         21.6460  -23.7890   -8.6030 C.2     1  UNL1        0.2320
     14  O         21.2090  -24.9330   -8.7060 O.2     1  UNL1       -0.2720
     15  H         21.2340  -21.7950   -8.3290 H       1  UNL1        0.1690
     16  C         23.0210  -23.4230   -9.1340 C.3     1  UNL1        0.1840
     17  S         23.1580  -21.6310   -9.4180 S.3     1  UNL1       -0.1000
     18  C         23.4510  -21.6670  -11.1780 C.2     1  UNL1        0.1070
     19  N         24.7670  -21.7280  -11.5220 N.2     1  UNL1       -0.2530
     20  C         25.0640  -21.7170  -12.8420 C.2     1  UNL1        0.1180
     21  C         24.1120  -21.6580  -13.8440 C.2     1  UNL1        0.0200
     22  C         22.7710  -21.6060  -13.4740 C.2     1  UNL1        0.0200
     23  C         22.4180  -21.6060  -12.1190 C.2     1  UNL1        0.0450
     24  C         21.0110  -21.6020  -11.7510 C.ar    1  UNL1        0.1420
     25  N         20.3370  -22.6220  -11.2540 N.ar    1  UNL1       -0.2280
     26  C         19.0520  -22.1700  -11.0800 C.ar    1  UNL1        0.0860
     27  C         17.9280  -22.8360  -10.5730 C.2     1  UNL1        0.0340
     28  C         18.9300  -20.8470  -11.4950 C.ar    1  UNL1        0.0620
     29  C         16.7120  -22.1420  -10.5030 C.2     1  UNL1        0.0020
     30  C         16.6180  -20.8140  -10.9320 C.2     1  UNL1        0.0020
     31  C         17.7320  -20.1310  -11.4370 C.2     1  UNL1        0.0320
     32  N         20.1910  -20.5080  -11.9100 N.ar    1  UNL1       -0.3380
     33  H         20.4810  -19.6010  -12.2470 H       1  UNL1        0.1670
@<TRIPOS>BOND
     1    21    22    2
     2    21    20    1
     3    22    23    1
     4    20    19    2
     5    33    32    1
     6    23    24    1
     7    23    18    2
     8    32    24   ar
     9    32    28   ar
    10    24    25   ar
    11    19    18    1
    12    28    31    1
    13    28    26   ar
    14    31    30    2
    15    25    26   ar
    16    18    17    1
    17    26    27    1
    18    30    29    1
    19    27    29    2
    20    17    16    1
    21    16    13    1
    22    14    13    2
    23    13    12   am
    24    15    12    1
    25     5     4   ar
    26     5     6   ar
    27    12     4    1
    28     4     3   ar
    29     6    11    1
    30     6     7   ar
    31    11    10    1
    32     3     7   ar
    33     3     2    1
    34     7     8    1
    35    10     9    1
    36     2     1    3
    37     8     9    1
