@<TRIPOS>MOLECULE
39659_out_ligand_01.pdbqt
 35 39 0 0 0
SMALL
GASTEIGER

@<TRIPOS>ATOM
      1  O         19.3270  -21.3340  -11.9710 O.2     1  UNL1       -0.2670
      2  C         19.8040  -22.1080  -11.1490 C.2     1  UNL1        0.2560
      3  N         21.1340  -22.4660  -11.0220 N.am    1  UNL1       -0.3230
      4  H         21.3900  -22.9840  -10.1920 H       1  UNL1        0.1690
      5  C         18.8980  -22.7030  -10.1260 C.2     1  UNL1        0.0320
      6  C         19.3960  -23.3620   -8.9960 C.2     1  UNL1        0.0170
      7  C         18.5130  -23.9070   -8.0610 C.2     1  UNL1        0.0100
      8  C         17.1250  -23.8100   -8.2470 C.2     1  UNL1       -0.0300
      9  C         16.6350  -23.1650   -9.3910 C.2     1  UNL1        0.0100
     10  C         17.5160  -22.6200  -10.3290 C.2     1  UNL1        0.0170
     11  C         16.1700  -24.4040   -7.2290 C.3     1  UNL1        0.3110
     12  N         15.2860  -23.3990   -6.6200 N.3     1  UNL1        0.0970
     13  C         14.7600  -23.8420   -5.3180 C.3     1  UNL1        0.2770
     14  C         15.8260  -24.0230   -4.2260 C.3     1  UNL1        0.0690
     15  C         16.8500  -22.9150   -4.2180 C.2     1  UNL1       -0.0490
     16  C         17.7570  -22.8100   -3.1540 C.2     1  UNL1        0.0070
     17  C         16.9410  -22.0250   -5.3040 C.2     1  UNL1       -0.0240
     18  C         18.7340  -21.8140   -3.1580 C.2     1  UNL1        0.0010
     19  C         18.8150  -20.9210   -4.2230 C.2     1  UNL1        0.0010
     20  C         17.9220  -21.0230   -5.2900 C.2     1  UNL1        0.0090
     21  C         15.9510  -22.0920   -6.4480 C.3     1  UNL1        0.3110
     22  C         22.2000  -22.0980  -11.8700 C.2     1  UNL1        0.0350
     23  C         22.0370  -21.3870  -13.0620 C.2     1  UNL1        0.0310
     24  C         23.1430  -21.0620  -13.8550 C.2     1  UNL1        0.0270
     25  C         24.4240  -21.4310  -13.4420 C.2     1  UNL1        0.0790
     26  C         24.6000  -22.1710  -12.2710 C.2     1  UNL1        0.0270
     27  C         23.4890  -22.4970  -11.4880 C.2     1  UNL1        0.0310
     28  S         25.8340  -21.0390  -14.4620 S.O2    1  UNL1        0.2600
     29  O         25.7130  -19.6460  -14.8420 O.2     1  UNL1       -0.2000
     30  O         27.0120  -21.5320  -13.7820 O.2     1  UNL1       -0.2000
     31  N         25.5980  -21.9710  -15.8420 N.3     1  UNL1       -0.3070
     32  C         25.2860  -23.4100  -15.7170 C.3     1  UNL1        0.1350
     33  C         24.1890  -23.6560  -16.7460 C.3     1  UNL1        0.0220
     34  C         24.4810  -22.6200  -17.8140 C.3     1  UNL1        0.0220
     35  C         24.8700  -21.3990  -16.9910 C.3     1  UNL1        0.1350
@<TRIPOS>BOND
     1    34    35    1
     2    34    33    1
     3    35    31    1
     4    33    32    1
     5    31    32    1
     6    31    28    1
     7    29    28    2
     8    28    30    2
     9    28    25    1
    10    24    25    2
    11    24    23    1
    12    25    26    1
    13    23    22    2
    14    26    27    2
    15     1     2    2
    16    22    27    1
    17    22     3    1
    18     2     3   am
    19     2     5    1
    20     3     4    1
    21    10     5    2
    22    10     9    1
    23     5     6    1
    24     9     8    2
    25     6     7    2
    26     8     7    1
    27     8    11    1
    28    11    12    1
    29    12    21    1
    30    12    13    1
    31    21    17    1
    32    13    14    1
    33    17    20    1
    34    17    15    2
    35    20    19    2
    36    14    15    1
    37    19    18    1
    38    15    16    1
    39    18    16    2
