@<TRIPOS>MOLECULE
39662_out_ligand_01.pdbqt
 29 32 0 0 0
SMALL
GASTEIGER

@<TRIPOS>ATOM
      1  C         21.3540  -22.1620  -11.4480 C.2     1  UNL1        0.0320
      2  C         21.2050  -23.1470  -10.4650 C.2     1  UNL1        0.0170
      3  C         19.9480  -23.4030   -9.9130 C.2     1  UNL1        0.0100
      4  C         18.8240  -22.6690  -10.3230 C.2     1  UNL1       -0.0300
      5  C         18.9870  -21.6710  -11.2970 C.2     1  UNL1        0.0100
      6  C         20.2430  -21.4130  -11.8520 C.2     1  UNL1        0.0170
      7  C         22.7120  -21.9270  -12.0150 C.2     1  UNL1        0.2560
      8  O         23.6850  -22.1190  -11.2960 O.2     1  UNL1       -0.2670
      9  N         22.7300  -21.5450  -13.3460 N.am    1  UNL1       -0.3230
     10  H         21.8430  -21.5570  -13.8340 H       1  UNL1        0.1690
     11  C         23.8620  -21.2400  -14.1290 C.2     1  UNL1        0.0380
     12  C         24.1330  -22.0890  -15.2150 C.2     1  UNL1        0.0320
     13  C         25.2340  -21.8600  -16.0460 C.2     1  UNL1        0.0480
     14  C         26.0660  -20.7780  -15.7910 C.2     1  UNL1        0.1540
     15  F         27.1200  -20.5580  -16.5880 F       1  UNL1       -0.2030
     16  C         25.8040  -19.9310  -14.7230 C.2     1  UNL1        0.1570
     17  F         26.6080  -18.8840  -14.4850 F       1  UNL1       -0.2030
     18  C         24.7080  -20.1530  -13.8920 C.2     1  UNL1        0.0750
     19  C         17.4600  -22.9510   -9.7240 C.3     1  UNL1        0.3110
     20  N         17.3470  -22.9040   -8.2630 N.3     1  UNL1        0.0970
     21  C         17.2330  -24.2180   -7.6260 C.3     1  UNL1        0.2770
     22  C         16.7450  -24.0640   -6.1780 C.3     1  UNL1        0.0690
     23  C         17.4950  -23.0000   -5.4140 C.2     1  UNL1       -0.0490
     24  C         17.3960  -22.9330   -4.0190 C.2     1  UNL1        0.0070
     25  C         18.2470  -22.0350   -6.1100 C.2     1  UNL1       -0.0240
     26  C         18.0610  -21.9310   -3.3130 C.2     1  UNL1        0.0010
     27  C         18.8220  -20.9850   -3.9960 C.2     1  UNL1        0.0010
     28  C         18.9170  -21.0370   -5.3870 C.2     1  UNL1        0.0090
     29  C         18.3970  -22.1070   -7.6160 C.3     1  UNL1        0.3110
@<TRIPOS>BOND
     1    15    14    1
     2    13    14    2
     3    13    12    1
     4    14    16    1
     5    12    11    2
     6    16    17    1
     7    16    18    2
     8    11    18    1
     9    11     9    1
    10    10     9    1
    11     9     7   am
    12     7     1    1
    13     7     8    2
    14     6     1    2
    15     6     5    1
    16     1     2    1
    17     5     4    2
    18     2     3    2
    19     4     3    1
    20     4    19    1
    21    19    20    1
    22    20    21    1
    23    20    29    1
    24    21    22    1
    25    29    25    1
    26    22    23    1
    27    25    23    2
    28    25    28    1
    29    23    24    1
    30    28    27    2
    31    24    26    2
    32    27    26    1
