@<TRIPOS>MOLECULE
39660_out_ligand_01.pdbqt
 33 35 0 0 0
SMALL
GASTEIGER

@<TRIPOS>ATOM
      1  C         19.6780  -22.6170   -7.5430 C.2     1  UNL1        0.1020
      2  C         21.0030  -22.2510   -7.7920 C.2     1  UNL1        0.0510
      3  C         21.8360  -23.1020   -8.5220 C.2     1  UNL1       -0.0330
      4  C         21.3400  -24.3350   -8.9580 C.2     1  UNL1        0.0140
      5  C         20.0170  -24.7090   -8.6860 C.2     1  UNL1        0.0400
      6  C         19.1780  -23.8560   -7.9640 C.2     1  UNL1        0.1020
      7  C         23.2140  -22.6880   -8.7990 C.2     1  UNL1        0.0140
      8  C         23.6960  -22.1400   -9.9300 C.2     1  UNL1        0.0330
      9  C         22.9870  -21.7630  -11.1520 C.ar    1  UNL1        0.0750
     10  N         21.6820  -21.3280  -11.0160 N.ar    1  UNL1       -0.3060
     11  C         20.8770  -20.9300  -12.0500 C.ar    1  UNL1        0.3270
     12  H         21.2520  -21.2830  -10.0960 H       1  UNL1        0.1710
     13  O         19.7310  -20.5430  -11.8690 O.2     1  UNL1       -0.2470
     14  N         21.4410  -20.9880  -13.2940 N.ar    1  UNL1       -0.2730
     15  C         22.7380  -21.3530  -13.5630 C.ar    1  UNL1        0.2840
     16  H         20.8670  -20.6930  -14.0730 H       1  UNL1        0.1730
     17  O         23.1830  -21.3310  -14.7060 O.2     1  UNL1       -0.2650
     18  C         23.5190  -21.7550  -12.3870 C.ar    1  UNL1        0.1970
     19  N         24.8610  -22.1880  -12.5940 N.pl3   1  UNL1       -0.1070
     20  O         25.0320  -23.3920  -12.8250 O.2     1  UNL1       -0.5310
     21  O         25.7440  -21.3190  -12.5800 O.2     1  UNL1       -0.5310
     22  O         18.8800  -21.7870   -6.7970 O.2     1  UNL1       -0.3490
     23  C         19.6370  -21.0600   -5.8170 C.3     1  UNL1        0.1710
     24  C         18.7200  -20.7470   -4.6410 C.3     1  UNL1        0.0340
     25  O         17.8720  -24.1210   -7.6550 O.2     1  UNL1       -0.3440
     26  C         17.6110  -24.6610   -6.3570 C.3     1  UNL1        0.2170
     27  C         16.6100  -23.8160   -5.6080 C.2     1  UNL1        0.0040
     28  C         15.5370  -23.1600   -6.2310 C.2     1  UNL1        0.0120
     29  C         14.6510  -22.3790   -5.4840 C.2     1  UNL1        0.0010
     30  C         14.8270  -22.2390   -4.1080 C.2     1  UNL1        0.0030
     31  C         15.8910  -22.8810   -3.4760 C.2     1  UNL1        0.0430
     32  C         16.7680  -23.6580   -4.2280 C.2     1  UNL1        0.1240
     33  F         17.7910  -24.2660   -3.6040 F       1  UNL1       -0.2050
@<TRIPOS>BOND
     1    17    15    2
     2    16    14    1
     3    15    14   ar
     4    15    18   ar
     5    14    11   ar
     6    20    19    2
     7    19    21    2
     8    19    18    1
     9    18     9   ar
    10    11    13    2
    11    11    10   ar
    12     9    10   ar
    13     9     8    1
    14    10    12    1
    15     8     7    2
    16     4     5    2
    17     4     3    1
    18     7     3    1
    19     5     6    1
    20     3     2    2
    21     6    25    1
    22     6     1    2
    23     2     1    1
    24    25    26    1
    25     1    22    1
    26    22    23    1
    27    26    27    1
    28    28    27    2
    29    28    29    1
    30    23    24    1
    31    27    32    1
    32    29    30    2
    33    32    33    1
    34    32    31    2
    35    30    31    1
