@<TRIPOS>MOLECULE
3966_out_ligand_01.pdbqt
 44 47 0 0 0
SMALL
GASTEIGER

@<TRIPOS>ATOM
      1  N         21.4930  -22.8070   -8.7490 N.am    1  UNL1       -0.3260
      2  C         20.7510  -23.9540   -8.5240 C.2     1  UNL1        0.2410
      3  O         20.8460  -25.0160   -9.1330 O.2     1  UNL1       -0.2710
      4  H         21.3030  -22.0460   -8.1030 H       1  UNL1        0.1690
      5  C         19.6900  -23.7740   -7.4450 C.3     1  UNL1        0.2450
      6  N         18.3010  -23.8050   -7.9930 N.pl3   1  UNL1       -0.2630
      7  C         18.0090  -22.9710   -9.1380 C.2     1  UNL1        0.0460
      8  C         16.6770  -22.6240   -9.3770 C.2     1  UNL1        0.0300
      9  C         16.3460  -21.7730  -10.4320 C.2     1  UNL1        0.0030
     10  C         17.3500  -21.2430  -11.2410 C.2     1  UNL1        0.0160
     11  C         18.6960  -21.5510  -10.9960 C.2     1  UNL1        0.0500
     12  C         19.0150  -22.4260   -9.9420 C.2     1  UNL1        0.0460
     13  C         19.7870  -20.9690  -11.8600 C.3     1  UNL1        0.4170
     14  F         19.2990  -20.1460  -12.8270 F       1  UNL1       -0.1660
     15  F         20.5110  -21.9240  -12.5100 F       1  UNL1       -0.1660
     16  F         20.6930  -20.2340  -11.1580 F       1  UNL1       -0.1660
     17  S         17.0620  -23.8650   -6.7980 S.O2    1  UNL1        0.2650
     18  O         17.0160  -25.2170   -6.2790 O.2     1  UNL1       -0.2000
     19  O         15.8660  -23.2490   -7.3370 O.2     1  UNL1       -0.2000
     20  C         17.6850  -22.8150   -5.5020 C.2     1  UNL1        0.0800
     21  C         18.3410  -21.6240   -5.8340 C.2     1  UNL1        0.0250
     22  C         18.8320  -20.8070   -4.8160 C.2     1  UNL1        0.0020
     23  C         18.6520  -21.1690   -3.4800 C.2     1  UNL1        0.0000
     24  C         17.9750  -22.3450   -3.1540 C.2     1  UNL1        0.0020
     25  C         17.4790  -23.1680   -4.1650 C.2     1  UNL1        0.0250
     26  C         22.5150  -22.6030   -9.6910 C.2     1  UNL1        0.0340
     27  C         22.6060  -23.2910  -10.9040 C.2     1  UNL1        0.0310
     28  C         23.6500  -23.0260  -11.7960 C.2     1  UNL1        0.0270
     29  C         24.6070  -22.0630  -11.4730 C.2     1  UNL1        0.0800
     30  C         24.5390  -21.3760  -10.2600 C.2     1  UNL1        0.0270
     31  C         23.4900  -21.6440   -9.3780 C.2     1  UNL1        0.0310
     32  S         25.9340  -21.7120  -12.5980 S.O2    1  UNL1        0.2630
     33  O         26.8910  -20.8960  -11.8790 O.2     1  UNL1       -0.2000
     34  O         26.3410  -22.9400  -13.2440 O.2     1  UNL1       -0.2000
     35  N         25.2080  -20.6860  -13.7290 N.pl3   1  UNL1       -0.2800
     36  H         25.3280  -19.7110  -13.4610 H       1  UNL1        0.1790
     37  C         25.3220  -21.0110  -15.1120 C.2     1  UNL1        0.0490
     38  C         26.2320  -20.3410  -15.9410 C.2     1  UNL1       -0.0350
     39  C         26.3350  -20.7390  -17.2840 C.2     1  UNL1        0.0090
     40  C         27.1210  -19.2430  -15.4310 C.3     1  UNL1        0.0500
     41  C         25.5450  -21.7770  -17.7870 C.2     1  UNL1        0.0070
     42  C         24.6320  -22.4360  -16.9600 C.2     1  UNL1       -0.0600
     43  C         23.8120  -23.5720  -17.4930 C.3     1  UNL1        0.0480
     44  C         24.5350  -22.0520  -15.6180 C.2     1  UNL1        0.0370
@<TRIPOS>BOND
     1    41    39    2
     2    41    42    1
     3    43    42    1
     4    39    38    1
     5    42    44    2
     6    38    40    1
     7    38    37    2
     8    44    37    1
     9    37    35    1
    10    35    36    1
    11    35    32    1
    12    34    32    2
    13    14    13    1
    14    32    33    2
    15    32    29    1
    16    15    13    1
    17    13    16    1
    18    13    11    1
    19    28    29    2
    20    28    27    1
    21    29    30    1
    22    10    11    2
    23    10     9    1
    24    11    12    1
    25    27    26    2
    26     9     8    2
    27    30    31    2
    28    12     7    2
    29    26    31    1
    30    26     1    1
    31     8     7    1
    32     7     6    1
    33     3     2    2
    34     1     2   am
    35     1     4    1
    36     2     5    1
    37     6     5    1
    38     6    17    1
    39    19    17    2
    40    17    18    2
    41    17    20    1
    42    21    20    2
    43    21    22    1
    44    20    25    1
    45    22    23    2
    46    25    24    2
    47    23    24    1
