@<TRIPOS>MOLECULE
39690_out_ligand_01.pdbqt
 32 36 0 0 0
SMALL
GASTEIGER

@<TRIPOS>ATOM
      1  C         23.7580  -22.3390   -9.9840 C.3     1  UNL1        0.1360
      2  C         24.4000  -22.5710  -11.3230 C.2     1  UNL1        0.0240
      3  C         23.8700  -22.1520  -12.4860 C.2     1  UNL1        0.0270
      4  C         24.5360  -22.4210  -13.7600 C.2     1  UNL1       -0.0060
      5  C         24.0040  -21.9600  -14.9680 C.2     1  UNL1        0.0530
      6  C         25.7430  -23.1540  -13.7550 C.2     1  UNL1        0.0480
      7  C         24.7030  -22.2440  -16.1230 C.2     1  UNL1        0.1050
      8  C         25.8790  -22.9600  -16.1080 C.2     1  UNL1        0.1070
      9  O         24.3460  -21.8640  -17.3770 O.2     1  UNL1       -0.3230
     10  C         26.4280  -23.4360  -14.9380 C.2     1  UNL1        0.0700
     11  O         26.4040  -23.1210  -17.3530 O.2     1  UNL1       -0.3230
     12  C         25.4390  -22.4030  -18.1500 C.3     1  UNL1        0.3520
     13  N         26.2610  -23.5980  -12.5320 N.am    1  UNL1       -0.3220
     14  C         25.6760  -23.3440  -11.3200 C.2     1  UNL1        0.2530
     15  H         27.1280  -24.1160  -12.5020 H       1  UNL1        0.1690
     16  O         26.1940  -23.7310  -10.2760 O.2     1  UNL1       -0.2680
     17  N         23.0960  -23.5740   -9.5600 N.pl3   1  UNL1       -0.2890
     18  H         22.9970  -24.1980  -10.3660 H       1  UNL1        0.1280
     19  C         21.8570  -23.4560   -8.9120 C.2     1  UNL1        0.0080
     20  C         20.9790  -24.5430   -8.9350 C.2     1  UNL1        0.0260
     21  C         19.7440  -24.5030   -8.2710 C.2     1  UNL1        0.0310
     22  C         19.3410  -23.3860   -7.5320 C.2     1  UNL1        0.0300
     23  C         20.2610  -22.3320   -7.4550 C.2     1  UNL1        0.0310
     24  C         21.4960  -22.3670   -8.1210 C.2     1  UNL1        0.0260
     25  N         18.1070  -23.2860   -6.8890 N.pl3   1  UNL1       -0.3780
     26  C         17.3260  -24.4900   -6.5660 C.3     1  UNL1        0.1230
     27  C         16.0830  -24.6370   -7.4570 C.3     1  UNL1        0.0220
     28  C         16.2020  -23.8880   -8.7820 C.3     1  UNL1        0.0350
     29  C         16.5170  -22.4000   -8.5770 C.3     1  UNL1        0.1360
     30  C         17.2710  -22.1230   -7.2580 C.3     1  UNL1        0.1540
     31  O         17.2660  -21.9320   -9.7030 O.3     1  UNL1       -0.3940
     32  H         18.1500  -21.6990   -9.3700 H       1  UNL1        0.2100
@<TRIPOS>BOND
     1    12     9    1
     2    12    11    1
     3     9     7    1
     4    11     8    1
     5     7     8    2
     6     7     5    1
     7     8    10    1
     8     5     4    2
     9    10     6    2
    10     4     6    1
    11     4     3    1
    12     6    13    1
    13    13    15    1
    14    13    14   am
    15     3     2    2
    16     2    14    1
    17     2     1    1
    18    14    16    2
    19    18    17    1
    20     1    17    1
    21    31    32    1
    22    31    29    1
    23    17    19    1
    24    20    19    2
    25    20    21    1
    26    19    24    1
    27    28    29    1
    28    28    27    1
    29    29    30    1
    30    21    22    2
    31    24    23    2
    32    22    23    1
    33    22    25    1
    34    27    26    1
    35    30    25    1
    36    25    26    1
