@<TRIPOS>MOLECULE
3970_out_ligand_01.pdbqt
 35 38 0 0 0
SMALL
GASTEIGER

@<TRIPOS>ATOM
      1  C         21.1120  -22.7180  -10.4980 C.2     1  UNL1        0.0340
      2  C         20.7510  -23.7080   -9.5740 C.2     1  UNL1        0.0310
      3  C         19.4320  -23.8230   -9.1280 C.2     1  UNL1        0.0270
      4  C         18.4630  -22.9420   -9.6140 C.2     1  UNL1        0.0800
      5  C         18.8170  -21.9300  -10.5070 C.2     1  UNL1        0.0270
      6  C         20.1370  -21.8280  -10.9560 C.2     1  UNL1        0.0310
      7  S         16.7800  -23.0830   -9.0550 S.O2    1  UNL1        0.2630
      8  O         16.3790  -21.7830   -8.5600 O.2     1  UNL1       -0.2000
      9  O         16.0210  -23.7540  -10.0860 O.2     1  UNL1       -0.2000
     10  N         16.8880  -24.0780   -7.6940 N.pl3   1  UNL1       -0.2800
     11  H         16.6830  -25.0520   -7.9020 H       1  UNL1        0.1790
     12  C         16.4730  -23.5610   -6.4260 C.2     1  UNL1        0.0530
     13  C         15.2690  -24.0320   -5.8930 C.2     1  UNL1        0.0310
     14  C         14.8450  -23.6130   -4.6370 C.2     1  UNL1        0.0030
     15  C         15.6300  -22.7230   -3.9040 C.2     1  UNL1        0.0120
     16  C         16.8470  -22.2430   -4.4150 C.2     1  UNL1       -0.0240
     17  C         17.6340  -21.3670   -3.6490 C.2     1  UNL1        0.0120
     18  C         17.2890  -22.6550   -5.6970 C.2     1  UNL1        0.0010
     19  C         18.8540  -20.8920   -4.1290 C.2     1  UNL1        0.0010
     20  C         19.3000  -21.2800   -5.3860 C.2     1  UNL1        0.0010
     21  C         18.5260  -22.1430   -6.1640 C.2     1  UNL1        0.0140
     22  N         22.4570  -22.6870  -10.9070 N.am    1  UNL1       -0.3260
     23  C         23.4790  -21.8770  -10.4280 C.2     1  UNL1        0.2350
     24  O         23.3810  -21.0580   -9.5180 O.2     1  UNL1       -0.2720
     25  H         22.7010  -23.2560  -11.7110 H       1  UNL1        0.1690
     26  C         24.8220  -22.1700  -11.1170 C.3     1  UNL1        0.1350
     27  C         25.6870  -20.9210  -11.2410 C.3     1  UNL1        0.0310
     28  S         24.5150  -22.8700  -12.7960 S.3     1  UNL1       -0.1500
     29  C         24.8140  -21.3840  -13.8060 C.3     1  UNL1        0.1130
     30  C         24.8090  -21.6800  -15.2860 C.2     1  UNL1       -0.0490
     31  C         25.0060  -20.6520  -16.2210 C.2     1  UNL1        0.0080
     32  C         25.0030  -20.9260  -17.5880 C.2     1  UNL1        0.0010
     33  C         24.8070  -22.2290  -18.0390 C.2     1  UNL1        0.0000
     34  C         24.6090  -23.2580  -17.1220 C.2     1  UNL1        0.0010
     35  C         24.6080  -22.9880  -15.7530 C.2     1  UNL1        0.0080
@<TRIPOS>BOND
     1    33    32    2
     2    33    34    1
     3    32    31    1
     4    34    35    2
     5    31    30    2
     6    35    30    1
     7    30    29    1
     8    29    28    1
     9    28    26    1
    10    25    22    1
    11    27    26    1
    12    26    23    1
    13     6     5    1
    14     6     1    2
    15    22     1    1
    16    22    23   am
    17     5     4    2
    18     1     2    1
    19    23    24    2
    20     9     7    2
    21     4     3    1
    22     4     7    1
    23     2     3    2
    24     7     8    2
    25     7    10    1
    26    11    10    1
    27    10    12    1
    28    12    13    2
    29    12    18    1
    30    21    18    1
    31    21    20    2
    32    13    14    1
    33    18    16    2
    34    20    19    1
    35    14    15    2
    36    16    15    1
    37    16    17    1
    38    19    17    2
