@<TRIPOS>MOLECULE
39714_out_ligand_01.pdbqt
 31 34 0 0 0
SMALL
GASTEIGER

@<TRIPOS>ATOM
      1  N         21.9520  -23.1040   -8.7380 N.am    1  UNL1       -0.3530
      2  C         20.7950  -23.8470   -8.7010 C.2     1  UNL1        0.2310
      3  O         20.7340  -24.9880   -9.1500 O.2     1  UNL1       -0.2720
      4  H         21.9970  -22.2160   -8.2500 H       1  UNL1        0.1620
      5  C         23.1920  -23.6500   -9.2400 C.3     1  UNL1        0.2030
      6  C         23.5300  -22.9330  -10.4950 C.ar    1  UNL1        0.1480
      7  N         24.8000  -22.7870  -11.0090 N.ar    1  UNL1       -0.3140
      8  C         26.0300  -23.2880  -10.4500 C.3     1  UNL1        0.1600
      9  C         24.6440  -22.0890  -12.1730 C.ar    1  UNL1        0.1910
     10  N         23.3720  -21.8340  -12.3700 N.ar    1  UNL1       -0.1230
     11  N         22.6690  -22.3710  -11.3210 N.ar    1  UNL1       -0.1320
     12  S         25.9510  -21.6450  -13.2100 S.3     1  UNL1       -0.0860
     13  C         25.0680  -20.6020  -14.4130 C.3     1  UNL1        0.1210
     14  C         24.8670  -21.3250  -15.7220 C.2     1  UNL1       -0.0490
     15  C         24.5240  -22.6850  -15.7360 C.2     1  UNL1        0.0080
     16  C         24.3460  -23.3570  -16.9450 C.2     1  UNL1        0.0010
     17  C         24.5210  -22.6810  -18.1530 C.2     1  UNL1        0.0000
     18  C         24.8720  -21.3330  -18.1520 C.2     1  UNL1        0.0010
     19  C         25.0500  -20.6580  -16.9430 C.2     1  UNL1        0.0080
     20  C         19.5700  -23.0960   -8.1260 C.3     1  UNL1        0.0680
     21  C         18.6870  -24.0480   -7.2830 C.3     1  UNL1        0.0240
     22  C         17.9480  -23.1430   -6.3020 C.3     1  UNL1        0.0020
     23  C         18.8680  -21.9480   -6.0670 C.3     1  UNL1        0.0020
     24  C         20.0470  -22.1200   -7.0240 C.3     1  UNL1        0.0240
     25  C         18.7600  -22.4840   -9.2830 C.2     1  UNL1       -0.0370
     26  C         17.3570  -22.5300   -9.3580 C.2     1  UNL1        0.0090
     27  C         16.6660  -21.9200  -10.4110 C.2     1  UNL1        0.0040
     28  C         17.3650  -21.2430  -11.4080 C.2     1  UNL1        0.0420
     29  C         18.7490  -21.1880  -11.3480 C.2     1  UNL1        0.1170
     30  F         19.4250  -20.5150  -12.2850 F       1  UNL1       -0.2060
     31  C         19.4440  -21.8030  -10.3110 C.2     1  UNL1        0.0500
@<TRIPOS>BOND
     1    17    18    2
     2    17    16    1
     3    18    19    1
     4    16    15    2
     5    19    14    2
     6    15    14    1
     7    14    13    1
     8    13    12    1
     9    12     9    1
    10    10     9   ar
    11    10    11   ar
    12    30    29    1
    13     9     7   ar
    14    28    29    2
    15    28    27    1
    16    29    31    1
    17    11     6   ar
    18     7     6   ar
    19     7     8    1
    20     6     5    1
    21    27    26    2
    22    31    25    2
    23    26    25    1
    24    25    20    1
    25     5     1    1
    26     3     2    2
    27     1     2   am
    28     1     4    1
    29     2    20    1
    30    20    21    1
    31    20    24    1
    32    21    22    1
    33    24    23    1
    34    22    23    1
