@<TRIPOS>MOLECULE
39716_out_ligand_01.pdbqt
 30 33 0 0 0
SMALL
GASTEIGER

@<TRIPOS>ATOM
      1  C         22.2180  -24.0110   -8.8400 C.3     1  UNL1        0.0690
      2  C         21.0770  -23.2660   -9.4530 C.ar    1  UNL1        0.0200
      3  C         21.0570  -22.3010  -10.4480 C.ar    1  UNL1       -0.0010
      4  C         19.6950  -21.9680  -10.7180 C.ar    1  UNL1        0.0030
      5  C         19.0590  -21.0900  -11.6250 C.2     1  UNL1        0.0140
      6  C         17.6650  -20.9790  -11.6270 C.2     1  UNL1        0.0010
      7  C         16.9000  -21.7230  -10.7370 C.2     1  UNL1        0.0020
      8  C         17.5020  -22.5940   -9.8260 C.2     1  UNL1        0.0300
      9  C         18.9050  -22.7050   -9.8340 C.ar    1  UNL1        0.0460
     10  N         19.7630  -23.4790   -9.0720 N.ar    1  UNL1       -0.3410
     11  C         19.3300  -24.3860   -8.0120 C.3     1  UNL1        0.2310
     12  C         18.2730  -23.7870   -7.1050 C.2     1  UNL1        0.2360
     13  O         18.5120  -22.7800   -6.4410 O.2     1  UNL1       -0.2720
     14  N         17.0410  -24.4050   -7.1280 N.am    1  UNL1       -0.3550
     15  H         16.9530  -25.2860   -7.6200 H       1  UNL1        0.1620
     16  C         15.8880  -23.9800   -6.3390 C.3     1  UNL1        0.0840
     17  C         15.4570  -22.5450   -6.6710 C.3     1  UNL1        0.0250
     18  C         14.4000  -22.0600   -5.6860 C.3     1  UNL1        0.0020
     19  C         14.9120  -22.0470   -4.2440 C.3     1  UNL1        0.0000
     20  C         16.1180  -22.9550   -4.0050 C.3     1  UNL1        0.0020
     21  C         16.0570  -24.2390   -4.8300 C.3     1  UNL1        0.0250
     22  C         22.1890  -21.7500  -11.1270 C.2     1  UNL1        0.0150
     23  C         22.6370  -22.1580  -12.3270 C.2     1  UNL1        0.0120
     24  C         23.8010  -21.5910  -13.0140 C.2     1  UNL1       -0.0340
     25  C         23.6720  -21.1910  -14.3430 C.2     1  UNL1        0.0280
     26  C         24.7700  -20.6710  -15.0180 C.3     1  UNL1        0.0900
     27  N         25.9680  -20.5650  -14.4040 N.pl3   1  UNL1       -0.3710
     28  C         27.1210  -20.0000  -15.1260 C.3     1  UNL1        0.1540
     29  C         26.1220  -20.9580  -13.1200 C.2     1  UNL1        0.0900
     30  C         25.0500  -21.4820  -12.4060 C.2     1  UNL1        0.0280
@<TRIPOS>BOND
     1    28    27    1
     2    26    27    1
     3    26    25    1
     4    27    29    1
     5    25    24    2
     6    29    30    2
     7    24    30    1
     8    24    23    1
     9    23    22    2
    10     6     5    1
    11     6     7    2
    12     5     4    2
    13    22     3    1
    14     7     8    1
    15     4     3   ar
    16     4     9   ar
    17     3     2   ar
    18     9     8    2
    19     9    10   ar
    20     2    10   ar
    21     2     1    1
    22    10    11    1
    23    11    12    1
    24    15    14    1
    25    14    12   am
    26    14    16    1
    27    12    13    2
    28    17    16    1
    29    17    18    1
    30    16    21    1
    31    18    19    1
    32    21    20    1
    33    19    20    1
