@<TRIPOS>MOLECULE
39723_out_ligand_01.pdbqt
 29 32 0 0 0
SMALL
GASTEIGER

@<TRIPOS>ATOM
      1  C         22.1180  -24.0660   -8.9790 C.3     1  UNL1        0.0690
      2  C         21.0200  -23.3040   -9.6480 C.ar    1  UNL1        0.0200
      3  C         21.0670  -22.4610  -10.7470 C.ar    1  UNL1       -0.0010
      4  C         19.7550  -21.9380  -10.9650 C.ar    1  UNL1        0.0030
      5  C         19.1950  -21.0130  -11.8770 C.2     1  UNL1        0.0140
      6  C         17.8310  -20.7120  -11.8230 C.2     1  UNL1        0.0010
      7  C         17.0160  -21.3140  -10.8730 C.2     1  UNL1        0.0020
      8  C         17.5420  -22.2210   -9.9500 C.2     1  UNL1        0.0300
      9  C         18.9170  -22.5140  -10.0040 C.ar    1  UNL1        0.0460
     10  N         19.7080  -23.3310   -9.2110 N.ar    1  UNL1       -0.3410
     11  C         19.2210  -24.0810   -8.0610 C.3     1  UNL1        0.2310
     12  C         18.8120  -23.1720   -6.9230 C.2     1  UNL1        0.2360
     13  O         19.4990  -22.2100   -6.5800 O.2     1  UNL1       -0.2720
     14  N         17.6320  -23.5210   -6.2940 N.am    1  UNL1       -0.3550
     15  H         17.0500  -24.2390   -6.7080 H       1  UNL1        0.1620
     16  C         17.1130  -22.7620   -5.1710 C.3     1  UNL1        0.0840
     17  C         17.2980  -23.4970   -3.8330 C.3     1  UNL1        0.0250
     18  C         15.9010  -23.6530   -3.2440 C.3     1  UNL1        0.0020
     19  C         15.1080  -22.5180   -3.8640 C.3     1  UNL1        0.0020
     20  C         15.6080  -22.5070   -5.2980 C.3     1  UNL1        0.0250
     21  C         22.2690  -22.1800  -11.4710 C.2     1  UNL1        0.0150
     22  C         22.3230  -21.8410  -12.7700 C.2     1  UNL1        0.0120
     23  C         23.5720  -21.5830  -13.4940 C.2     1  UNL1       -0.0340
     24  C         23.5610  -20.7170  -14.5850 C.2     1  UNL1        0.0280
     25  C         24.7360  -20.4760  -15.2870 C.3     1  UNL1        0.0900
     26  N         25.8890  -21.0820  -14.9270 N.pl3   1  UNL1       -0.3710
     27  C         27.1210  -20.8100  -15.6850 C.3     1  UNL1        0.1540
     28  C         25.9180  -21.9510  -13.8930 C.2     1  UNL1        0.0900
     29  C         24.7670  -22.2190  -13.1610 C.2     1  UNL1        0.0280
@<TRIPOS>BOND
     1    27    26    1
     2    25    26    1
     3    25    24    1
     4    26    28    1
     5    24    23    2
     6    28    29    2
     7    23    29    1
     8    23    22    1
     9    22    21    2
    10     5     6    1
    11     5     4    2
    12     6     7    2
    13    21     3    1
    14     4     3   ar
    15     4     9   ar
    16     7     8    1
    17     3     2   ar
    18     9     8    2
    19     9    10   ar
    20     2    10   ar
    21     2     1    1
    22    10    11    1
    23    11    12    1
    24    12    13    2
    25    12    14   am
    26    15    14    1
    27    14    16    1
    28    20    16    1
    29    20    19    1
    30    16    17    1
    31    19    18    1
    32    17    18    1
