@<TRIPOS>MOLECULE
3976_out_ligand_01.pdbqt
 45 49 0 0 0
SMALL
GASTEIGER

@<TRIPOS>ATOM
      1  C         20.3780  -22.0630   -7.1710 C.2     1  UNL1        0.0590
      2  C         20.9900  -21.0200   -6.4610 C.2     1  UNL1        0.0190
      3  C         20.2810  -20.3400   -5.4710 C.2     1  UNL1        0.0010
      4  C         18.9570  -20.6860   -5.2050 C.2     1  UNL1        0.0020
      5  C         18.3400  -21.7120   -5.9230 C.2     1  UNL1        0.0310
      6  C         19.0400  -22.4110   -6.9140 C.2     1  UNL1        0.0610
      7  C         21.1750  -22.7080   -8.2350 C.2     1  UNL1        0.2580
      8  O         21.2310  -23.9320   -8.2380 O.2     1  UNL1       -0.2670
      9  N         21.7870  -21.8320   -9.1070 N.am    1  UNL1       -0.3230
     10  H         21.6530  -20.8340   -8.9350 H       1  UNL1        0.1690
     11  C         22.6990  -22.1530  -10.1320 C.2     1  UNL1        0.0350
     12  C         23.9930  -22.5230   -9.7370 C.2     1  UNL1        0.0310
     13  C         24.9340  -22.9360  -10.6830 C.2     1  UNL1        0.0270
     14  C         24.5820  -22.9580  -12.0340 C.2     1  UNL1        0.0800
     15  C         23.3150  -22.5370  -12.4470 C.2     1  UNL1        0.0270
     16  C         22.3710  -22.1520  -11.4890 C.2     1  UNL1        0.0310
     17  S         25.7380  -23.5580  -13.2440 S.O2    1  UNL1        0.2630
     18  O         26.2350  -24.8360  -12.7750 O.2     1  UNL1       -0.2000
     19  O         25.1380  -23.4200  -14.5540 O.2     1  UNL1       -0.2000
     20  N         27.0310  -22.4730  -13.1150 N.pl3   1  UNL1       -0.2810
     21  H         27.4790  -22.5370  -12.2030 H       1  UNL1        0.1790
     22  C         26.9260  -21.1850  -13.7180 C.2     1  UNL1        0.0420
     23  C         26.7850  -20.0280  -12.9490 C.2     1  UNL1        0.0310
     24  C         26.7440  -18.7770  -13.5740 C.2     1  UNL1        0.0210
     25  C         26.8470  -18.6910  -14.9620 C.2     1  UNL1        0.0110
     26 BR         26.8300  -16.9980  -15.8050 Br      1  UNL1       -0.0510
     27  C         26.9670  -19.8450  -15.7360 C.2     1  UNL1        0.0210
     28  C         27.0020  -21.0950  -15.1120 C.2     1  UNL1        0.0310
     29  N         18.3370  -23.4200   -7.6560 N.pl3   1  UNL1       -0.2670
     30  C         18.6510  -23.6600   -9.0760 C.3     1  UNL1        0.1800
     31  C         18.1530  -22.5680  -10.0010 C.2     1  UNL1       -0.0390
     32  C         19.0080  -22.0000  -10.9570 C.2     1  UNL1        0.0090
     33  C         18.5600  -20.9600  -11.7740 C.2     1  UNL1        0.0010
     34  C         17.2580  -20.4800  -11.6430 C.2     1  UNL1        0.0000
     35  C         16.4020  -21.0340  -10.6940 C.2     1  UNL1        0.0010
     36  C         16.8450  -22.0730   -9.8750 C.2     1  UNL1        0.0090
     37  S         17.3800  -24.5250   -6.8190 S.O2    1  UNL1        0.2650
     38  O         16.6300  -25.3280   -7.7620 O.2     1  UNL1       -0.2000
     39  O         18.2050  -25.1600   -5.8070 O.2     1  UNL1       -0.2000
     40  C         16.2150  -23.4720   -5.9870 C.2     1  UNL1        0.0800
     41  C         16.1640  -23.4560   -4.5880 C.2     1  UNL1        0.0250
     42  C         15.2300  -22.6460   -3.9450 C.2     1  UNL1        0.0020
     43  C         14.3480  -21.8670   -4.6950 C.2     1  UNL1        0.0000
     44  C         14.3900  -21.9000   -6.0920 C.2     1  UNL1        0.0020
     45  C         15.3220  -22.7080   -6.7430 C.2     1  UNL1        0.0250
@<TRIPOS>BOND
     1    26    25    1
     2    27    28    1
     3    27    25    2
     4    28    22    2
     5    25    24    1
     6    19    17    2
     7    22    20    1
     8    22    23    1
     9    24    23    2
    10    17    20    1
    11    17    18    2
    12    17    14    1
    13    20    21    1
    14    15    14    2
    15    15    16    1
    16    14    13    1
    17    33    34    2
    18    33    32    1
    19    34    35    1
    20    16    11    2
    21    32    31    2
    22    35    36    2
    23    13    12    2
    24    11    12    1
    25    11     9    1
    26    31    36    1
    27    31    30    1
    28     9    10    1
    29     9     7   am
    30    30    29    1
    31     8     7    2
    32     7     1    1
    33    38    37    2
    34    29     6    1
    35    29    37    1
    36     1     6    2
    37     1     2    1
    38     6     5    1
    39    37    40    1
    40    37    39    2
    41    45    44    1
    42    45    40    2
    43     2     3    2
    44    44    43    2
    45    40    41    1
    46     5     4    2
    47     3     4    1
    48    43    42    1
    49    41    42    2
