@<TRIPOS>MOLECULE
39777_out_ligand_01.pdbqt
 34 37 0 0 0
SMALL
GASTEIGER

@<TRIPOS>ATOM
      1  C         18.9990  -22.7850   -9.1490 C.2     1  UNL1        0.0260
      2  C         19.9210  -23.6180   -8.4900 C.2     1  UNL1        0.0270
      3  C         21.2310  -23.7700   -8.9550 C.2     1  UNL1        0.0310
      4  C         21.6700  -23.0920  -10.0930 C.2     1  UNL1        0.0360
      5  C         20.7760  -22.2550  -10.7590 C.2     1  UNL1        0.0480
      6  C         19.4500  -22.0980  -10.3050 C.2     1  UNL1        0.0550
      7  N         23.0020  -23.3020  -10.4840 N.am    1  UNL1       -0.3220
      8  C         24.0810  -22.4440  -10.3720 C.2     1  UNL1        0.2770
      9  O         24.0610  -21.3100   -9.9140 O.2     1  UNL1       -0.2660
     10  H         23.2320  -24.1900  -10.9230 H       1  UNL1        0.1690
     11  C         25.2990  -23.0680  -10.8890 C.2     1  UNL1        0.1610
     12  N         26.1940  -23.7320  -10.0450 N.2     1  UNL1       -0.2280
     13  C         27.1150  -24.1780  -10.8650 C.2     1  UNL1        0.2590
     14  O         26.9220  -23.8730  -12.1720 O.2     1  UNL1       -0.3010
     15  C         25.7540  -23.1450  -12.1960 C.2     1  UNL1        0.1210
     16  C         25.3500  -22.6750  -13.5140 C.2     1  UNL1        0.0030
     17  C         25.0880  -21.3180  -13.7610 C.2     1  UNL1        0.0140
     18  C         24.7070  -20.8770  -15.0340 C.2     1  UNL1        0.0040
     19  C         24.5930  -21.7880  -16.0790 C.2     1  UNL1        0.0420
     20  C         24.8610  -23.1300  -15.8430 C.2     1  UNL1        0.1170
     21  F         24.7550  -24.0100  -16.8480 F       1  UNL1       -0.2060
     22  C         25.2370  -23.5780  -14.5800 C.2     1  UNL1        0.0560
     23  C         18.5830  -21.1950  -11.1250 C.2     1  UNL1        0.2510
     24  N         17.2900  -21.5850  -11.3280 N.am    1  UNL1       -0.3660
     25  H         16.6610  -20.9120  -11.7400 H       1  UNL1        0.1590
     26  H         16.9180  -22.3110  -10.7210 H       1  UNL1        0.1590
     27  O         18.9990  -20.1490  -11.6070 O.2     1  UNL1       -0.2680
     28  N         17.6960  -22.5940   -8.6250 N.pl3   1  UNL1       -0.2820
     29  C         17.7620  -22.0660   -7.2420 C.3     1  UNL1        0.0960
     30  C         16.3560  -21.9880   -6.6540 C.3     1  UNL1        0.0190
     31  C         15.6940  -23.3750   -6.5670 C.3     1  UNL1       -0.0160
     32  C         15.7610  -23.9390   -5.1470 C.3     1  UNL1        0.0100
     33  C         16.3130  -24.3710   -7.5640 C.3     1  UNL1        0.0190
     34  C         16.7210  -23.6810   -8.8620 C.3     1  UNL1        0.0960
@<TRIPOS>BOND
     1    21    20    1
     2    19    20    2
     3    19    18    1
     4    20    22    1
     5    18    17    2
     6    22    16    2
     7    17    16    1
     8    16    15    1
     9    15    14    1
    10    15    11    2
    11    14    13    1
    12    25    24    1
    13    27    23    2
    14    24    23   am
    15    24    26    1
    16    23     6    1
    17    10     7    1
    18    11     8    1
    19    11    12    1
    20    13    12    2
    21     5     6    1
    22     5     4    2
    23     7     8   am
    24     7     4    1
    25     8     9    2
    26     6     1    2
    27     4     3    1
    28     1    28    1
    29     1     2    1
    30     3     2    2
    31    34    28    1
    32    34    33    1
    33    28    29    1
    34    33    31    1
    35    29    30    1
    36    30    31    1
    37    31    32    1
