@<TRIPOS>MOLECULE
39798_out_ligand_01.pdbqt
 27 30 0 0 0
SMALL
GASTEIGER

@<TRIPOS>ATOM
      1  C         22.0320  -22.9900  -10.4850 C.ar    1  UNL1        0.2110
      2  N         22.5410  -23.7970   -9.5660 N.ar    1  UNL1       -0.1070
      3  N         21.5120  -24.2050   -8.7150 N.ar    1  UNL1        0.0450
      4  C         20.4180  -23.6550   -9.1760 C.ar    1  UNL1        0.7350
      5  N         19.0870  -23.5800   -8.9040 N.ar    1  UNL1       -0.1730
      6  C         18.5470  -22.6530   -9.8020 C.ar    1  UNL1        0.0800
      7  C         17.2780  -22.1410   -9.9400 C.2     1  UNL1        0.0320
      8  C         17.0470  -21.2140  -10.9700 C.2     1  UNL1        0.0020
      9  C         18.0780  -20.8050  -11.8430 C.2     1  UNL1        0.0020
     10  C         19.3730  -21.3090  -11.7130 C.2     1  UNL1        0.0330
     11  C         19.5600  -22.2170  -10.6980 C.ar    1  UNL1        0.0870
     12  N         20.7020  -22.8710  -10.2620 N.ar    1  UNL1       -0.1170
     13  C         18.5350  -24.0190   -7.6390 C.3     1  UNL1        0.1880
     14  C         18.5420  -22.9440   -6.5730 C.2     1  UNL1       -0.0180
     15  C         19.5360  -21.9450   -6.6180 C.2     1  UNL1        0.0100
     16  C         19.5870  -20.9360   -5.6550 C.2     1  UNL1        0.0010
     17  C         18.6540  -20.9110   -4.6240 C.2     1  UNL1        0.0020
     18  C         17.6750  -21.9000   -4.5510 C.2     1  UNL1        0.0240
     19  C         17.6200  -22.9140   -5.5140 C.2     1  UNL1        0.0420
     20 CL         16.4010  -24.1230   -5.3180 Cl      1  UNL1       -0.0840
     21  S         22.8910  -22.1840  -11.7420 S.3     1  UNL1       -0.0800
     22  C         24.4350  -21.7490  -10.8910 C.3     1  UNL1        0.1840
     23  C         25.4770  -22.8350  -11.0890 C.2     1  UNL1        0.2250
     24  N         25.6700  -23.6730  -10.0260 N.am    1  UNL1       -0.3690
     25  H         26.4580  -24.3020  -10.1120 H       1  UNL1        0.1590
     26  H         25.5050  -23.3070   -9.0890 H       1  UNL1        0.1590
     27  O         26.1210  -22.9790  -12.1250 O.2     1  UNL1       -0.2730
@<TRIPOS>BOND
     1    27    23    2
     2     9    10    2
     3     9     8    1
     4    21    22    1
     5    21     1    1
     6    10    11    1
     7    23    22    1
     8    23    24   am
     9     8     7    2
    10    11    12   ar
    11    11     6   ar
    12     1    12   ar
    13     1     2   ar
    14    12     4   ar
    15    25    24    1
    16    24    26    1
    17     7     6    1
    18     6     5   ar
    19     2     3   ar
    20     4     5   ar
    21     4     3   ar
    22     5    13    1
    23    13    14    1
    24    15    14    2
    25    15    16    1
    26    14    19    1
    27    16    17    2
    28    19    20    1
    29    19    18    2
    30    17    18    1
