@<TRIPOS>MOLECULE
39793_out_ligand_01.pdbqt
 31 34 0 0 0
SMALL
GASTEIGER

@<TRIPOS>ATOM
      1  C         20.9520  -22.5130  -10.7620 C.2     1  UNL1        0.0340
      2  C         22.2750  -22.9550  -10.6840 C.2     1  UNL1        0.0300
      3  C         23.2000  -22.6200  -11.6820 C.2     1  UNL1        0.0190
      4  C         22.8090  -21.8290  -12.7680 C.2     1  UNL1        0.0320
      5  C         21.4850  -21.3930  -12.8540 C.2     1  UNL1        0.0190
      6  C         20.5650  -21.7290  -11.8550 C.2     1  UNL1        0.0300
      7  N         19.9580  -22.8110   -9.8070 N.am    1  UNL1       -0.3270
      8  C         19.9230  -23.8710   -8.9210 C.2     1  UNL1        0.2260
      9  O         20.7990  -24.7250   -8.7960 O.2     1  UNL1       -0.2730
     10  H         19.1450  -22.2070   -9.8290 H       1  UNL1        0.1690
     11  C         18.7020  -23.9240   -8.0050 C.3     1  UNL1        0.1420
     12  C         18.6880  -22.9620   -6.8310 C.2     1  UNL1       -0.0380
     13  C         19.6920  -21.9770   -6.7760 C.2     1  UNL1        0.0080
     14  C         19.7150  -21.0420   -5.7480 C.2     1  UNL1        0.0010
     15  C         18.7350  -21.0760   -4.7600 C.2     1  UNL1        0.0120
     16  C         17.7210  -22.0440   -4.7820 C.2     1  UNL1       -0.0250
     17  C         16.7400  -22.0540   -3.7770 C.2     1  UNL1        0.0120
     18  C         17.6850  -23.0080   -5.8210 C.2     1  UNL1       -0.0190
     19  C         15.7200  -23.0030   -3.7810 C.2     1  UNL1        0.0010
     20  C         15.6690  -23.9550   -4.7890 C.2     1  UNL1        0.0010
     21  C         16.6390  -23.9600   -5.7950 C.2     1  UNL1        0.0130
     22  C         23.7520  -21.4600  -13.8600 C.2     1  UNL1        0.2510
     23  O         23.4670  -20.5590  -14.6430 O.2     1  UNL1       -0.2680
     24  N         24.9450  -22.1500  -13.9060 N.am    1  UNL1       -0.3540
     25  H         25.2510  -22.6350  -13.0730 H       1  UNL1        0.1620
     26  C         25.9930  -21.7540  -14.8320 C.3     1  UNL1        0.1550
     27  C         26.1750  -22.7810  -15.9600 C.3     1  UNL1        0.1390
     28  C         26.2250  -22.1330  -17.3370 C.3     1  UNL1        0.0350
     29  C         24.7830  -22.1720  -17.7770 C.3     1  UNL1        0.0290
     30  C         24.3220  -23.4920  -17.2030 C.3     1  UNL1        0.1680
     31  O         25.0280  -23.6660  -15.9660 O.3     1  UNL1       -0.3840
@<TRIPOS>BOND
     1    29    28    1
     2    29    30    1
     3    28    27    1
     4    30    31    1
     5    31    27    1
     6    27    26    1
     7    26    24    1
     8    23    22    2
     9    24    22   am
    10    24    25    1
    11    22     4    1
    12     5     4    2
    13     5     6    1
    14     4     3    1
    15     6     1    2
    16     3     2    2
    17     1     2    1
    18     1     7    1
    19    10     7    1
    20     7     8   am
    21     8     9    2
    22     8    11    1
    23    11    12    1
    24    12    13    2
    25    12    18    1
    26    13    14    1
    27    18    21    1
    28    18    16    2
    29    21    20    2
    30    14    15    2
    31    20    19    1
    32    16    15    1
    33    16    17    1
    34    19    17    2
