@<TRIPOS>MOLECULE
3982_out_ligand_01.pdbqt
 43 46 0 0 0
SMALL
GASTEIGER

@<TRIPOS>ATOM
      1  N         21.6720  -23.8940   -9.5500 N.am    1  UNL1       -0.3260
      2  C         20.8260  -23.3680   -8.5880 C.2     1  UNL1        0.2410
      3  O         20.8960  -22.2320   -8.1240 O.2     1  UNL1       -0.2710
      4  H         21.5980  -24.8880   -9.7430 H       1  UNL1        0.1690
      5  C         19.7240  -24.3130   -8.1300 C.3     1  UNL1        0.2450
      6  N         18.3290  -23.9420   -8.4850 N.pl3   1  UNL1       -0.2630
      7  C         18.1750  -22.9550   -9.5180 C.2     1  UNL1        0.0450
      8  C         18.8610  -23.0130  -10.7330 C.2     1  UNL1        0.0300
      9  C         18.6200  -22.0530  -11.7180 C.2     1  UNL1        0.0020
     10  C         17.6820  -21.0450  -11.4990 C.2     1  UNL1        0.0000
     11  C         16.9740  -21.0010  -10.3000 C.2     1  UNL1        0.0020
     12  C         17.2140  -21.9610   -9.3160 C.2     1  UNL1        0.0300
     13  S         17.2010  -24.0180   -7.2360 S.O2    1  UNL1        0.2680
     14  O         17.3520  -25.3180   -6.6050 O.2     1  UNL1       -0.2000
     15  O         15.9020  -23.6450   -7.7490 O.2     1  UNL1       -0.2000
     16  C         17.7000  -22.7670   -6.0930 C.2     1  UNL1        0.1130
     17  C         18.8090  -21.9670   -6.4060 C.2     1  UNL1        0.0280
     18  C         19.2760  -21.0260   -5.4840 C.2     1  UNL1        0.0020
     19  C         18.6540  -20.8860   -4.2430 C.2     1  UNL1        0.0030
     20  C         17.5580  -21.6850   -3.9180 C.2     1  UNL1        0.0380
     21  C         17.0880  -22.6220   -4.8490 C.2     1  UNL1        0.1260
     22  N         15.9250  -23.4010   -4.4680 N.pl3   1  UNL1       -0.1140
     23  O         14.8160  -22.9270   -4.7410 O.2     1  UNL1       -0.5320
     24  O         16.1340  -24.4390   -3.8300 O.2     1  UNL1       -0.5320
     25  C         22.7100  -23.2290  -10.2340 C.2     1  UNL1        0.0340
     26  C         24.0370  -23.1940   -9.7960 C.2     1  UNL1        0.0310
     27  C         25.0040  -22.4860  -10.5170 C.2     1  UNL1        0.0270
     28  C         24.6490  -21.8330  -11.6990 C.2     1  UNL1        0.0800
     29  C         23.3250  -21.8490  -12.1420 C.2     1  UNL1        0.0270
     30  C         22.3620  -22.5440  -11.4060 C.2     1  UNL1        0.0310
     31  S         25.8710  -20.9080  -12.5950 S.O2    1  UNL1        0.2630
     32  O         26.8470  -20.3940  -11.6580 O.2     1  UNL1       -0.2000
     33  O         25.1680  -20.0140  -13.4930 O.2     1  UNL1       -0.2000
     34  N         26.5800  -22.0810  -13.5870 N.pl3   1  UNL1       -0.2810
     35  H         27.0100  -22.8100  -13.0190 H       1  UNL1        0.1790
     36  C         25.8570  -22.5020  -14.7360 C.2     1  UNL1        0.0430
     37  C         25.2450  -23.7520  -14.7580 C.2     1  UNL1        0.0300
     38  C         24.5000  -24.1380  -15.8730 C.2     1  UNL1        0.0090
     39  C         24.3580  -23.2790  -16.9740 C.2     1  UNL1       -0.0560
     40  C         23.5380  -23.7280  -18.1530 C.3     1  UNL1        0.0490
     41  C         24.9750  -22.0110  -16.9470 C.2     1  UNL1       -0.0540
     42  C         25.7240  -21.6360  -15.8190 C.2     1  UNL1        0.0370
     43  C         24.8420  -21.0480  -18.0940 C.3     1  UNL1        0.0490
@<TRIPOS>BOND
     1    40    39    1
     2    43    41    1
     3    39    41    2
     4    39    38    1
     5    41    42    1
     6    38    37    2
     7    42    36    2
     8    37    36    1
     9    36    34    1
    10    34    35    1
    11    34    31    1
    12    33    31    2
    13    31    28    1
    14    31    32    2
    15    29    28    2
    16    29    30    1
    17     9    10    2
    18     9     8    1
    19    28    27    1
    20    10    11    1
    21    30    25    2
    22     8     7    2
    23    27    26    2
    24    11    12    2
    25    25    26    1
    26    25     1    1
    27     4     1    1
    28     1     2   am
    29     7    12    1
    30     7     6    1
    31     2     5    1
    32     2     3    2
    33     6     5    1
    34     6    13    1
    35    15    13    2
    36    13    14    2
    37    13    16    1
    38    17    16    2
    39    17    18    1
    40    16    21    1
    41    18    19    2
    42    21    22    1
    43    21    20    2
    44    23    22    2
    45    22    24    2
    46    19    20    1
