@<TRIPOS>MOLECULE
398_out_ligand_01.pdbqt
 32 34 0 0 0
SMALL
GASTEIGER

@<TRIPOS>ATOM
      1  C         19.5760  -22.3670  -10.6180 C.2     1  UNL1        0.0330
      2  C         19.0950  -21.2760  -11.3580 C.2     1  UNL1        0.0170
      3  C         17.7420  -20.9310  -11.3060 C.2     1  UNL1        0.0030
      4  C         16.8610  -21.6740  -10.5190 C.2     1  UNL1        0.0250
      5  C         17.3400  -22.7660   -9.7910 C.2     1  UNL1        0.0750
      6  C         18.6890  -23.1280   -9.8460 C.2     1  UNL1        0.0410
      7  S         16.2070  -23.7300   -8.8180 S.O2    1  UNL1        0.2450
      8  O         16.9700  -24.4680   -7.8360 O.2     1  UNL1       -0.2060
      9  O         15.2930  -24.3800   -9.7320 O.2     1  UNL1       -0.2060
     10  N         15.3990  -22.4830   -7.9730 N.pl3   1  UNL1       -0.1810
     11  H         15.6210  -21.6110   -8.4570 H       1  UNL1        0.1460
     12  C         15.7630  -22.3990   -6.5900 C.2     1  UNL1        0.0230
     13  C         14.9360  -22.9800   -5.6300 C.2     1  UNL1        0.0240
     14  C         15.3020  -22.9490   -4.2850 C.2     1  UNL1        0.0030
     15  C         16.5010  -22.3460   -3.9020 C.2     1  UNL1        0.0160
     16  C         17.3490  -21.7700   -4.8630 C.2     1  UNL1        0.0490
     17  C         16.9750  -21.8150   -6.2150 C.2     1  UNL1        0.0400
     18  C         18.6620  -21.1520   -4.4520 C.3     1  UNL1        0.4170
     19  F         19.6760  -21.4310   -5.3190 F       1  UNL1       -0.1660
     20  F         18.5970  -19.7950   -4.3730 F       1  UNL1       -0.1660
     21  F         19.0920  -21.5800   -3.2320 F       1  UNL1       -0.1660
     22  C         21.0110  -22.7690  -10.6450 C.2     1  UNL1        0.2520
     23  O         21.4440  -23.5390   -9.7960 O.2     1  UNL1       -0.2680
     24  N         21.7920  -22.1980  -11.6310 N.am    1  UNL1       -0.3520
     25  H         21.4340  -21.3890  -12.1190 H       1  UNL1        0.1630
     26  C         23.2390  -22.4170  -11.6830 C.3     1  UNL1        0.0840
     27  C         23.9320  -21.5370  -10.6330 C.3     1  UNL1        0.0250
     28  C         25.4540  -21.4480  -10.7120 C.3     1  UNL1        0.0020
     29  C         26.1680  -22.7630  -11.0150 C.2     1  UNL1        0.0000
     30  C         25.9010  -23.3870  -12.3910 C.2     1  UNL1        0.0000
     31  C         25.2080  -22.4770  -13.4010 C.3     1  UNL1        0.0020
     32  C         23.7280  -22.1900  -13.1190 C.3     1  UNL1        0.0250
@<TRIPOS>BOND
     1    31    32    1
     2    31    30    1
     3    32    26    1
     4    30    29    2
     5    25    24    1
     6    26    24    1
     7    26    27    1
     8    24    22   am
     9     2     3    1
    10     2     1    2
    11     3     4    2
    12    29    28    1
    13    28    27    1
    14    22     1    1
    15    22    23    2
    16     1     6    1
    17     4     5    1
    18     6     5    2
    19     5     7    1
    20     9     7    2
    21     7    10    1
    22     7     8    2
    23    11    10    1
    24    10    12    1
    25    12    17    2
    26    12    13    1
    27    17    16    1
    28    13    14    2
    29    19    18    1
    30    16    18    1
    31    16    15    2
    32    18    20    1
    33    18    21    1
    34    14    15    1
