@<TRIPOS>MOLECULE
39915_out_ligand_01.pdbqt
 29 32 0 0 0
SMALL
GASTEIGER

@<TRIPOS>ATOM
      1  C         19.8560  -22.3070   -7.1010 C.3     1  UNL1        0.0500
      2  C         20.7300  -22.4050   -8.3220 C.2     1  UNL1       -0.0350
      3  C         22.0770  -22.0250   -8.2050 C.2     1  UNL1        0.0100
      4  C         22.9390  -22.0930   -9.3000 C.2     1  UNL1        0.0160
      5  C         22.4740  -22.5430  -10.5390 C.2     1  UNL1        0.0120
      6  C         21.1230  -22.9130  -10.6600 C.2     1  UNL1        0.0450
      7  C         20.2450  -22.8610   -9.5670 C.2     1  UNL1        0.0410
      8  N         18.8870  -23.2470   -9.6640 N.am    1  UNL1       -0.3230
      9  C         17.7950  -22.4480   -9.9230 C.2     1  UNL1        0.2450
     10  O         17.7540  -21.2520  -10.1670 O.2     1  UNL1       -0.2680
     11  H         18.6860  -24.2260   -9.5280 H       1  UNL1        0.1690
     12  C         16.5490  -23.2520   -9.9500 C.2     1  UNL1        0.0750
     13  C         15.9500  -23.7370   -8.8520 C.2     1  UNL1        0.0170
     14  C         16.4060  -23.5790   -7.4680 C.2     1  UNL1       -0.0360
     15  C         16.0850  -22.4010   -6.7820 C.2     1  UNL1        0.0110
     16  C         16.4770  -22.2250   -5.4530 C.2     1  UNL1        0.0010
     17  C         17.1880  -23.2280   -4.7980 C.2     1  UNL1        0.0000
     18  C         17.5030  -24.4090   -5.4690 C.2     1  UNL1        0.0010
     19  C         17.1080  -24.5860   -6.7970 C.2     1  UNL1        0.0110
     20  C         23.3570  -22.6290  -11.7060 C.ar    1  UNL1        0.1390
     21  N         23.3650  -21.8090  -12.7420 N.ar    1  UNL1       -0.2280
     22  C         24.3270  -22.2790  -13.5990 C.ar    1  UNL1        0.0860
     23  C         24.7440  -21.7820  -14.8410 C.2     1  UNL1        0.0340
     24  C         24.9270  -23.4230  -13.0880 C.ar    1  UNL1        0.0620
     25  C         25.7570  -22.4620  -15.5300 C.2     1  UNL1        0.0020
     26  C         26.3410  -23.6120  -14.9920 C.2     1  UNL1        0.0020
     27  C         25.9370  -24.1220  -13.7520 C.2     1  UNL1        0.0320
     28  N         24.2920  -23.6240  -11.8900 N.ar    1  UNL1       -0.3380
     29  H         24.4570  -24.3940  -11.2620 H       1  UNL1        0.1670
@<TRIPOS>BOND
     1    25    26    2
     2    25    23    1
     3    26    27    1
     4    23    22    2
     5    27    24    2
     6    22    24   ar
     7    22    21   ar
     8    24    28   ar
     9    21    20   ar
    10    28    20   ar
    11    28    29    1
    12    20     5    1
    13     6     5    2
    14     6     7    1
    15     5     4    1
    16    10     9    2
    17    12     9    1
    18    12    13    2
    19     9     8   am
    20     8     7    1
    21     8    11    1
    22     7     2    2
    23     4     3    2
    24    13    14    1
    25     2     3    1
    26     2     1    1
    27    14    19    2
    28    14    15    1
    29    19    18    1
    30    15    16    2
    31    18    17    2
    32    16    17    1
