@<TRIPOS>MOLECULE
39929_out_ligand_01.pdbqt
 31 33 0 0 0
SMALL
GASTEIGER

@<TRIPOS>ATOM
      1  C         19.5360  -22.5850  -10.2820 C.2     1  UNL1        0.0330
      2  C         18.9690  -21.7420  -11.2500 C.2     1  UNL1        0.0170
      3  C         17.6060  -21.4380  -11.2020 C.2     1  UNL1        0.0030
      4  C         16.8080  -21.9590  -10.1820 C.2     1  UNL1        0.0250
      5  C         17.3840  -22.7790   -9.2080 C.2     1  UNL1        0.0800
      6  C         18.7420  -23.1050   -9.2560 C.2     1  UNL1        0.0420
      7  C         20.9870  -22.9090  -10.2810 C.2     1  UNL1        0.2560
      8  O         21.3640  -23.8340   -9.5720 O.2     1  UNL1       -0.2670
      9  N         21.7600  -22.1290  -11.1220 N.am    1  UNL1       -0.3230
     10  H         21.2670  -21.4870  -11.7300 H       1  UNL1        0.1690
     11  C         23.1600  -22.1910  -11.2970 C.2     1  UNL1        0.0370
     12  C         24.0770  -21.5040  -10.4970 C.2     1  UNL1        0.0290
     13  C         25.4530  -21.6070  -10.7300 C.2     1  UNL1        0.0050
     14  C         25.9320  -22.4000  -11.7710 C.2     1  UNL1        0.0360
     15  C         25.0180  -23.0870  -12.5770 C.2     1  UNL1        0.1050
     16  C         23.6370  -22.9850  -12.3460 C.2     1  UNL1        0.0650
     17  N         25.5060  -23.9210  -13.6810 N.pl3   1  UNL1       -0.1160
     18  O         26.1930  -24.9120  -13.3920 O.2     1  UNL1       -0.5320
     19  O         25.2020  -23.5900  -14.8360 O.2     1  UNL1       -0.5320
     20  S         16.3900  -23.4280   -7.8850 S.O2    1  UNL1        0.2630
     21  O         15.7960  -24.6570   -8.3640 O.2     1  UNL1       -0.2000
     22  O         15.5760  -22.3520   -7.3630 O.2     1  UNL1       -0.2000
     23  N         17.5400  -23.8690   -6.7300 N.pl3   1  UNL1       -0.2810
     24  H         18.2910  -24.4290   -7.1310 H       1  UNL1        0.1790
     25  C         17.8660  -22.9650   -5.6800 C.2     1  UNL1        0.0450
     26  C         17.5190  -23.3080   -4.3680 C.2     1  UNL1        0.0300
     27  C         17.8460  -22.4570   -3.3100 C.2     1  UNL1        0.0050
     28  C         18.5160  -21.2640   -3.5640 C.2     1  UNL1        0.0420
     29  C         18.8510  -20.9300   -4.8720 C.2     1  UNL1        0.1180
     30  F         19.4940  -19.7790   -5.1120 F       1  UNL1       -0.2060
     31  C         18.5320  -21.7690   -5.9340 C.2     1  UNL1        0.0720
@<TRIPOS>BOND
     1    19    17    2
     2    17    18    2
     3    17    15    1
     4    15    16    1
     5    15    14    2
     6    16    11    2
     7    14    13    1
     8    10     9    1
     9    11     9    1
    10    11    12    1
    11     2     3    1
    12     2     1    2
    13     3     4    2
    14     9     7   am
    15    13    12    2
    16     1     7    1
    17     1     6    1
    18     7     8    2
    19     4     5    1
    20     6     5    2
    21     5    20    1
    22    21    20    2
    23    20    22    2
    24    20    23    1
    25    24    23    1
    26    23    25    1
    27    31    25    2
    28    31    29    1
    29    25    26    1
    30    30    29    1
    31    29    28    2
    32    26    27    2
    33    28    27    1
