@<TRIPOS>MOLECULE
39922_out_ligand_01.pdbqt
 32 37 0 0 0
SMALL
GASTEIGER

@<TRIPOS>ATOM
      1  C         24.4380  -22.3800  -11.9670 C.2     1  UNL1        0.0350
      2  C         25.4280  -23.3470  -11.7620 C.2     1  UNL1        0.0290
      3  C         26.6620  -23.2480  -12.4060 C.2     1  UNL1        0.0030
      4  C         26.9170  -22.1790  -13.2650 C.2     1  UNL1        0.0150
      5  C         25.9400  -21.1990  -13.4870 C.2     1  UNL1        0.0120
      6  C         24.6980  -21.3160  -12.8350 C.2     1  UNL1        0.0440
      7  N         23.2190  -22.5610  -11.2810 N.am    1  UNL1       -0.3230
      8  C         22.7840  -21.9030  -10.1470 C.2     1  UNL1        0.2570
      9  O         23.4050  -21.1000   -9.4630 O.2     1  UNL1       -0.2670
     10  H         22.6100  -23.2880  -11.6370 H       1  UNL1        0.1690
     11  C         21.4280  -22.3050   -9.7000 C.2     1  UNL1        0.0430
     12  C         21.3460  -23.1410   -8.5630 C.2     1  UNL1        0.0180
     13  C         20.1100  -23.6120   -8.1020 C.2     1  UNL1        0.0090
     14  C         18.9640  -23.2340   -8.7820 C.2     1  UNL1       -0.0460
     15  C         19.0600  -22.4040   -9.8710 C.2     1  UNL1       -0.0120
     16  C         17.5350  -23.5920   -8.4890 C.2     1  UNL1        0.0440
     17  C         17.8110  -22.1410  -10.3750 C.2     1  UNL1       -0.0460
     18  C         20.2550  -21.8870  -10.3830 C.2     1  UNL1       -0.0090
     19  C         17.6770  -21.3010  -11.4670 C.2     1  UNL1        0.0080
     20  C         16.7430  -22.8480   -9.5940 C.2     1  UNL1        0.0440
     21  C         18.8300  -20.7310  -12.0210 C.2     1  UNL1        0.0010
     22  C         20.1040  -21.0110  -11.4900 C.2     1  UNL1        0.0130
     23  C         26.1760  -20.0690  -14.3920 C.ar    1  UNL1        0.1390
     24  N         26.0240  -20.0760  -15.7030 N.ar    1  UNL1       -0.2280
     25  C         26.3420  -18.8130  -16.1350 C.ar    1  UNL1        0.0860
     26  C         26.3510  -18.2820  -17.4320 C.2     1  UNL1        0.0340
     27  C         26.6920  -18.0000  -15.0650 C.ar    1  UNL1        0.0620
     28  C         26.7160  -16.9400  -17.6050 C.2     1  UNL1        0.0020
     29  C         27.0630  -16.1460  -16.5090 C.2     1  UNL1        0.0020
     30  C         27.0580  -16.6590  -15.2060 C.2     1  UNL1        0.0320
     31  N         26.5730  -18.8180  -13.9730 N.ar    1  UNL1       -0.3380
     32  H         26.7220  -18.5440  -13.0150 H       1  UNL1        0.1670
@<TRIPOS>BOND
     1    28    26    1
     2    28    29    2
     3    26    25    2
     4    29    30    1
     5    25    24   ar
     6    25    27   ar
     7    24    23   ar
     8    30    27    2
     9    27    31   ar
    10    23    31   ar
    11    23     5    1
    12    31    32    1
    13     5     4    2
    14     5     6    1
    15     4     3    1
    16     6     1    2
    17     3     2    2
    18    21    22    2
    19    21    19    1
    20     1     2    1
    21     1     7    1
    22    10     7    1
    23    22    18    1
    24    19    17    2
    25     7     8   am
    26    18    15    1
    27    18    11    2
    28    17    15    1
    29    17    20    1
    30     8    11    1
    31     8     9    2
    32    15    14    2
    33    11    12    1
    34    20    16    2
    35    14    16    1
    36    14    13    1
    37    12    13    2
