@<TRIPOS>MOLECULE
3992_out_ligand_01.pdbqt
 33 36 0 0 0
SMALL
GASTEIGER

@<TRIPOS>ATOM
      1  C         18.6880  -22.6520   -9.9500 C.2     1  UNL1        0.0800
      2  C         19.4640  -23.6430   -9.3460 C.2     1  UNL1        0.0270
      3  C         20.8280  -23.7330   -9.6420 C.2     1  UNL1        0.0310
      4  C         21.4180  -22.8570  -10.5560 C.2     1  UNL1        0.0340
      5  C         20.6170  -21.8910  -11.1840 C.2     1  UNL1        0.0310
      6  C         19.2550  -21.7870  -10.8870 C.2     1  UNL1        0.0270
      7  N         22.7800  -22.8820  -10.9010 N.am    1  UNL1       -0.3250
      8  C         23.7970  -22.0660  -10.4270 C.2     1  UNL1        0.2540
      9  O         23.6800  -21.1840   -9.5810 O.2     1  UNL1       -0.2700
     10  H         23.0560  -23.5280  -11.6340 H       1  UNL1        0.1690
     11  C         25.1720  -22.4320  -11.0170 C.3     1  UNL1        0.2450
     12  C         26.0750  -21.2060  -11.1130 C.3     1  UNL1        0.2180
     13  O         25.6370  -20.3040  -12.1370 O.2     1  UNL1       -0.3450
     14  C         25.3410  -20.9650  -13.2980 C.2     1  UNL1        0.1020
     15  C         25.2610  -20.1950  -14.4560 C.2     1  UNL1        0.0390
     16  C         25.1090  -22.3400  -13.3560 C.2     1  UNL1        0.1030
     17  C         24.9870  -20.8050  -15.6810 C.2     1  UNL1        0.0030
     18  C         24.7880  -22.1850  -15.7440 C.2     1  UNL1        0.0030
     19  C         24.8480  -22.9540  -14.5800 C.2     1  UNL1        0.0400
     20  O         25.1070  -23.1530  -12.2510 O.2     1  UNL1       -0.3310
     21  S         16.9550  -22.5300   -9.5680 S.O2    1  UNL1        0.2630
     22  O         16.3320  -21.7500  -10.6190 O.2     1  UNL1       -0.2000
     23  O         16.4750  -23.8570   -9.2450 O.2     1  UNL1       -0.2000
     24  N         16.9180  -21.5550   -8.1910 N.pl3   1  UNL1       -0.2800
     25  H         17.5730  -20.7790   -8.2500 H       1  UNL1        0.1790
     26  C         16.6740  -22.1360   -6.9130 C.2     1  UNL1        0.0480
     27  C         15.3850  -22.5720   -6.5950 C.2     1  UNL1        0.0310
     28  C         15.1280  -23.1950   -5.3720 C.2     1  UNL1        0.0090
     29  C         16.1590  -23.3790   -4.4480 C.2     1  UNL1       -0.0610
     30  C         15.9050  -24.0950   -3.1530 C.3     1  UNL1        0.0480
     31  C         17.4510  -22.9380   -4.7690 C.2     1  UNL1        0.0150
     32  C         17.7230  -22.3080   -5.9960 C.2     1  UNL1       -0.0340
     33  C         19.1250  -21.8480   -6.2840 C.3     1  UNL1        0.0500
@<TRIPOS>BOND
     1    18    17    2
     2    18    19    1
     3    17    15    1
     4    19    16    2
     5    15    14    2
     6    16    14    1
     7    16    20    1
     8    14    13    1
     9    20    11    1
    10    13    12    1
    11    10     7    1
    12     5     6    1
    13     5     4    2
    14    12    11    1
    15    11     8    1
    16     7     4    1
    17     7     8   am
    18     6     1    2
    19    22    21    2
    20     4     3    1
    21     8     9    2
    22     1    21    1
    23     1     2    1
    24     3     2    2
    25    21    23    2
    26    21    24    1
    27    25    24    1
    28    24    26    1
    29    26    27    2
    30    26    32    1
    31    27    28    1
    32    33    32    1
    33    32    31    2
    34    28    29    2
    35    31    29    1
    36    29    30    1
