@<TRIPOS>MOLECULE
39935_out_ligand_01.pdbqt
 32 34 0 0 0
SMALL
GASTEIGER

@<TRIPOS>ATOM
      1  C         17.3440  -22.6970   -9.2800 C.2     1  UNL1        0.0800
      2  C         16.8000  -21.8770  -10.2730 C.2     1  UNL1        0.0250
      3  C         17.6220  -21.3840  -11.2860 C.2     1  UNL1        0.0030
      4  C         18.9790  -21.7200  -11.3140 C.2     1  UNL1        0.0170
      5  C         19.5110  -22.5670  -10.3310 C.2     1  UNL1        0.0330
      6  C         18.6920  -23.0590   -9.3110 C.2     1  UNL1        0.0420
      7  C         20.9560  -22.9210  -10.3090 C.2     1  UNL1        0.2560
      8  O         21.3080  -23.8350   -9.5740 O.2     1  UNL1       -0.2670
      9  N         21.7480  -22.1790  -11.1650 N.am    1  UNL1       -0.3230
     10  H         21.2720  -21.5520  -11.8000 H       1  UNL1        0.1690
     11  C         23.1480  -22.2660  -11.3260 C.2     1  UNL1        0.0360
     12  C         23.9330  -21.4340  -10.5130 C.2     1  UNL1        0.0290
     13  C         25.3260  -21.4550  -10.6010 C.2     1  UNL1        0.0030
     14  C         25.9500  -22.3140  -11.5020 C.2     1  UNL1        0.0180
     15  C         25.1800  -23.1520  -12.3160 C.2     1  UNL1        0.0390
     16  C         23.7810  -23.1270  -12.2260 C.2     1  UNL1        0.0480
     17  C         25.8950  -24.0510  -13.2570 C.2     1  UNL1        0.1760
     18  O         27.0500  -23.9230  -13.6210 O.2     1  UNL1       -0.6460
     19  O         25.1340  -25.0690  -13.6950 O.3     1  UNL1       -0.7730
     20  H         24.2560  -24.9050  -13.2930 H       1  UNL1        0.1670
     21  S         16.3100  -23.3210   -7.9760 S.O2    1  UNL1        0.2630
     22  O         15.7250  -24.5580   -8.4490 O.2     1  UNL1       -0.2000
     23  O         15.4750  -22.2350   -7.5090 O.2     1  UNL1       -0.2000
     24  N         17.4150  -23.7470   -6.7750 N.pl3   1  UNL1       -0.2800
     25  H         18.1060  -24.4170   -7.1070 H       1  UNL1        0.1790
     26  C         17.8170  -22.7890   -5.7980 C.2     1  UNL1        0.0480
     27  C         18.7900  -21.8370   -6.1190 C.2     1  UNL1        0.0300
     28  C         19.2120  -20.9060   -5.1710 C.2     1  UNL1        0.0020
     29  C         18.6560  -20.9160   -3.8960 C.2     1  UNL1        0.0010
     30  C         17.6720  -21.8520   -3.5720 C.2     1  UNL1        0.0090
     31  C         17.2380  -22.7970   -4.5160 C.2     1  UNL1       -0.0350
     32  C         16.1610  -23.7710   -4.1260 C.3     1  UNL1        0.0500
@<TRIPOS>BOND
     1    19    20    1
     2    19    17    1
     3    18    17    2
     4    17    15    1
     5    15    16    1
     6    15    14    2
     7    16    11    2
     8    10     9    1
     9    14    13    1
    10    11     9    1
    11    11    12    1
    12     4     3    2
    13     4     5    1
    14     3     2    1
    15     9     7   am
    16    13    12    2
    17     5     7    1
    18     5     6    2
    19     7     8    2
    20     2     1    2
    21     6     1    1
    22     1    21    1
    23    22    21    2
    24    21    23    2
    25    21    24    1
    26    25    24    1
    27    24    26    1
    28    27    26    2
    29    27    28    1
    30    26    31    1
    31    28    29    2
    32    31    32    1
    33    31    30    2
    34    29    30    1
