@<TRIPOS>MOLECULE
39954_out_ligand_01.pdbqt
 35 37 0 0 0
SMALL
GASTEIGER

@<TRIPOS>ATOM
      1  C         18.5440  -22.2180  -10.3470 C.2     1  UNL1        0.0800
      2  C         18.2690  -21.1850  -11.2480 C.2     1  UNL1        0.0250
      3  C         19.2900  -20.6920  -12.0620 C.2     1  UNL1        0.0030
      4  C         20.5780  -21.2270  -11.9710 C.2     1  UNL1        0.0170
      5  C         20.8520  -22.2460  -11.0470 C.2     1  UNL1        0.0330
      6  C         19.8330  -22.7410  -10.2280 C.2     1  UNL1        0.0420
      7  S         17.2480  -22.8840   -9.3290 S.O2    1  UNL1        0.2630
      8  O         16.4930  -21.7640   -8.8110 O.2     1  UNL1       -0.2000
      9  O         16.6030  -23.9500  -10.0640 O.2     1  UNL1       -0.2000
     10  N         18.0870  -23.5410   -8.0200 N.pl3   1  UNL1       -0.2800
     11  H         18.1980  -24.5500   -8.1100 H       1  UNL1        0.1790
     12  C         17.9710  -22.9780   -6.7140 C.2     1  UNL1        0.0510
     13  C         16.8580  -23.2680   -5.9190 C.2     1  UNL1        0.0660
     14  C         16.7580  -22.7180   -4.6360 C.2     1  UNL1        0.1050
     15  C         17.7510  -21.8660   -4.1440 C.2     1  UNL1        0.0370
     16  C         18.8490  -21.5610   -4.9480 C.2     1  UNL1        0.0110
     17  C         18.9720  -22.1080   -6.2360 C.2     1  UNL1       -0.0350
     18  C         20.1720  -21.7330   -7.0660 C.3     1  UNL1        0.0500
     19  N         15.6020  -23.0420   -3.7950 N.pl3   1  UNL1       -0.1160
     20  O         14.7450  -22.1620   -3.6290 O.2     1  UNL1       -0.5320
     21  O         15.5460  -24.1800   -3.3080 O.2     1  UNL1       -0.5320
     22  C         22.1960  -22.8730  -10.9500 C.2     1  UNL1        0.2560
     23  O         22.3830  -23.6780  -10.0460 O.2     1  UNL1       -0.2670
     24  N         23.1100  -22.4430  -11.8920 N.am    1  UNL1       -0.3230
     25  H         22.8320  -21.6680  -12.4810 H       1  UNL1        0.1690
     26  C         24.4360  -22.8960  -12.0650 C.2     1  UNL1        0.0360
     27  C         25.3670  -22.5310  -11.0830 C.2     1  UNL1        0.0290
     28  C         26.7010  -22.9320  -11.1760 C.2     1  UNL1        0.0030
     29  C         27.1200  -23.7020  -12.2590 C.2     1  UNL1        0.0180
     30  C         26.2040  -24.0690  -13.2510 C.2     1  UNL1        0.0390
     31  C         24.8640  -23.6640  -13.1520 C.2     1  UNL1        0.0480
     32  C         26.6100  -24.8800  -14.4250 C.2     1  UNL1        0.1760
     33  O         27.0750  -26.0040  -14.4000 O.2     1  UNL1       -0.6460
     34  O         26.4130  -24.2390  -15.5930 O.3     1  UNL1       -0.7730
     35  H         26.2790  -23.3070  -15.3220 H       1  UNL1        0.1670
@<TRIPOS>BOND
     1    34    35    1
     2    34    32    1
     3    32    33    2
     4    32    30    1
     5    30    31    1
     6    30    29    2
     7    31    26    2
     8    25    24    1
     9    29    28    1
    10    26    24    1
    11    26    27    1
    12     3     4    2
    13     3     2    1
    14     4     5    1
    15    24    22   am
    16     2     1    2
    17    28    27    2
    18     5    22    1
    19     5     6    2
    20    22    23    2
    21     1     6    1
    22     1     7    1
    23     9     7    2
    24     7     8    2
    25     7    10    1
    26    11    10    1
    27    10    12    1
    28    18    17    1
    29    12    17    2
    30    12    13    1
    31    17    16    1
    32    13    14    2
    33    16    15    2
    34    14    15    1
    35    14    19    1
    36    19    20    2
    37    19    21    2
