@<TRIPOS>MOLECULE
39959_out_ligand_01.pdbqt
 32 34 0 0 0
SMALL
GASTEIGER

@<TRIPOS>ATOM
      1  C         15.9310  -22.1610   -9.6920 C.3     1  UNL1        0.0500
      2  C         17.3440  -22.0650  -10.1930 C.2     1  UNL1       -0.0390
      3  C         17.5760  -21.3250  -11.3690 C.2     1  UNL1        0.0090
      4  C         18.8610  -21.1850  -11.9020 C.2     1  UNL1        0.0170
      5  C         19.9490  -21.7740  -11.2540 C.2     1  UNL1        0.0330
      6  C         19.7400  -22.5180  -10.0910 C.2     1  UNL1        0.0420
      7  C         18.4450  -22.6780   -9.5680 C.2     1  UNL1        0.0860
      8  C         21.3300  -21.6860  -11.7970 C.2     1  UNL1        0.2560
      9  O         21.4810  -21.1330  -12.8800 O.2     1  UNL1       -0.2670
     10  N         22.3050  -22.2760  -11.0140 N.am    1  UNL1       -0.3230
     11  H         21.9860  -22.7960  -10.2050 H       1  UNL1        0.1690
     12  C         23.6930  -22.3140  -11.2640 C.2     1  UNL1        0.0370
     13  C         24.6140  -21.4330  -10.6880 C.2     1  UNL1        0.0290
     14  C         25.9800  -21.5320  -10.9790 C.2     1  UNL1        0.0050
     15  C         26.4440  -22.5170  -11.8470 C.2     1  UNL1        0.0360
     16  C         25.5280  -23.4030  -12.4230 C.2     1  UNL1        0.1050
     17  C         24.1580  -23.3060  -12.1350 C.2     1  UNL1        0.0650
     18  N         26.0030  -24.4480  -13.3360 N.pl3   1  UNL1       -0.1160
     19  O         27.1210  -24.9380  -13.1230 O.2     1  UNL1       -0.5320
     20  O         25.2560  -24.7810  -14.2670 O.2     1  UNL1       -0.5320
     21  S         18.3260  -23.6970   -8.1000 S.O2    1  UNL1        0.2630
     22  O         17.0440  -24.3690   -8.1650 O.2     1  UNL1       -0.2000
     23  O         19.5470  -24.4460   -7.9110 O.2     1  UNL1       -0.2000
     24  N         18.1970  -22.5540   -6.8600 N.pl3   1  UNL1       -0.2810
     25  H         19.1090  -22.2350   -6.5340 H       1  UNL1        0.1790
     26  C         17.1420  -22.6590   -5.9110 C.2     1  UNL1        0.0450
     27  C         17.3480  -23.4290   -4.7620 C.2     1  UNL1        0.0300
     28  C         16.3250  -23.5750   -3.8220 C.2     1  UNL1        0.0050
     29  C         15.0990  -22.9450   -4.0290 C.2     1  UNL1        0.0420
     30  C         14.9090  -22.1750   -5.1720 C.2     1  UNL1        0.1180
     31  F         13.7300  -21.5700   -5.3660 F       1  UNL1       -0.2060
     32  C         15.9200  -22.0240   -6.1150 C.2     1  UNL1        0.0720
@<TRIPOS>BOND
     1    20    18    2
     2    18    19    2
     3    18    16    1
     4     9     8    2
     5    16    17    1
     6    16    15    2
     7    17    12    2
     8     4     3    1
     9     4     5    2
    10    15    14    1
    11     8     5    1
    12     8    10   am
    13     3     2    2
    14    12    10    1
    15    12    13    1
    16     5     6    1
    17    10    11    1
    18    14    13    2
    19     2     1    1
    20     2     7    1
    21     6     7    2
    22     7    21    1
    23    22    21    2
    24    21    23    2
    25    21    24    1
    26    24    25    1
    27    24    26    1
    28    32    26    2
    29    32    30    1
    30    26    27    1
    31    31    30    1
    32    30    29    2
    33    27    28    2
    34    29    28    1
