@<TRIPOS>MOLECULE
39952_out_ligand_01.pdbqt
 28 30 0 0 0
SMALL
GASTEIGER

@<TRIPOS>ATOM
      1  C         19.3900  -22.4720  -10.2620 C.2     1  UNL1        0.0330
      2  C         18.7460  -21.6770  -11.2220 C.2     1  UNL1        0.0170
      3  C         17.3770  -21.4260  -11.1170 C.2     1  UNL1        0.0030
      4  C         16.6440  -21.9750  -10.0640 C.2     1  UNL1        0.0250
      5  C         17.2860  -22.7910   -9.1260 C.2     1  UNL1        0.0800
      6  C         18.6600  -23.0310   -9.2090 C.2     1  UNL1        0.0420
      7  S         16.3500  -23.4840   -7.7790 S.O2    1  UNL1        0.2630
      8  O         15.5050  -22.4420   -7.2430 O.2     1  UNL1       -0.2000
      9  O         15.7930  -24.7370   -8.2440 O.2     1  UNL1       -0.2000
     10  N         17.5420  -23.8940   -6.6550 N.pl3   1  UNL1       -0.2810
     11  H         18.3020  -24.4260   -7.0740 H       1  UNL1        0.1790
     12  C         17.8540  -22.9930   -5.6000 C.2     1  UNL1        0.0450
     13  C         17.5450  -23.3550   -4.2860 C.2     1  UNL1        0.0300
     14  C         17.8800  -22.5060   -3.2290 C.2     1  UNL1        0.0050
     15  C         18.5170  -21.2950   -3.4890 C.2     1  UNL1        0.0420
     16  C         18.8120  -20.9420   -4.8020 C.2     1  UNL1        0.1180
     17  F         19.4150  -19.7710   -5.0480 F       1  UNL1       -0.2060
     18  C         18.4880  -21.7800   -5.8610 C.2     1  UNL1        0.0720
     19  C         20.8430  -22.7760  -10.3610 C.2     1  UNL1        0.2560
     20  O         21.2470  -23.8050   -9.8350 O.2     1  UNL1       -0.2670
     21  N         21.5850  -21.8230  -11.0340 N.am    1  UNL1       -0.3230
     22  H         21.1080  -20.9740  -11.3020 H       1  UNL1        0.1690
     23  C         22.9670  -21.8590  -11.3140 C.2     1  UNL1        0.0350
     24  C         23.9620  -21.6000  -10.3700 C.2     1  UNL1        0.0290
     25  C         25.3130  -21.6630  -10.7290 C.2     1  UNL1        0.0020
     26  C         25.6790  -21.9880  -12.0320 C.2     1  UNL1        0.0000
     27  C         24.6950  -22.2520  -12.9810 C.2     1  UNL1        0.0020
     28  C         23.3460  -22.1890  -12.6230 C.2     1  UNL1        0.0290
@<TRIPOS>BOND
     1    27    28    1
     2    27    26    2
     3    28    23    2
     4    26    25    1
     5    23    21    1
     6    23    24    1
     7    22    21    1
     8     2     3    1
     9     2     1    2
    10     3     4    2
    11    21    19   am
    12    25    24    2
    13    19     1    1
    14    19    20    2
    15     1     6    1
    16     4     5    1
    17     6     5    2
    18     5     7    1
    19     9     7    2
    20     7     8    2
    21     7    10    1
    22    11    10    1
    23    10    12    1
    24    18    12    2
    25    18    16    1
    26    12    13    1
    27    17    16    1
    28    16    15    2
    29    13    14    2
    30    15    14    1
