@<TRIPOS>MOLECULE
39961_out_ligand_01.pdbqt
 31 33 0 0 0
SMALL
GASTEIGER

@<TRIPOS>ATOM
      1  C         19.9390  -22.2330  -10.7390 C.2     1  UNL1        0.0330
      2  C         19.3590  -21.4460  -11.7450 C.2     1  UNL1        0.0170
      3  C         17.9920  -21.1570  -11.7110 C.2     1  UNL1        0.0030
      4  C         17.1930  -21.6670  -10.6880 C.2     1  UNL1        0.0250
      5  C         17.7670  -22.4780   -9.7050 C.2     1  UNL1        0.0800
      6  C         19.1380  -22.7520   -9.7150 C.2     1  UNL1        0.0420
      7  C         21.3920  -22.5730  -10.7390 C.2     1  UNL1        0.2560
      8  O         21.7610  -23.5220  -10.0580 O.2     1  UNL1       -0.2670
      9  N         22.1900  -21.7400  -11.5010 N.am    1  UNL1       -0.3210
     10  H         21.7330  -20.9290  -11.9170 H       1  UNL1        0.1690
     11  C         23.5890  -21.8290  -11.7360 C.2     1  UNL1        0.0680
     12  C         24.4910  -22.0800  -10.6920 C.2     1  UNL1        0.0320
     13  C         25.8700  -22.1710  -10.9220 C.2     1  UNL1        0.0020
     14  C         26.3820  -22.0150  -12.2040 C.2     1  UNL1        0.0030
     15  C         25.5150  -21.7680  -13.2660 C.2     1  UNL1        0.0380
     16  C         24.1280  -21.6760  -13.0370 C.2     1  UNL1        0.1290
     17  N         23.2710  -21.4130  -14.2040 N.pl3   1  UNL1       -0.1130
     18  O         23.5370  -21.9930  -15.2700 O.2     1  UNL1       -0.5320
     19  O         22.3270  -20.6210  -14.0640 O.2     1  UNL1       -0.5320
     20  S         16.7500  -23.1330   -8.4000 S.O2    1  UNL1        0.2630
     21  O         16.1190  -24.3350   -8.9070 O.2     1  UNL1       -0.2000
     22  O         15.9630  -22.0480   -7.8570 O.2     1  UNL1       -0.2000
     23  N         17.8800  -23.6470   -7.2560 N.pl3   1  UNL1       -0.2810
     24  H         18.6720  -24.1220   -7.6870 H       1  UNL1        0.1790
     25  C         18.1160  -22.8620   -6.0920 C.2     1  UNL1        0.0450
     26  C         17.6160  -23.2520   -4.8470 C.2     1  UNL1        0.0300
     27  C         17.8210  -22.4460   -3.7260 C.2     1  UNL1        0.0050
     28  C         18.5320  -21.2540   -3.8480 C.2     1  UNL1        0.0420
     29  C         19.0340  -20.8820   -5.0900 C.2     1  UNL1        0.1180
     30  F         19.7180  -19.7370   -5.2080 F       1  UNL1       -0.2060
     31  C         18.8350  -21.6760   -6.2140 C.2     1  UNL1        0.0720
@<TRIPOS>BOND
     1    18    17    2
     2    17    19    2
     3    17    16    1
     4    15    16    1
     5    15    14    2
     6    16    11    2
     7    14    13    1
     8    10     9    1
     9     2     3    1
    10     2     1    2
    11    11     9    1
    12    11    12    1
    13     3     4    2
    14     9     7   am
    15    13    12    2
    16     7     1    1
    17     7     8    2
    18     1     6    1
    19     4     5    1
    20     6     5    2
    21     5    20    1
    22    21    20    2
    23    20    22    2
    24    20    23    1
    25    24    23    1
    26    23    25    1
    27    31    25    2
    28    31    29    1
    29    25    26    1
    30    30    29    1
    31    29    28    2
    32    26    27    2
    33    28    27    1
