@<TRIPOS>MOLECULE
39979_out_ligand_01.pdbqt
 30 32 0 0 0
SMALL
GASTEIGER

@<TRIPOS>ATOM
      1  C         19.0210  -22.5210  -10.0640 C.2     1  UNL1        0.0550
      2  C         18.3860  -23.1930   -9.0050 C.2     1  UNL1        0.0440
      3  C         17.0190  -23.0120   -8.7810 C.2     1  UNL1        0.0810
      4  C         16.2700  -22.1600   -9.5940 C.2     1  UNL1        0.0270
      5  C         16.8970  -21.4970  -10.6500 C.2     1  UNL1        0.0260
      6  C         18.2660  -21.6770  -10.8940 C.2     1  UNL1        0.0490
      7 CL         18.9270  -20.8490  -12.2580 Cl      1  UNL1       -0.0830
      8  S         16.2420  -23.8640   -7.4300 S.O2    1  UNL1        0.2630
      9  O         15.4030  -22.8990   -6.7550 O.2     1  UNL1       -0.2000
     10  O         15.7020  -25.1130   -7.9210 O.2     1  UNL1       -0.2000
     11  N         17.5410  -24.1790   -6.3980 N.pl3   1  UNL1       -0.2810
     12  H         18.3030  -24.6380   -6.8970 H       1  UNL1        0.1790
     13  C         17.8850  -23.1900   -5.4360 C.2     1  UNL1        0.0450
     14  C         17.5050  -23.3680   -4.1050 C.2     1  UNL1        0.0300
     15  C         17.8070  -22.3900   -3.1550 C.2     1  UNL1        0.0050
     16  C         18.4830  -21.2330   -3.5440 C.2     1  UNL1        0.0420
     17  C         18.8470  -21.0670   -4.8750 C.2     1  UNL1        0.1180
     18  F         19.4920  -19.9520   -5.2450 F       1  UNL1       -0.2060
     19  C         18.5530  -22.0340   -5.8300 C.2     1  UNL1        0.0720
     20  C         20.4750  -22.8000  -10.2370 C.2     1  UNL1        0.2570
     21  O         20.9090  -23.8320   -9.7370 O.2     1  UNL1       -0.2670
     22  N         21.2000  -21.8370  -10.9080 N.am    1  UNL1       -0.3230
     23  H         20.6820  -21.0490  -11.2800 H       1  UNL1        0.1690
     24  C         22.5840  -21.8380  -11.1840 C.2     1  UNL1        0.0350
     25  C         22.9660  -21.9760  -12.5260 C.2     1  UNL1        0.0310
     26  C         24.3170  -21.9860  -12.8860 C.2     1  UNL1        0.0210
     27  C         25.2930  -21.8560  -11.9030 C.2     1  UNL1        0.0110
     28 BR         27.1210  -21.8690  -12.3840 Br      1  UNL1       -0.0510
     29  C         24.9290  -21.7180  -10.5670 C.2     1  UNL1        0.0210
     30  C         23.5750  -21.7080  -10.2100 C.2     1  UNL1        0.0310
@<TRIPOS>BOND
     1    26    25    1
     2    26    27    2
     3    25    24    2
     4    28    27    1
     5     7     6    1
     6    27    29    1
     7    23    22    1
     8    24    22    1
     9    24    30    1
    10    22    20   am
    11     6     5    1
    12     6     1    2
    13     5     4    2
    14    29    30    2
    15    20     1    1
    16    20    21    2
    17     1     2    1
    18     4     3    1
    19     2     3    2
    20     3     8    1
    21    10     8    2
    22     8     9    2
    23     8    11    1
    24    12    11    1
    25    11    13    1
    26    19    13    2
    27    19    17    1
    28    13    14    1
    29    18    17    1
    30    17    16    2
    31    14    15    2
    32    16    15    1
