@<TRIPOS>MOLECULE
39975_out_ligand_01.pdbqt
 33 35 0 0 0
SMALL
GASTEIGER

@<TRIPOS>ATOM
      1  C         17.0750  -23.3980   -8.6630 C.2     1  UNL1        0.0810
      2  C         16.2740  -22.5220   -9.3950 C.2     1  UNL1        0.0270
      3  C         16.8560  -21.7300  -10.3880 C.2     1  UNL1        0.0260
      4  C         18.2300  -21.8110  -10.6520 C.2     1  UNL1        0.0490
      5 CL         18.8530  -20.7420  -11.8590 Cl      1  UNL1       -0.0830
      6  C         19.0300  -22.7100   -9.9310 C.2     1  UNL1        0.0550
      7  C         18.4420  -23.5100   -8.9370 C.2     1  UNL1        0.0440
      8  S         16.3500  -24.4070   -7.3920 S.O2    1  UNL1        0.2630
      9  O         15.2260  -25.1010   -7.9870 O.2     1  UNL1       -0.2000
     10  O         17.4060  -25.1360   -6.7250 O.2     1  UNL1       -0.2000
     11  N         15.6850  -23.2600   -6.3390 N.pl3   1  UNL1       -0.2810
     12  H         14.7900  -23.5900   -5.9750 H       1  UNL1        0.1790
     13  C         16.5620  -22.6170   -5.4220 C.2     1  UNL1        0.0430
     14  C         16.3880  -22.7960   -4.0490 C.2     1  UNL1        0.0300
     15  C         17.2910  -22.2200   -3.1540 C.2     1  UNL1        0.0030
     16  C         18.3740  -21.4810   -3.6340 C.2     1  UNL1        0.0180
     17  C         18.5540  -21.3110   -5.0130 C.2     1  UNL1        0.0390
     18  C         17.6370  -21.8750   -5.9070 C.2     1  UNL1        0.0480
     19  C         19.7340  -20.5500   -5.4820 C.2     1  UNL1        0.1760
     20  O         20.6180  -20.9780   -6.2010 O.2     1  UNL1       -0.6460
     21  O         19.7440  -19.2810   -5.0340 O.3     1  UNL1       -0.7730
     22  H         20.5430  -18.8960   -5.4520 H       1  UNL1        0.1670
     23  C         20.5020  -22.8540  -10.1020 C.2     1  UNL1        0.2570
     24  O         21.0310  -23.8430   -9.6060 O.2     1  UNL1       -0.2670
     25  N         21.1210  -21.8710  -10.8480 N.am    1  UNL1       -0.3230
     26  H         20.5420  -21.1040  -11.1670 H       1  UNL1        0.1690
     27  C         22.4880  -21.7810  -11.1850 C.2     1  UNL1        0.0350
     28  C         22.8110  -21.7990  -12.5480 C.2     1  UNL1        0.0310
     29  C         24.1420  -21.7140  -12.9700 C.2     1  UNL1        0.0210
     30  C         25.1580  -21.6090  -12.0240 C.2     1  UNL1        0.0110
     31 BR         26.9580  -21.4940  -12.5880 Br      1  UNL1       -0.0510
     32  C         24.8530  -21.5910  -10.6660 C.2     1  UNL1        0.0210
     33  C         23.5190  -21.6760  -10.2500 C.2     1  UNL1        0.0310
@<TRIPOS>BOND
     1    29    28    1
     2    29    30    2
     3    31    30    1
     4    28    27    2
     5    30    32    1
     6     5     4    1
     7    27    25    1
     8    27    33    1
     9    26    25    1
    10    25    23   am
    11    32    33    2
    12     4     3    2
    13     4     6    1
    14     3     2    1
    15    23     6    1
    16    23    24    2
    17     6     7    2
    18     2     1    2
    19     7     1    1
    20     1     8    1
    21     9     8    2
    22     8    10    2
    23     8    11    1
    24    11    12    1
    25    11    13    1
    26    20    19    2
    27    18    13    2
    28    18    17    1
    29    19    21    1
    30    19    17    1
    31    22    21    1
    32    13    14    1
    33    17    16    2
    34    14    15    2
    35    16    15    1
