@<TRIPOS>MOLECULE
39989_out_ligand_01.pdbqt
 33 35 0 0 0
SMALL
GASTEIGER

@<TRIPOS>ATOM
      1  C         19.9160  -21.8930  -11.3460 C.2     1  UNL1        0.0330
      2  C         18.7990  -21.3100  -11.9520 C.2     1  UNL1        0.0180
      3  C         17.5340  -21.4610  -11.3780 C.2     1  UNL1        0.0210
      4  C         17.3630  -22.1850  -10.1900 C.2     1  UNL1        0.0330
      5 BR         15.5840  -22.3090   -9.5440 Br      1  UNL1       -0.0490
      6  C         18.4810  -22.7590   -9.5740 C.2     1  UNL1        0.0930
      7  C         19.7540  -22.6040  -10.1490 C.2     1  UNL1        0.0430
      8  C         21.2930  -21.7570  -11.9120 C.2     1  UNL1        0.2560
      9  O         21.4570  -20.9680  -12.8340 O.2     1  UNL1       -0.2670
     10  N         22.2620  -22.5250  -11.3000 N.am    1  UNL1       -0.3220
     11  H         21.9860  -23.0490  -10.4690 H       1  UNL1        0.1690
     12  C         23.6390  -22.6350  -11.6280 C.2     1  UNL1        0.0510
     13  C         24.1230  -22.3530  -12.9120 C.2     1  UNL1        0.0300
     14  C         25.4840  -22.4680  -13.2110 C.2     1  UNL1        0.0020
     15  C         26.3870  -22.8700  -12.2320 C.2     1  UNL1        0.0010
     16  C         25.9280  -23.1620  -10.9490 C.2     1  UNL1        0.0200
     17  C         24.5620  -23.0490  -10.6370 C.2     1  UNL1        0.0640
     18  C         24.0930  -23.3750   -9.2610 C.2     1  UNL1        0.1780
     19  O         23.1900  -22.8060   -8.6680 O.2     1  UNL1       -0.6460
     20  O         24.7700  -24.3860   -8.6890 O.3     1  UNL1       -0.7730
     21  H         24.0900  -24.9050   -8.2090 H       1  UNL1        0.1670
     22  S         18.3650  -23.6750   -8.0560 S.O2    1  UNL1        0.2470
     23  O         17.0390  -24.2540   -7.9900 O.2     1  UNL1       -0.2050
     24  O         19.5510  -24.4920   -7.9370 O.2     1  UNL1       -0.2050
     25  N         18.3640  -22.4220   -6.8920 N.pl3   1  UNL1       -0.1810
     26  H         18.1150  -21.5610   -7.3820 H       1  UNL1        0.1460
     27  C         17.4650  -22.6550   -5.7960 C.2     1  UNL1        0.0250
     28  C         17.8350  -23.5310   -4.7730 C.2     1  UNL1        0.0240
     29  C         16.9540  -23.7950   -3.7220 C.2     1  UNL1        0.0050
     30  C         15.6980  -23.1890   -3.7030 C.2     1  UNL1        0.0420
     31  C         15.3350  -22.3330   -4.7370 C.2     1  UNL1        0.1180
     32  F         14.1250  -21.7590   -4.7200 F       1  UNL1       -0.2060
     33  C         16.2020  -22.0640   -5.7890 C.2     1  UNL1        0.0660
@<TRIPOS>BOND
     1    14    13    1
     2    14    15    2
     3    13    12    2
     4     9     8    2
     5    15    16    1
     6     2     3    1
     7     2     1    2
     8     8     1    1
     9     8    10   am
    10    12    10    1
    11    12    17    1
    12     3     4    2
    13     1     7    1
    14    10    11    1
    15    16    17    2
    16    17    18    1
    17     4     6    1
    18     4     5    1
    19     7     6    2
    20     6    22    1
    21    18    20    1
    22    18    19    2
    23    20    21    1
    24    22    23    2
    25    22    24    2
    26    22    25    1
    27    26    25    1
    28    25    27    1
    29    27    33    2
    30    27    28    1
    31    33    31    1
    32    28    29    2
    33    31    32    1
    34    31    30    2
    35    29    30    1
