@<TRIPOS>MOLECULE
39981_out_ligand_01.pdbqt
 29 31 0 0 0
SMALL
GASTEIGER

@<TRIPOS>ATOM
      1  C         19.3360  -22.6050  -10.0820 C.2     1  UNL1        0.0550
      2  C         18.5950  -23.2210   -9.0570 C.2     1  UNL1        0.0440
      3  C         17.2390  -22.9230   -8.8890 C.2     1  UNL1        0.0810
      4  C         16.5930  -22.0430   -9.7570 C.2     1  UNL1        0.0270
      5  C         17.3170  -21.4460  -10.7890 C.2     1  UNL1        0.0260
      6  C         18.6820  -21.7220  -10.9570 C.2     1  UNL1        0.0490
      7 CL         19.4590  -20.9480  -12.2940 Cl      1  UNL1       -0.0830
      8  S         16.3150  -23.7120   -7.5910 S.O2    1  UNL1        0.2630
      9  O         15.6940  -24.9050   -8.1190 O.2     1  UNL1       -0.2000
     10  O         15.5310  -22.6840   -6.9390 O.2     1  UNL1       -0.2000
     11  N         17.5280  -24.1380   -6.4880 N.pl3   1  UNL1       -0.2810
     12  H         18.3010  -24.5900   -6.9780 H       1  UNL1        0.1790
     13  C         17.8670  -23.1920   -5.4800 C.2     1  UNL1        0.0450
     14  C         17.5270  -23.4580   -4.1510 C.2     1  UNL1        0.0300
     15  C         17.8180  -22.5220   -3.1560 C.2     1  UNL1        0.0050
     16  C         18.4460  -21.3250   -3.4940 C.2     1  UNL1        0.0420
     17  C         18.7760  -21.0730   -4.8220 C.2     1  UNL1        0.1180
     18  F         19.3800  -19.9210   -5.1420 F       1  UNL1       -0.2060
     19  C         18.4910  -21.9950   -5.8220 C.2     1  UNL1        0.0720
     20  C         20.7860  -22.9660  -10.1490 C.2     1  UNL1        0.2570
     21  O         21.1530  -23.9430   -9.5080 O.2     1  UNL1       -0.2670
     22  N         21.5920  -22.1210  -10.8860 N.am    1  UNL1       -0.3230
     23  H         21.1340  -21.3750  -11.3940 H       1  UNL1        0.1690
     24  C         22.9890  -22.2020  -11.0670 C.2     1  UNL1        0.0350
     25  C         23.9220  -21.5150  -10.2880 C.2     1  UNL1        0.0290
     26  C         25.2920  -21.6490  -10.5400 C.2     1  UNL1        0.0020
     27  C         25.7400  -22.4710  -11.5720 C.2     1  UNL1        0.0000
     28  C         24.8180  -23.1600  -12.3540 C.2     1  UNL1        0.0020
     29  C         23.4500  -23.0260  -12.1030 C.2     1  UNL1        0.0290
@<TRIPOS>BOND
     1    28    29    1
     2    28    27    2
     3     7     6    1
     4    29    24    2
     5    27    26    1
     6    23    22    1
     7    24    22    1
     8    24    25    1
     9     6     5    1
    10     6     1    2
    11    22    20   am
    12     5     4    2
    13    26    25    2
    14    20     1    1
    15    20    21    2
    16     1     2    1
    17     4     3    1
    18     2     3    2
    19     3     8    1
    20     9     8    2
    21     8    10    2
    22     8    11    1
    23    12    11    1
    24    11    13    1
    25    19    13    2
    26    19    17    1
    27    13    14    1
    28    18    17    1
    29    17    16    2
    30    14    15    2
    31    16    15    1
