@<TRIPOS>MOLECULE
39997_out_ligand_01.pdbqt
 29 31 0 0 0
SMALL
GASTEIGER

@<TRIPOS>ATOM
      1  C         19.0240  -22.5240  -10.2480 C.2     1  UNL1        0.0330
      2  C         18.3190  -21.7100  -11.1470 C.2     1  UNL1        0.0170
      3  C         16.9600  -21.4600  -10.9470 C.2     1  UNL1        0.0030
      4  C         16.2970  -22.0340   -9.8620 C.2     1  UNL1        0.0250
      5  C         16.9980  -22.8690   -8.9840 C.2     1  UNL1        0.0800
      6  C         18.3640  -23.1070   -9.1630 C.2     1  UNL1        0.0420
      7  S         16.1520  -23.5930   -7.5950 S.O2    1  UNL1        0.2630
      8  O         15.6050  -24.8590   -8.0380 O.2     1  UNL1       -0.2000
      9  O         15.3060  -22.5760   -7.0110 O.2     1  UNL1       -0.2000
     10  N         17.4090  -23.9750   -6.5360 N.pl3   1  UNL1       -0.2810
     11  H         18.1490  -24.5060   -6.9900 H       1  UNL1        0.1790
     12  C         17.7710  -23.0560   -5.5130 C.2     1  UNL1        0.0450
     13  C         17.4950  -23.3810   -4.1820 C.2     1  UNL1        0.0300
     14  C         17.8800  -22.5140   -3.1560 C.2     1  UNL1        0.0050
     15  C         18.5340  -21.3230   -3.4650 C.2     1  UNL1        0.0420
     16  C         18.7960  -21.0080   -4.7930 C.2     1  UNL1        0.1180
     17  F         19.4160  -19.8570   -5.0860 F       1  UNL1       -0.2060
     18  C         18.4220  -21.8640   -5.8230 C.2     1  UNL1        0.0720
     19  C         20.4670  -22.8240  -10.4500 C.2     1  UNL1        0.2560
     20  N         21.1910  -21.7930  -11.0200 N.am    1  UNL1       -0.3220
     21  H         20.7030  -20.9180  -11.1380 H       1  UNL1        0.1690
     22  O         20.8760  -23.9170  -10.0820 O.2     1  UNL1       -0.2670
     23  C         22.5610  -21.7900  -11.3750 C.2     1  UNL1        0.0410
     24  C         22.9900  -21.8730  -12.7050 C.2     1  UNL1        0.0300
     25  C         24.3500  -21.8610  -13.0260 C.2     1  UNL1        0.0020
     26  C         25.3020  -21.7620  -12.0200 C.2     1  UNL1        0.0010
     27  C         24.8960  -21.6740  -10.6920 C.2     1  UNL1        0.0090
     28  C         23.5300  -21.6860  -10.3520 C.2     1  UNL1       -0.0350
     29  C         23.1600  -21.5900   -8.8960 C.3     1  UNL1        0.0500
@<TRIPOS>BOND
     1    25    24    1
     2    25    26    2
     3    24    23    2
     4    26    27    1
     5    23    20    1
     6    23    28    1
     7     2     3    1
     8     2     1    2
     9    21    20    1
    10    20    19   am
    11     3     4    2
    12    27    28    2
    13    19     1    1
    14    19    22    2
    15    28    29    1
    16     1     6    1
    17     4     5    1
    18     6     5    2
    19     5     7    1
    20     8     7    2
    21     7     9    2
    22     7    10    1
    23    11    10    1
    24    10    12    1
    25    18    12    2
    26    18    16    1
    27    12    13    1
    28    17    16    1
    29    16    15    2
    30    13    14    2
    31    15    14    1
