@<TRIPOS>MOLECULE
39994_out_ligand_01.pdbqt
 32 34 0 0 0
SMALL
GASTEIGER

@<TRIPOS>ATOM
      1  C         19.3120  -22.7720   -9.0930 C.2     1  UNL1        0.0550
      2  C         20.7060  -22.9020   -9.0070 C.2     1  UNL1        0.0440
      3  C         21.5150  -22.4050  -10.0340 C.2     1  UNL1        0.0810
      4  C         20.9480  -21.8080  -11.1610 C.2     1  UNL1        0.0270
      5  C         19.5590  -21.6700  -11.2400 C.2     1  UNL1        0.0260
      6  C         18.7390  -22.1390  -10.2060 C.2     1  UNL1        0.0490
      7 CL         17.0410  -21.8620  -10.3580 Cl      1  UNL1       -0.0830
      8  C         18.5250  -23.2990   -7.9490 C.2     1  UNL1        0.2580
      9  O         18.6230  -24.4940   -7.7000 O.2     1  UNL1       -0.2670
     10  N         17.7100  -22.3780   -7.3240 N.am    1  UNL1       -0.3210
     11  H         17.7280  -21.4300   -7.7040 H       1  UNL1        0.1690
     12  C         16.8300  -22.5750   -6.2260 C.2     1  UNL1        0.0680
     13  C         15.6090  -23.2450   -6.3790 C.2     1  UNL1        0.0320
     14  C         14.7410  -23.4410   -5.2970 C.2     1  UNL1        0.0020
     15  C         15.0750  -22.9710   -4.0320 C.2     1  UNL1        0.0030
     16  C         16.2810  -22.3040   -3.8430 C.2     1  UNL1        0.0380
     17  C         17.1560  -22.1060   -4.9300 C.2     1  UNL1        0.1290
     18  N         18.4160  -21.3980   -4.6560 N.pl3   1  UNL1       -0.1130
     19  O         18.8590  -21.4300   -3.4990 O.2     1  UNL1       -0.5320
     20  O         18.9720  -20.8070   -5.5950 O.2     1  UNL1       -0.5320
     21  S         23.2840  -22.5820   -9.9250 S.O2    1  UNL1        0.2630
     22  O         23.5540  -23.5540   -8.8880 O.2     1  UNL1       -0.2000
     23  O         23.8600  -21.2560   -9.8780 O.2     1  UNL1       -0.2000
     24  N         23.6820  -23.3290  -11.3830 N.pl3   1  UNL1       -0.2810
     25  H         22.9260  -23.9100  -11.7420 H       1  UNL1        0.1790
     26  C         24.5270  -22.6660  -12.3160 C.2     1  UNL1        0.0450
     27  C         25.9180  -22.7390  -12.2110 C.2     1  UNL1        0.0300
     28  C         26.7280  -22.0430  -13.1110 C.2     1  UNL1        0.0050
     29  C         26.1460  -21.2790  -14.1210 C.2     1  UNL1        0.0420
     30  C         24.7610  -21.2240  -14.2230 C.2     1  UNL1        0.1180
     31  F         24.2010  -20.4930  -15.1950 F       1  UNL1       -0.2060
     32  C         23.9450  -21.9120  -13.3330 C.2     1  UNL1        0.0720
@<TRIPOS>BOND
     1    31    30    1
     2    30    29    2
     3    30    32    1
     4    29    28    1
     5    32    26    2
     6    28    27    2
     7    26    27    1
     8    26    24    1
     9    25    24    1
    10    24    21    1
    11     5     4    2
    12     5     6    1
    13     4     3    1
    14     7     6    1
    15     6     1    2
    16     3    21    1
    17     3     2    2
    18    21    23    2
    19    21    22    2
    20     1     2    1
    21     1     8    1
    22     8     9    2
    23     8    10   am
    24    11    10    1
    25    10    12    1
    26    13    12    2
    27    13    14    1
    28    12    17    1
    29    20    18    2
    30    14    15    2
    31    17    18    1
    32    17    16    2
    33    18    19    2
    34    15    16    1
