@<TRIPOS>MOLECULE
39996_out_ligand_01.pdbqt
 32 34 0 0 0
SMALL
GASTEIGER

@<TRIPOS>ATOM
      1  C         18.5060  -22.2060  -10.3610 C.2     1  UNL1        0.0860
      2  C         19.7680  -22.8210  -10.2750 C.2     1  UNL1        0.0420
      3  C         20.8500  -22.3230  -11.0040 C.2     1  UNL1        0.0330
      4  C         20.6750  -21.2090  -11.8280 C.2     1  UNL1        0.0170
      5  C         19.4120  -20.6190  -11.9410 C.2     1  UNL1        0.0090
      6  C         18.3070  -21.1080  -11.2200 C.2     1  UNL1       -0.0390
      7  C         16.9850  -20.4190  -11.4100 C.3     1  UNL1        0.0500
      8  S         17.2320  -22.9040   -9.3150 S.O2    1  UNL1        0.2630
      9  O         16.7010  -24.0540  -10.0160 O.2     1  UNL1       -0.2000
     10  O         16.3560  -21.8620   -8.8290 O.2     1  UNL1       -0.2000
     11  N         18.1030  -23.5170   -8.0040 N.pl3   1  UNL1       -0.2800
     12  H         18.9900  -23.9240   -8.2960 H       1  UNL1        0.1790
     13  C         17.9950  -22.9530   -6.6960 C.2     1  UNL1        0.0510
     14  C         16.9320  -23.2970   -5.8560 C.2     1  UNL1        0.0660
     15  C         16.8490  -22.7340   -4.5760 C.2     1  UNL1        0.1050
     16  C         17.8260  -21.8510   -4.1120 C.2     1  UNL1        0.0370
     17  C         18.9030  -21.5370   -4.9390 C.2     1  UNL1        0.0110
     18  C         19.0040  -22.0830   -6.2310 C.2     1  UNL1       -0.0350
     19  C         20.1980  -21.7170   -7.0740 C.3     1  UNL1        0.0500
     20  N         15.7160  -23.0700   -3.7120 N.pl3   1  UNL1       -0.1160
     21  O         14.8870  -22.1760   -3.4830 O.2     1  UNL1       -0.5320
     22  O         15.6450  -24.2290   -3.2790 O.2     1  UNL1       -0.5320
     23  C         22.1810  -22.9640  -10.8230 C.2     1  UNL1        0.2560
     24  O         22.3340  -23.6910   -9.8480 O.2     1  UNL1       -0.2670
     25  N         23.1020  -22.6780  -11.8110 N.am    1  UNL1       -0.3230
     26  H         22.7700  -22.1670  -12.6190 H       1  UNL1        0.1690
     27  C         24.4530  -23.0820  -11.8650 C.2     1  UNL1        0.0350
     28  C         24.8770  -23.7440  -13.0240 C.2     1  UNL1        0.0290
     29  C         26.2040  -24.1630  -13.1630 C.2     1  UNL1        0.0020
     30  C         27.1210  -23.9200  -12.1430 C.2     1  UNL1        0.0000
     31  C         26.7080  -23.2640  -10.9870 C.2     1  UNL1        0.0020
     32  C         25.3800  -22.8450  -10.8490 C.2     1  UNL1        0.0290
@<TRIPOS>BOND
     1    29    28    1
     2    29    30    2
     3    28    27    2
     4    26    25    1
     5    30    31    1
     6     5     4    2
     7     5     6    1
     8    27    25    1
     9    27    32    1
    10     4     3    1
    11    25    23   am
    12     7     6    1
    13     6     1    2
    14     3    23    1
    15     3     2    2
    16    31    32    2
    17    23    24    2
    18     1     2    1
    19     1     8    1
    20     9     8    2
    21     8    10    2
    22     8    11    1
    23    12    11    1
    24    11    13    1
    25    19    18    1
    26    13    18    2
    27    13    14    1
    28    18    17    1
    29    14    15    2
    30    17    16    2
    31    15    16    1
    32    15    20    1
    33    20    21    2
    34    20    22    2
