@<TRIPOS>MOLECULE
39998_out_ligand_01.pdbqt
 32 34 0 0 0
SMALL
GASTEIGER

@<TRIPOS>ATOM
      1  C         19.2680  -22.7500   -9.0930 C.2     1  UNL1        0.0330
      2  C         18.6040  -22.2190  -10.2000 C.2     1  UNL1        0.0170
      3  C         19.3370  -21.7580  -11.2970 C.2     1  UNL1        0.0090
      4  C         20.7410  -21.8360  -11.3220 C.2     1  UNL1       -0.0390
      5  C         21.4560  -21.3240  -12.5410 C.3     1  UNL1        0.0500
      6  C         21.3980  -22.3800  -10.1990 C.2     1  UNL1        0.0860
      7  C         20.6630  -22.8290   -9.0910 C.2     1  UNL1        0.0420
      8  S         23.1800  -22.5530  -10.1160 S.O2    1  UNL1        0.2630
      9  O         23.4970  -23.3810   -8.9720 O.2     1  UNL1       -0.2000
     10  O         23.7780  -21.2450  -10.2650 O.2     1  UNL1       -0.2000
     11  N         23.5370  -23.4110  -11.5320 N.pl3   1  UNL1       -0.2810
     12  H         23.2980  -24.3970  -11.4510 H       1  UNL1        0.1790
     13  C         24.6960  -23.0520  -12.2750 C.2     1  UNL1        0.0450
     14  C         25.9700  -23.3720  -11.8040 C.2     1  UNL1        0.0300
     15  C         27.1000  -23.0860  -12.5730 C.2     1  UNL1        0.0050
     16  C         26.9590  -22.4800  -13.8210 C.2     1  UNL1        0.0360
     17  C         25.6780  -22.1600  -14.2880 C.2     1  UNL1        0.1050
     18  C         24.5410  -22.4390  -13.5170 C.2     1  UNL1        0.0660
     19  N         25.5180  -21.5390  -15.6060 N.pl3   1  UNL1       -0.1160
     20  O         24.3650  -21.3160  -16.0040 O.2     1  UNL1       -0.5320
     21  O         26.5460  -21.2790  -16.2470 O.2     1  UNL1       -0.5320
     22  C         18.5220  -23.2930   -7.9270 C.2     1  UNL1        0.2560
     23  N         17.7020  -22.3770   -7.2950 N.am    1  UNL1       -0.3220
     24  H         17.7710  -21.4210   -7.6120 H       1  UNL1        0.1690
     25  O         18.7120  -24.4640   -7.6280 O.2     1  UNL1       -0.2670
     26  C         16.8370  -22.6010   -6.1960 C.2     1  UNL1        0.0410
     27  C         15.6080  -23.2560   -6.3330 C.2     1  UNL1        0.0300
     28  C         14.7720  -23.4560   -5.2310 C.2     1  UNL1        0.0020
     29  C         15.1530  -23.0030   -3.9750 C.2     1  UNL1        0.0010
     30  C         16.3720  -22.3470   -3.8200 C.2     1  UNL1        0.0090
     31  C         17.2240  -22.1360   -4.9190 C.2     1  UNL1       -0.0350
     32  C         18.5270  -21.4200   -4.6800 C.3     1  UNL1        0.0500
@<TRIPOS>BOND
     1    21    19    2
     2    20    19    2
     3    19    17    1
     4    17    16    2
     5    17    18    1
     6    16    15    1
     7    18    13    2
     8    15    14    2
     9     5     4    1
    10    13    14    1
    11    13    11    1
    12    11    12    1
    13    11     8    1
    14     4     3    2
    15     4     6    1
    16     3     2    1
    17    10     8    2
    18     2     1    2
    19     6     8    1
    20     6     7    2
    21     8     9    2
    22     1     7    1
    23     1    22    1
    24    22    25    2
    25    22    23   am
    26    24    23    1
    27    23    26    1
    28    27    26    2
    29    27    28    1
    30    26    31    1
    31    28    29    2
    32    31    32    1
    33    31    30    2
    34    29    30    1
