@<TRIPOS>MOLECULE
39_out_ligand_01.pdbqt
 30 33 0 0 0
SMALL
GASTEIGER

@<TRIPOS>ATOM
      1  C         22.7800  -21.6530  -12.8750 C.2     1  UNL1       -0.0270
      2  C         23.1470  -22.3780  -11.7420 C.2     1  UNL1        0.0120
      3  C         22.2220  -22.6350  -10.7200 C.2     1  UNL1        0.0310
      4  C         20.8960  -22.1860  -10.7850 C.2     1  UNL1        0.0430
      5  C         20.5260  -21.4570  -11.9380 C.2     1  UNL1       -0.0300
      6  C         21.4640  -21.1920  -12.9580 C.2     1  UNL1        0.0190
      7  C         19.1380  -20.9020  -12.1170 C.3     1  UNL1        0.0420
      8  C         18.1390  -21.7190  -11.3310 C.3     1  UNL1        0.0250
      9  C         18.6030  -21.8150   -9.8910 C.3     1  UNL1        0.1330
     10  N         19.9270  -22.4400   -9.7360 N.am    1  UNL1       -0.3130
     11  C         20.2450  -23.1430   -8.5590 C.2     1  UNL1        0.2580
     12  O         21.2890  -23.7300   -8.2810 O.2     1  UNL1       -0.2670
     13  C         23.7500  -21.4140  -14.0120 C.3     1  UNL1        0.1790
     14  C         25.0820  -20.8090  -13.4970 C.3     1  UNL1        0.3080
     15  N         26.2540  -21.6850  -13.7550 N.3     1  UNL1        0.0910
     16  C         25.9140  -22.7930  -14.6700 C.3     1  UNL1        0.2720
     17  C         26.9350  -23.9270  -14.6080 C.3     1  UNL1        0.0310
     18  C         26.9880  -24.5650  -13.2170 C.3     1  UNL1        0.0070
     19  C         26.5170  -23.6010  -12.1200 C.3     1  UNL1        0.0100
     20  C         27.1200  -23.9810  -10.7730 C.3     1  UNL1        0.0110
     21  C         26.8600  -22.1480  -12.4910 C.3     1  UNL1        0.2760
     22  O         23.1710  -20.5350  -14.9750 O.3     1  UNL1       -0.3890
     23  H         22.2110  -20.7020  -14.9160 H       1  UNL1        0.2100
     24  C         19.2180  -23.2320   -7.5020 C.2     1  UNL1        0.0320
     25  C         18.3850  -24.3560   -7.4570 C.2     1  UNL1        0.0200
     26  C         17.4340  -24.4620   -6.4410 C.2     1  UNL1        0.0430
     27  C         17.3450  -23.4610   -5.4760 C.2     1  UNL1        0.1160
     28  F         16.4290  -23.5670   -4.5050 F       1  UNL1       -0.2060
     29  C         18.1800  -22.3470   -5.5120 C.2     1  UNL1        0.0430
     30  C         19.1310  -22.2320   -6.5300 C.2     1  UNL1        0.0200
@<TRIPOS>BOND
     1    22    23    1
     2    22    13    1
     3    16    17    1
     4    16    15    1
     5    17    18    1
     6    13    14    1
     7    13     1    1
     8    15    14    1
     9    15    21    1
    10    18    19    1
    11     6     1    2
    12     6     5    1
    13     1     2    1
    14    21    19    1
    15    19    20    1
    16     7     5    1
    17     7     8    1
    18     5     4    2
    19     2     3    2
    20     8     9    1
    21     4     3    1
    22     4    10    1
    23     9    10    1
    24    10    11   am
    25    11    12    2
    26    11    24    1
    27    24    25    2
    28    24    30    1
    29    25    26    1
    30    30    29    2
    31    26    27    2
    32    29    27    1
    33    27    28    1
