@<TRIPOS>MOLECULE
40002_out_ligand_01.pdbqt
 29 31 0 0 0
SMALL
GASTEIGER

@<TRIPOS>ATOM
      1  C         19.1340  -22.4760  -10.3250 C.2     1  UNL1        0.0330
      2  C         18.4430  -21.6320  -11.2060 C.2     1  UNL1        0.0170
      3  C         17.0780  -21.4000  -11.0260 C.2     1  UNL1        0.0030
      4  C         16.4020  -21.9960   -9.9590 C.2     1  UNL1        0.0250
      5  C         17.1030  -22.8160   -9.0690 C.2     1  UNL1        0.0800
      6  C         18.4640  -23.0730   -9.2530 C.2     1  UNL1        0.0420
      7  S         16.2400  -23.5890   -7.7230 S.O2    1  UNL1        0.2630
      8  O         15.5760  -24.7740   -8.2190 O.2     1  UNL1       -0.2000
      9  O         15.4970  -22.5520   -7.0380 O.2     1  UNL1       -0.2000
     10  N         17.4960  -24.0240   -6.6760 N.pl3   1  UNL1       -0.2810
     11  H         18.2540  -24.4610   -7.2010 H       1  UNL1        0.1790
     12  C         17.8630  -23.0980   -5.6590 C.2     1  UNL1        0.0450
     13  C         17.4590  -23.3230   -4.3420 C.2     1  UNL1        0.0300
     14  C         17.7690  -22.3930   -3.3460 C.2     1  UNL1        0.0050
     15  C         18.4820  -21.2410   -3.6730 C.2     1  UNL1        0.0420
     16  C         18.8770  -21.0290   -4.9900 C.2     1  UNL1        0.1180
     17  F         19.5600  -19.9200   -5.3000 F       1  UNL1       -0.2060
     18  C         18.5700  -21.9440   -5.9900 C.2     1  UNL1        0.0720
     19  C         20.5940  -22.7170  -10.4730 C.2     1  UNL1        0.2560
     20  O         21.0850  -23.6530   -9.8560 O.2     1  UNL1       -0.2670
     21  N         21.2370  -21.8450  -11.3310 N.am    1  UNL1       -0.3230
     22  H         20.6550  -21.1990  -11.8490 H       1  UNL1        0.1690
     23  C         22.6130  -21.8080  -11.6380 C.2     1  UNL1        0.0350
     24  C         22.9660  -21.7870  -12.9940 C.2     1  UNL1        0.0310
     25  C         24.3080  -21.7440  -13.3840 C.2     1  UNL1        0.0210
     26  C         25.3050  -21.7200  -12.4140 C.2     1  UNL1        0.0110
     27 BR         27.1210  -21.6620  -12.9330 Br      1  UNL1       -0.0510
     28  C         24.9700  -21.7390  -11.0630 C.2     1  UNL1        0.0210
     29  C         23.6260  -21.7810  -10.6770 C.2     1  UNL1        0.0310
@<TRIPOS>BOND
     1    25    24    1
     2    25    26    2
     3    24    23    2
     4    27    26    1
     5    26    28    1
     6    22    21    1
     7    23    21    1
     8    23    29    1
     9    21    19   am
    10     2     3    1
    11     2     1    2
    12    28    29    2
    13     3     4    2
    14    19     1    1
    15    19    20    2
    16     1     6    1
    17     4     5    1
    18     6     5    2
    19     5     7    1
    20     8     7    2
    21     7     9    2
    22     7    10    1
    23    11    10    1
    24    10    12    1
    25    18    12    2
    26    18    16    1
    27    12    13    1
    28    17    16    1
    29    16    15    2
    30    13    14    2
    31    15    14    1
