@<TRIPOS>MOLECULE
40001_out_ligand_01.pdbqt
 29 31 0 0 0
SMALL
GASTEIGER

@<TRIPOS>ATOM
      1  C         17.0230  -22.8220   -8.9110 C.2     1  UNL1        0.0800
      2  C         16.3190  -22.0350   -9.8270 C.2     1  UNL1        0.0250
      3  C         16.9930  -21.4660  -10.9080 C.2     1  UNL1        0.0030
      4  C         18.3590  -21.7010  -11.0830 C.2     1  UNL1        0.0170
      5  C         19.0540  -22.5200  -10.1810 C.2     1  UNL1        0.0330
      6  C         18.3850  -23.0800   -9.0880 C.2     1  UNL1        0.0420
      7  S         16.1580  -23.5630   -7.5420 S.O2    1  UNL1        0.2630
      8  O         15.5780  -24.8060   -8.0030 O.2     1  UNL1       -0.2000
      9  O         15.3300  -22.5320   -6.9520 O.2     1  UNL1       -0.2000
     10  N         17.3770  -23.8730   -6.4210 N.pl3   1  UNL1       -0.2800
     11  H         17.3180  -24.8090   -6.0270 H       1  UNL1        0.1790
     12  C         17.8850  -22.8220   -5.6040 C.2     1  UNL1        0.0480
     13  C         18.7720  -21.8890   -6.1520 C.2     1  UNL1        0.0300
     14  C         19.2460  -20.8290   -5.3810 C.2     1  UNL1        0.0020
     15  C         18.8440  -20.7030   -4.0550 C.2     1  UNL1        0.0010
     16  C         17.9740  -21.6390   -3.4960 C.2     1  UNL1        0.0090
     17  C         17.4840  -22.7110   -4.2610 C.2     1  UNL1       -0.0350
     18  C         16.5520  -23.6990   -3.6200 C.3     1  UNL1        0.0500
     19  C         20.5090  -22.7870  -10.3390 C.2     1  UNL1        0.2560
     20  O         20.9620  -23.8200   -9.8640 O.2     1  UNL1       -0.2670
     21  N         21.1980  -21.8230  -11.0530 N.am    1  UNL1       -0.3230
     22  H         20.6470  -21.0960  -11.4900 H       1  UNL1        0.1690
     23  C         22.5810  -21.7880  -11.3260 C.2     1  UNL1        0.0350
     24  C         23.5700  -21.7340  -10.3410 C.2     1  UNL1        0.0310
     25  C         24.9240  -21.6950  -10.6930 C.2     1  UNL1        0.0210
     26  C         25.2920  -21.7080  -12.0350 C.2     1  UNL1        0.0110
     27 BR         27.1210  -21.6550  -12.5100 Br      1  UNL1       -0.0510
     28  C         24.3200  -21.7580  -13.0290 C.2     1  UNL1        0.0210
     29  C         22.9680  -21.7970  -12.6730 C.2     1  UNL1        0.0310
@<TRIPOS>BOND
     1    28    29    1
     2    28    26    2
     3    29    23    2
     4    27    26    1
     5    26    25    1
     6    22    21    1
     7    23    21    1
     8    23    24    1
     9     4     3    2
    10     4     5    1
    11    21    19   am
    12     3     2    1
    13    25    24    2
    14    19     5    1
    15    19    20    2
    16     5     6    2
    17     2     1    2
    18     6     1    1
    19     1     7    1
    20     8     7    2
    21     7     9    2
    22     7    10    1
    23    10    11    1
    24    10    12    1
    25    13    12    2
    26    13    14    1
    27    12    17    1
    28    14    15    2
    29    17    18    1
    30    17    16    2
    31    15    16    1
