@<TRIPOS>MOLECULE
40014_out_ligand_01.pdbqt
 32 34 0 0 0
SMALL
GASTEIGER

@<TRIPOS>ATOM
      1  C         19.0420  -22.4230  -10.4280 C.2     1  UNL1        0.0330
      2  C         18.3350  -21.5320  -11.2470 C.2     1  UNL1        0.0170
      3  C         16.9850  -21.2710  -10.9980 C.2     1  UNL1        0.0030
      4  C         16.3410  -21.8860   -9.9240 C.2     1  UNL1        0.0250
      5  C         17.0570  -22.7560   -9.0970 C.2     1  UNL1        0.0800
      6  C         18.4020  -23.0390   -9.3470 C.2     1  UNL1        0.0420
      7  C         20.4880  -22.7000  -10.6390 C.2     1  UNL1        0.2560
      8  N         21.0380  -22.1000  -11.7560 N.am    1  UNL1       -0.3230
      9  H         20.4010  -21.6190  -12.3790 H       1  UNL1        0.1690
     10  O         21.0490  -23.4390   -9.8390 O.2     1  UNL1       -0.2670
     11  C         22.3830  -22.1550  -12.1810 C.2     1  UNL1        0.0360
     12  C         23.3700  -22.9120  -11.5470 C.2     1  UNL1        0.0290
     13  C         24.6840  -22.9120  -12.0250 C.2     1  UNL1        0.0030
     14  C         25.0250  -22.1490  -13.1400 C.2     1  UNL1        0.0180
     15  C         24.0480  -21.3820  -13.7820 C.2     1  UNL1        0.0390
     16  C         22.7300  -21.3860  -13.3000 C.2     1  UNL1        0.0480
     17  C         24.4490  -20.5830  -14.9640 C.2     1  UNL1        0.1760
     18  O         24.4090  -20.9510  -16.1230 O.2     1  UNL1       -0.6460
     19  O         24.8870  -19.3530  -14.6370 O.3     1  UNL1       -0.7730
     20  H         25.0180  -19.4060  -13.6670 H       1  UNL1        0.1670
     21  S         16.2630  -23.5230   -7.7040 S.O2    1  UNL1        0.2630
     22  O         15.4030  -22.5420   -7.0790 O.2     1  UNL1       -0.2000
     23  O         15.7450  -24.7970   -8.1590 O.2     1  UNL1       -0.2000
     24  N         17.5560  -23.8690   -6.6740 N.pl3   1  UNL1       -0.2810
     25  H         18.3150  -24.3450   -7.1610 H       1  UNL1        0.1790
     26  C         17.8940  -22.9520   -5.6390 C.2     1  UNL1        0.0450
     27  C         17.5740  -23.2860   -4.3190 C.2     1  UNL1        0.0300
     28  C         17.9160  -22.4230   -3.2740 C.2     1  UNL1        0.0050
     29  C         18.5720  -21.2250   -3.5530 C.2     1  UNL1        0.0420
     30  C         18.8780  -20.9020   -4.8710 C.2     1  UNL1        0.1180
     31  F         19.5070  -19.7490   -5.1340 F       1  UNL1       -0.2060
     32  C         18.5460  -21.7540   -5.9180 C.2     1  UNL1        0.0720
@<TRIPOS>BOND
     1    18    17    2
     2    17    19    1
     3    17    15    1
     4    19    20    1
     5    15    16    1
     6    15    14    2
     7    16    11    2
     8    14    13    1
     9     9     8    1
    10    11     8    1
    11    11    12    1
    12    13    12    2
    13     8     7   am
    14     2     3    1
    15     2     1    2
    16     3     4    2
    17     7     1    1
    18     7    10    2
    19     1     6    1
    20     4     5    1
    21     6     5    2
    22     5    21    1
    23    23    21    2
    24    21    22    2
    25    21    24    1
    26    25    24    1
    27    24    26    1
    28    32    26    2
    29    32    30    1
    30    26    27    1
    31    31    30    1
    32    30    29    2
    33    27    28    2
    34    29    28    1
