@<TRIPOS>MOLECULE
40015_out_ligand_01.pdbqt
 29 31 0 0 0
SMALL
GASTEIGER

@<TRIPOS>ATOM
      1  C         15.4200  -22.1070  -10.1100 C.3     1  UNL1        0.0500
      2  C         16.8970  -22.3890  -10.0740 C.2     1  UNL1       -0.0390
      3  C         17.6920  -21.8980  -11.1240 C.2     1  UNL1        0.0090
      4  C         19.0740  -22.1060  -11.1440 C.2     1  UNL1        0.0170
      5  C         19.6900  -22.8130  -10.1070 C.2     1  UNL1        0.0330
      6  C         18.9200  -23.2800   -9.0360 C.2     1  UNL1        0.0420
      7  C         17.5310  -23.0770   -9.0210 C.2     1  UNL1        0.0810
      8  S         16.6200  -23.6960   -7.6120 S.O2    1  UNL1        0.2460
      9  O         15.9000  -22.5890   -7.0170 O.2     1  UNL1       -0.2060
     10  O         15.9490  -24.9140   -8.0060 O.2     1  UNL1       -0.2060
     11  N         17.9020  -24.0470   -6.5330 N.pl3   1  UNL1       -0.1810
     12  H         18.7510  -24.0930   -7.1010 H       1  UNL1        0.1460
     13  C         18.0520  -23.0720   -5.4890 C.2     1  UNL1        0.0250
     14  C         17.6980  -23.3930   -4.1740 C.2     1  UNL1        0.0240
     15  C         17.8860  -22.4570   -3.1540 C.2     1  UNL1        0.0050
     16  C         18.4370  -21.2110   -3.4490 C.2     1  UNL1        0.0420
     17  C         18.8030  -20.9150   -4.7590 C.2     1  UNL1        0.1180
     18  F         19.3400  -19.7190   -5.0360 F       1  UNL1       -0.2060
     19  C         18.6230  -21.8380   -5.7830 C.2     1  UNL1        0.0660
     20  C         21.1610  -23.0550  -10.0870 C.2     1  UNL1        0.2560
     21  O         21.5950  -23.8960   -9.3090 O.2     1  UNL1       -0.2670
     22  N         21.8870  -22.3160  -11.0030 N.am    1  UNL1       -0.3230
     23  H         21.3660  -21.7600  -11.6670 H       1  UNL1        0.1690
     24  C         23.2870  -22.3130  -11.1810 C.2     1  UNL1        0.0350
     25  C         24.1660  -21.5120  -10.4520 C.2     1  UNL1        0.0290
     26  C         25.5430  -21.5650  -10.6960 C.2     1  UNL1        0.0020
     27  C         26.0510  -22.4180  -11.6720 C.2     1  UNL1        0.0000
     28  C         25.1830  -23.2190  -12.4080 C.2     1  UNL1        0.0020
     29  C         23.8090  -23.1660  -12.1650 C.2     1  UNL1        0.0290
@<TRIPOS>BOND
     1    28    29    1
     2    28    27    2
     3    29    24    2
     4    27    26    1
     5    23    22    1
     6    24    22    1
     7    24    25    1
     8     4     3    1
     9     4     5    2
    10     3     2    2
    11    22    20   am
    12    26    25    2
    13     1     2    1
    14     5    20    1
    15     5     6    1
    16    20    21    2
    17     2     7    1
    18     6     7    2
    19     7     8    1
    20    10     8    2
    21     8     9    2
    22     8    11    1
    23    12    11    1
    24    11    13    1
    25    19    13    2
    26    19    17    1
    27    13    14    1
    28    18    17    1
    29    17    16    2
    30    14    15    2
    31    16    15    1
