@<TRIPOS>MOLECULE
40013_out_ligand_01.pdbqt
 33 35 0 0 0
SMALL
GASTEIGER

@<TRIPOS>ATOM
      1  C         15.4850  -22.2610   -9.7480 C.3     1  UNL1        0.0500
      2  C         16.9620  -22.5360   -9.8040 C.2     1  UNL1       -0.0390
      3  C         17.7160  -21.9180  -10.8170 C.2     1  UNL1        0.0090
      4  C         19.0950  -22.1180  -10.9160 C.2     1  UNL1        0.0170
      5  C         19.7510  -22.9400   -9.9940 C.2     1  UNL1        0.0330
      6  C         19.0250  -23.5380   -8.9610 C.2     1  UNL1        0.0420
      7  C         17.6370  -23.3480   -8.8710 C.2     1  UNL1        0.0860
      8  C         21.2220  -23.1720  -10.0630 C.2     1  UNL1        0.2560
      9  O         21.7110  -24.0000   -9.3070 O.2     1  UNL1       -0.2670
     10  N         21.8780  -22.4320  -11.0250 N.am    1  UNL1       -0.3220
     11  H         21.3050  -21.8870  -11.6690 H       1  UNL1        0.1690
     12  C         23.2630  -22.3960  -11.3200 C.2     1  UNL1        0.0510
     13  C         24.2230  -22.8520  -10.4050 C.2     1  UNL1        0.0300
     14  C         25.5890  -22.8070  -10.7040 C.2     1  UNL1        0.0020
     15  C         26.0210  -22.3030  -11.9240 C.2     1  UNL1        0.0010
     16  C         25.0870  -21.8400  -12.8470 C.2     1  UNL1        0.0200
     17  C         23.7090  -21.8790  -12.5580 C.2     1  UNL1        0.0640
     18  C         22.8190  -21.3540  -13.6330 C.2     1  UNL1        0.1780
     19  O         23.0290  -21.4380  -14.8310 O.2     1  UNL1       -0.6460
     20  O         21.7010  -20.7410  -13.1940 O.3     1  UNL1       -0.7730
     21  H         22.0530  -19.8830  -12.8630 H       1  UNL1        0.1670
     22  S         16.7840  -24.1740   -7.5370 S.O2    1  UNL1        0.2630
     23  O         17.7710  -24.8470   -6.7200 O.2     1  UNL1       -0.2000
     24  O         15.6540  -24.9020   -8.0720 O.2     1  UNL1       -0.2000
     25  N         16.1990  -22.8790   -6.6090 N.pl3   1  UNL1       -0.2810
     26  H         15.7030  -22.2190   -7.2070 H       1  UNL1        0.1790
     27  C         17.0640  -22.3360   -5.6190 C.2     1  UNL1        0.0450
     28  C         16.8120  -22.5650   -4.2640 C.2     1  UNL1        0.0300
     29  C         17.6390  -21.9920   -3.2950 C.2     1  UNL1        0.0050
     30  C         18.7110  -21.1900   -3.6830 C.2     1  UNL1        0.0420
     31  C         18.9440  -20.9640   -5.0360 C.2     1  UNL1        0.1180
     32  F         19.9720  -20.1890   -5.4070 F       1  UNL1       -0.2060
     33  C         18.1290  -21.5270   -6.0100 C.2     1  UNL1        0.0720
@<TRIPOS>BOND
     1    19    18    2
     2    18    20    1
     3    18    17    1
     4    20    21    1
     5    16    17    1
     6    16    15    2
     7    17    12    2
     8    15    14    1
     9    11    10    1
    10    12    10    1
    11    12    13    1
    12    10     8   am
    13     4     3    1
    14     4     5    2
    15     3     2    2
    16    14    13    2
    17     8     5    1
    18     8     9    2
    19     5     6    1
    20     2     1    1
    21     2     7    1
    22     6     7    2
    23     7    22    1
    24    24    22    2
    25    22    23    2
    26    22    25    1
    27    26    25    1
    28    25    27    1
    29    33    27    2
    30    33    31    1
    31    27    28    1
    32    32    31    1
    33    31    30    2
    34    28    29    2
    35    30    29    1
