@<TRIPOS>MOLECULE
40019_out_ligand_01.pdbqt
 29 31 0 0 0
SMALL
GASTEIGER

@<TRIPOS>ATOM
      1  C         19.2020  -22.5230  -10.2400 C.2     1  UNL1        0.0330
      2  C         18.5190  -21.6850  -11.1350 C.2     1  UNL1        0.0170
      3  C         17.1480  -21.4620  -10.9780 C.2     1  UNL1        0.0030
      4  C         16.4580  -22.0570   -9.9220 C.2     1  UNL1        0.0250
      5  C         17.1500  -22.8660   -9.0140 C.2     1  UNL1        0.0800
      6  C         18.5170  -23.1140   -9.1740 C.2     1  UNL1        0.0420
      7  S         16.2700  -23.6240   -7.6650 S.O2    1  UNL1        0.2630
      8  O         15.6620  -24.8410   -8.1550 O.2     1  UNL1       -0.2000
      9  O         15.4740  -22.5890   -7.0370 O.2     1  UNL1       -0.2000
     10  N         17.4980  -23.9970   -6.5690 N.pl3   1  UNL1       -0.2810
     11  H         17.5560  -24.9960   -6.3810 H       1  UNL1        0.1790
     12  C         17.8060  -23.0930   -5.5140 C.2     1  UNL1        0.0450
     13  C         17.5050  -23.4030   -4.1860 C.2     1  UNL1        0.0300
     14  C         17.8560  -22.5200   -3.1620 C.2     1  UNL1        0.0050
     15  C         18.5020  -21.3230   -3.4680 C.2     1  UNL1        0.0420
     16  C         18.7840  -21.0200   -4.7950 C.2     1  UNL1        0.1180
     17  F         19.4030  -19.8700   -5.0910 F       1  UNL1       -0.2060
     18  C         18.4410  -21.8920   -5.8230 C.2     1  UNL1        0.0720
     19  C         20.6630  -22.7730  -10.3690 C.2     1  UNL1        0.2560
     20  O         21.1240  -23.7730   -9.8330 O.2     1  UNL1       -0.2670
     21  N         21.3470  -21.8410  -11.1270 N.am    1  UNL1       -0.3230
     22  H         20.7910  -21.1450  -11.6080 H       1  UNL1        0.1690
     23  C         22.7330  -21.8000  -11.3850 C.2     1  UNL1        0.0350
     24  C         23.1380  -21.9310  -12.7200 C.2     1  UNL1        0.0310
     25  C         24.4950  -21.8960  -13.0610 C.2     1  UNL1        0.0260
     26  C         25.4520  -21.7270  -12.0650 C.2     1  UNL1        0.0340
     27 CL         27.1210  -21.6820  -12.4810 Cl      1  UNL1       -0.0840
     28  C         25.0630  -21.5930  -10.7360 C.2     1  UNL1        0.0260
     29  C         23.7060  -21.6270  -10.3970 C.2     1  UNL1        0.0310
@<TRIPOS>BOND
     1    25    24    1
     2    25    26    2
     3    24    23    2
     4    27    26    1
     5    26    28    1
     6    22    21    1
     7    23    21    1
     8    23    29    1
     9     2     3    1
    10     2     1    2
    11    21    19   am
    12     3     4    2
    13    28    29    2
    14    19     1    1
    15    19    20    2
    16     1     6    1
    17     4     5    1
    18     6     5    2
    19     5     7    1
    20     8     7    2
    21     7     9    2
    22     7    10    1
    23    10    11    1
    24    10    12    1
    25    18    12    2
    26    18    16    1
    27    12    13    1
    28    17    16    1
    29    16    15    2
    30    13    14    2
    31    15    14    1
