@<TRIPOS>MOLECULE
40020_out_ligand_01.pdbqt
 34 36 0 0 0
SMALL
GASTEIGER

@<TRIPOS>ATOM
      1  C         18.5570  -22.1610   -9.7840 C.2     1  UNL1        0.0330
      2  C         18.3020  -21.6740  -11.0750 C.2     1  UNL1        0.0170
      3  C         19.3620  -21.4170  -11.9490 C.2     1  UNL1        0.0030
      4  C         20.6750  -21.6620  -11.5480 C.2     1  UNL1        0.0250
      5  C         20.9210  -22.1670  -10.2680 C.2     1  UNL1        0.0800
      6  C         19.8720  -22.4080   -9.3780 C.2     1  UNL1        0.0420
      7  C         17.4570  -22.4870   -8.8370 C.2     1  UNL1        0.2560
      8  O         16.3450  -22.6940   -9.3090 O.2     1  UNL1       -0.2670
      9  N         17.8290  -22.5440   -7.5100 N.am    1  UNL1       -0.3220
     10  H         18.8230  -22.4640   -7.2980 H       1  UNL1        0.1690
     11  C         17.0190  -22.7920   -6.3750 C.2     1  UNL1        0.0510
     12  C         15.8830  -23.6100   -6.4440 C.2     1  UNL1        0.0300
     13  C         15.0890  -23.8460   -5.3170 C.2     1  UNL1        0.0020
     14  C         15.4140  -23.2620   -4.0980 C.2     1  UNL1        0.0010
     15  C         16.5350  -22.4420   -4.0070 C.2     1  UNL1        0.0200
     16  C         17.3440  -22.1970   -5.1330 C.2     1  UNL1        0.0640
     17  C         18.5110  -21.3010   -4.8950 C.2     1  UNL1        0.1780
     18  O         19.4040  -21.0720   -5.6910 O.2     1  UNL1       -0.6460
     19  O         18.5370  -20.7190   -3.6780 O.3     1  UNL1       -0.7730
     20  H         18.3400  -19.7800   -3.8930 H       1  UNL1        0.1670
     21  S         22.5850  -22.5250   -9.7530 S.O2    1  UNL1        0.2630
     22  O         23.2610  -21.2690   -9.5200 O.2     1  UNL1       -0.2000
     23  O         22.5020  -23.5430   -8.7290 O.2     1  UNL1       -0.2000
     24  N         23.2530  -23.2650  -11.1180 N.pl3   1  UNL1       -0.2810
     25  H         22.5460  -23.7540  -11.6680 H       1  UNL1        0.1790
     26  C         24.3250  -22.6340  -11.8080 C.2     1  UNL1        0.0450
     27  C         25.6320  -22.8670  -11.3670 C.2     1  UNL1        0.0300
     28  C         26.7130  -22.2910  -12.0360 C.2     1  UNL1        0.0050
     29  C         26.4920  -21.4780  -13.1470 C.2     1  UNL1        0.0360
     30  C         25.1790  -21.2430  -13.5800 C.2     1  UNL1        0.1050
     31  C         24.0910  -21.8200  -12.9140 C.2     1  UNL1        0.0660
     32  N         24.9460  -20.3850  -14.7480 N.pl3   1  UNL1       -0.1160
     33  O         25.5840  -19.3250  -14.8190 O.2     1  UNL1       -0.5320
     34  O         24.1300  -20.7710  -15.5960 O.2     1  UNL1       -0.5320
@<TRIPOS>BOND
     1    34    32    2
     2    33    32    2
     3    32    30    1
     4    30    29    2
     5    30    31    1
     6    29    28    1
     7    31    26    2
     8    28    27    2
     9     3     4    2
    10     3     2    1
    11    26    27    1
    12    26    24    1
    13    25    24    1
    14     4     5    1
    15    24    21    1
    16     2     1    2
    17     5    21    1
    18     5     6    2
    19     1     6    1
    20     1     7    1
    21    21    22    2
    22    21    23    2
    23     8     7    2
    24     7     9   am
    25     9    10    1
    26     9    11    1
    27    12    11    2
    28    12    13    1
    29    11    16    1
    30    18    17    2
    31    13    14    2
    32    16    17    1
    33    16    15    2
    34    17    19    1
    35    14    15    1
    36    20    19    1
