@<TRIPOS>MOLECULE
40023_out_ligand_01.pdbqt
 35 37 0 0 0
SMALL
GASTEIGER

@<TRIPOS>ATOM
      1  C         16.9880  -20.4250  -11.1440 C.3     1  UNL1        0.0500
      2  C         18.3500  -21.0610  -11.0930 C.2     1  UNL1       -0.0390
      3  C         19.3740  -20.5010  -11.8780 C.2     1  UNL1        0.0090
      4  C         20.6660  -21.0360  -11.8700 C.2     1  UNL1        0.0170
      5  C         20.9600  -22.1360  -11.0600 C.2     1  UNL1        0.0330
      6  C         19.9550  -22.7100  -10.2740 C.2     1  UNL1        0.0420
      7  C         18.6580  -22.1750  -10.2860 C.2     1  UNL1        0.0810
      8  C         22.3160  -22.7520  -11.0390 C.2     1  UNL1        0.2560
      9  O         22.6020  -23.4740  -10.0920 O.2     1  UNL1       -0.2670
     10  N         23.1260  -22.4070  -12.1020 N.am    1  UNL1       -0.3220
     11  H         22.7780  -21.6940  -12.7420 H       1  UNL1        0.1690
     12  C         24.4410  -22.8460  -12.3910 C.2     1  UNL1        0.0510
     13  C         24.6860  -23.9290  -13.2470 C.2     1  UNL1        0.0300
     14  C         25.9890  -24.3510  -13.5270 C.2     1  UNL1        0.0020
     15  C         27.0740  -23.6980  -12.9580 C.2     1  UNL1        0.0010
     16  C         26.8560  -22.6170  -12.1080 C.2     1  UNL1        0.0200
     17  C         25.5490  -22.1800  -11.8170 C.2     1  UNL1        0.0640
     18  C         25.4590  -21.0140  -10.8930 C.2     1  UNL1        0.1780
     19  O         26.1020  -19.9830  -10.9870 O.2     1  UNL1       -0.6460
     20  O         24.5750  -21.1590   -9.8840 O.3     1  UNL1       -0.7730
     21  H         25.0610  -21.7520   -9.2670 H       1  UNL1        0.1670
     22  S         17.4390  -22.9480   -9.2320 S.O2    1  UNL1        0.2460
     23  O         16.7740  -23.9850   -9.9880 O.2     1  UNL1       -0.2060
     24  O         16.6920  -21.9050   -8.5630 O.2     1  UNL1       -0.2060
     25  N         18.4450  -23.6470   -8.0370 N.pl3   1  UNL1       -0.1810
     26  H         19.4000  -23.6090   -8.4030 H       1  UNL1        0.1460
     27  C         18.3590  -22.9900   -6.7660 C.2     1  UNL1        0.0250
     28  C         19.1590  -21.8760   -6.4950 C.2     1  UNL1        0.0240
     29  C         19.0320  -21.2020   -5.2790 C.2     1  UNL1        0.0040
     30  C         18.0960  -21.6320   -4.3370 C.2     1  UNL1        0.0360
     31  C         17.2850  -22.7390   -4.6260 C.2     1  UNL1        0.1040
     32  C         17.4080  -23.4190   -5.8420 C.2     1  UNL1        0.0600
     33  N         16.2960  -23.1920   -3.6410 N.pl3   1  UNL1       -0.1160
     34  O         15.5380  -22.3420   -3.1530 O.2     1  UNL1       -0.5320
     35  O         16.2840  -24.3950   -3.3470 O.2     1  UNL1       -0.5320
@<TRIPOS>BOND
     1    14    13    1
     2    14    15    2
     3    13    12    2
     4    15    16    1
     5    11    10    1
     6    12    10    1
     7    12    17    1
     8    16    17    2
     9    10     8   am
    10     3     4    1
    11     3     2    2
    12     4     5    2
    13    17    18    1
    14     1     2    1
    15     2     7    1
    16     5     8    1
    17     5     6    1
    18     8     9    2
    19    19    18    2
    20    18    20    1
    21     7     6    2
    22     7    22    1
    23    23    22    2
    24    20    21    1
    25    22    24    2
    26    22    25    1
    27    26    25    1
    28    25    27    1
    29    27    28    2
    30    27    32    1
    31    28    29    1
    32    32    31    2
    33    29    30    2
    34    31    30    1
    35    31    33    1
    36    33    35    2
    37    33    34    2
