@<TRIPOS>MOLECULE
40024_out_ligand_01.pdbqt
 30 32 0 0 0
SMALL
GASTEIGER

@<TRIPOS>ATOM
      1  C         16.9190  -23.0240   -8.8450 C.2     1  UNL1        0.0810
      2  C         16.2040  -22.1110   -9.6220 C.2     1  UNL1        0.0270
      3  C         16.8640  -21.4090  -10.6320 C.2     1  UNL1        0.0260
      4  C         18.2330  -21.6120  -10.8670 C.2     1  UNL1        0.0490
      5 CL         18.9350  -20.7040  -12.1590 Cl      1  UNL1       -0.0830
      6  C         18.9510  -22.5310  -10.0870 C.2     1  UNL1        0.0550
      7  C         18.2770  -23.2560   -9.0900 C.2     1  UNL1        0.0440
      8  S         16.0870  -23.9210   -7.5490 S.O2    1  UNL1        0.2630
      9  O         15.2140  -22.9840   -6.8740 O.2     1  UNL1       -0.2000
     10  O         15.5790  -25.1510   -8.1100 O.2     1  UNL1       -0.2000
     11  N         17.3350  -24.2590   -6.4630 N.pl3   1  UNL1       -0.2810
     12  H         17.3880  -25.2470   -6.2260 H       1  UNL1        0.1790
     13  C         17.6690  -23.3060   -5.4610 C.2     1  UNL1        0.0430
     14  C         17.3290  -23.5200   -4.1270 C.2     1  UNL1        0.0300
     15  C         17.7330  -22.6070   -3.1530 C.2     1  UNL1        0.0030
     16  C         18.4700  -21.4780   -3.5140 C.2     1  UNL1        0.0070
     17  C         18.7950  -21.2430   -4.8550 C.2     1  UNL1       -0.0600
     18  C         19.6120  -20.0440   -5.2370 C.3     1  UNL1        0.0480
     19  C         18.3980  -22.1710   -5.8260 C.2     1  UNL1        0.0370
     20  C         20.4090  -22.8200  -10.2350 C.2     1  UNL1        0.2570
     21  O         20.8330  -23.8550   -9.7340 O.2     1  UNL1       -0.2670
     22  N         21.1550  -21.8530  -10.8780 N.am    1  UNL1       -0.3230
     23  H         20.6490  -21.0660  -11.2650 H       1  UNL1        0.1690
     24  C         22.5460  -21.8520  -11.1090 C.2     1  UNL1        0.0350
     25  C         22.9800  -22.2010  -12.3950 C.2     1  UNL1        0.0310
     26  C         24.3420  -22.2210  -12.7110 C.2     1  UNL1        0.0210
     27  C         25.2790  -21.8900  -11.7370 C.2     1  UNL1        0.0110
     28 BR         27.1210  -21.9140  -12.1590 Br      1  UNL1       -0.0510
     29  C         24.8640  -21.5410  -10.4560 C.2     1  UNL1        0.0210
     30  C         23.5000  -21.5220  -10.1430 C.2     1  UNL1        0.0310
@<TRIPOS>BOND
     1    26    25    1
     2    26    27    2
     3    25    24    2
     4     5     4    1
     5    28    27    1
     6    27    29    1
     7    23    22    1
     8    24    22    1
     9    24    30    1
    10    22    20   am
    11     4     3    2
    12     4     6    1
    13     3     2    1
    14    29    30    2
    15    20     6    1
    16    20    21    2
    17     6     7    2
    18     2     1    2
    19     7     1    1
    20     1     8    1
    21    10     8    2
    22     8     9    2
    23     8    11    1
    24    11    12    1
    25    11    13    1
    26    19    13    2
    27    19    17    1
    28    13    14    1
    29    18    17    1
    30    17    16    2
    31    14    15    2
    32    16    15    1
