@<TRIPOS>MOLECULE
40037_out_ligand_01.pdbqt
 34 37 0 0 0
SMALL
GASTEIGER

@<TRIPOS>ATOM
      1  C         21.8360  -23.2440   -8.7490 C.2     1  UNL1        0.0800
      2  C         21.2770  -24.5030   -8.9650 C.2     1  UNL1        0.0270
      3  C         20.0530  -24.8220   -8.3700 C.2     1  UNL1        0.0310
      4  C         19.3670  -23.8970   -7.5620 C.2     1  UNL1        0.0310
      5  C         19.9430  -22.6330   -7.3750 C.2     1  UNL1        0.0310
      6  C         21.1680  -22.3020   -7.9660 C.2     1  UNL1        0.0270
      7  N         18.1390  -24.2890   -6.9960 N.pl3   1  UNL1       -0.3660
      8  H         18.1290  -25.2400   -6.6420 H       1  UNL1        0.1650
      9  C         16.9950  -23.5590   -6.8140 C.2     1  UNL1        0.0920
     10  C         16.1010  -23.1150   -7.7090 C.2     1  UNL1        0.0720
     11  C         16.1250  -23.2840   -9.1840 C.2     1  UNL1        0.1830
     12  O         15.4090  -24.1370   -9.7010 O.2     1  UNL1       -0.2880
     13  C         16.9790  -22.4240  -10.0360 C.2     1  UNL1        0.0170
     14  C         16.5230  -21.1820  -10.5310 C.2     1  UNL1        0.0180
     15  C         17.3510  -20.3910  -11.3350 C.2     1  UNL1        0.0400
     16  C         18.6070  -20.8740  -11.6320 C.2     1  UNL1        0.1050
     17  C         19.0460  -22.0920  -11.1660 C.2     1  UNL1        0.1050
     18  O         19.5400  -20.2450  -12.3930 O.2     1  UNL1       -0.3230
     19  C         18.2560  -22.8950  -10.3720 C.2     1  UNL1        0.0550
     20  O         20.3100  -22.3770  -11.5750 O.2     1  UNL1       -0.3230
     21  C         20.6110  -21.2120  -12.3700 C.3     1  UNL1        0.3520
     22  S         23.3750  -22.8280   -9.5310 S.O2    1  UNL1        0.2760
     23  O         24.4420  -23.6020   -8.9330 O.2     1  UNL1       -0.2000
     24  O         23.4480  -21.3790   -9.5380 O.2     1  UNL1       -0.2000
     25  N         23.1540  -23.2790  -11.1130 N.pl3   1  UNL1       -0.1090
     26  H         22.2200  -23.1010  -11.4630 H       1  UNL1        0.1980
     27  C         24.1520  -22.9480  -12.0190 C.cat   1  UNL1        0.7360
     28  N         25.1350  -23.8170  -12.2490 N.2     1  UNL1       -0.0670
     29  C         25.9800  -23.5060  -13.2490 C.2     1  UNL1        0.0510
     30  C         25.8160  -22.3760  -14.0280 C.2     1  UNL1        0.0540
     31  C         27.1180  -24.4460  -13.5080 C.3     1  UNL1        0.0710
     32  C         24.7280  -21.5730  -13.7370 C.2     1  UNL1        0.0510
     33  C         24.4640  -20.3370  -14.5410 C.3     1  UNL1        0.0710
     34  N         23.8670  -21.8610  -12.7400 N.2     1  UNL1       -0.0670
@<TRIPOS>BOND
     1    33    32    1
     2    30    32    1
     3    30    29    2
     4    32    34    2
     5    31    29    1
     6    29    28    1
     7    34    27    1
     8    18    21    1
     9    18    16    1
    10    21    20    1
    11    28    27    2
    12    27    25    1
    13    16    15    2
    14    16    17    1
    15    20    17    1
    16    26    25    1
    17    15    14    1
    18    17    19    2
    19    25    22    1
    20    14    13    2
    21    19    13    1
    22    13    11    1
    23    12    11    2
    24    24    22    2
    25    22    23    2
    26    22     1    1
    27    11    10    1
    28     2     1    2
    29     2     3    1
    30     1     6    1
    31     3     4    2
    32     6     5    2
    33    10     9    2
    34     4     5    1
    35     4     7    1
    36     7     9    1
    37     7     8    1
