@<TRIPOS>MOLECULE
40048_out_ligand_01.pdbqt
 34 35 0 0 0
SMALL
GASTEIGER

@<TRIPOS>ATOM
      1  N         21.2180  -22.6920   -9.8790 N.am    1  UNL1       -0.3230
      2  C         21.1040  -22.3060   -8.5540 C.2     1  UNL1        0.2560
      3  O         22.0120  -21.9420   -7.8180 O.2     1  UNL1       -0.2670
      4  H         20.4190  -23.1570  -10.2900 H       1  UNL1        0.1690
      5  C         22.3730  -22.6110  -10.6890 C.2     1  UNL1        0.0360
      6  C         22.2190  -22.0520  -11.9640 C.2     1  UNL1        0.0460
      7  C         23.3190  -21.9250  -12.8240 C.2     1  UNL1        0.0350
      8  C         24.5880  -22.3300  -12.3980 C.2     1  UNL1        0.0340
      9  C         24.7510  -22.8900  -11.1280 C.2     1  UNL1        0.0350
     10  C         23.6420  -23.0260  -10.2770 C.2     1  UNL1        0.0460
     11  C         23.1920  -21.3370  -14.1830 C.2     1  UNL1        0.2490
     12  N         22.4570  -20.1920  -14.3110 N.am    1  UNL1       -0.3660
     13  H         21.7800  -19.9080  -13.6190 H       1  UNL1        0.1590
     14  H         22.2820  -19.8970  -15.2650 H       1  UNL1        0.1590
     15  O         23.6900  -21.8780  -15.1610 O.2     1  UNL1       -0.2680
     16  C         26.0840  -23.3190  -10.6290 C.2     1  UNL1        0.2490
     17  N         26.1140  -24.2360   -9.6150 N.am    1  UNL1       -0.3660
     18  H         27.0280  -24.4350   -9.2260 H       1  UNL1        0.1590
     19  H         25.3080  -24.4730   -9.0580 H       1  UNL1        0.1590
     20  O         27.1210  -22.8590  -11.0870 O.2     1  UNL1       -0.2680
     21  C         19.7330  -22.4150   -7.9780 C.2     1  UNL1        0.0340
     22  C         18.6440  -22.8480   -8.7460 C.2     1  UNL1        0.0330
     23  C         17.3630  -22.9430   -8.1750 C.2     1  UNL1        0.0490
     24  C         17.1860  -22.5690   -6.8320 C.2     1  UNL1        0.0320
     25  C         18.2640  -22.1040   -6.0580 C.2     1  UNL1        0.0490
     26  C         19.5370  -22.0350   -6.6450 C.2     1  UNL1        0.0330
     27  C         16.1890  -23.3990   -9.0120 C.3     1  UNL1        0.4170
     28  F         16.5320  -23.6950  -10.2950 F       1  UNL1       -0.1660
     29  F         15.2110  -22.4550   -9.0950 F       1  UNL1       -0.1660
     30  F         15.5960  -24.5130   -8.5070 F       1  UNL1       -0.1660
     31  C         18.0670  -21.7200   -4.6100 C.3     1  UNL1        0.4170
     32  F         18.5970  -22.6220   -3.7400 F       1  UNL1       -0.1660
     33  F         16.7500  -21.6100   -4.2860 F       1  UNL1       -0.1660
     34  F         18.6320  -20.5210   -4.2970 F       1  UNL1       -0.1660
@<TRIPOS>BOND
     1    14    12    1
     2    15    11    2
     3    12    11   am
     4    12    13    1
     5    11     7    1
     6     7     8    2
     7     7     6    1
     8     8     9    1
     9     6     5    2
    10     9    16    1
    11     9    10    2
    12    20    16    2
    13     5    10    1
    14     5     1    1
    15    16    17   am
    16    28    27    1
    17     4     1    1
    18     1     2   am
    19    17    18    1
    20    17    19    1
    21    29    27    1
    22    27    30    1
    23    27    23    1
    24    22    23    1
    25    22    21    2
    26     2    21    1
    27     2     3    2
    28    23    24    2
    29    21    26    1
    30    24    25    1
    31    26    25    2
    32    25    31    1
    33    31    34    1
    34    31    33    1
    35    31    32    1
