@<TRIPOS>MOLECULE
40042_out_ligand_01.pdbqt
 27 29 0 0 0
SMALL
GASTEIGER

@<TRIPOS>ATOM
      1  N         19.9970  -22.9010   -9.8220 N.am    1  UNL1       -0.3270
      2  C         20.0140  -23.9060   -8.8640 C.2     1  UNL1        0.2260
      3  O         20.9490  -24.6600   -8.6210 O.2     1  UNL1       -0.2730
      4  H         19.1290  -22.3890   -9.9300 H       1  UNL1        0.1690
      5  C         21.0220  -22.5550  -10.7260 C.2     1  UNL1        0.0340
      6  C         20.6710  -21.7200  -11.8040 C.2     1  UNL1        0.0310
      7  C         21.6190  -21.3430  -12.7570 C.2     1  UNL1        0.0270
      8  C         22.9300  -21.8040  -12.6330 C.2     1  UNL1        0.0740
      9  C         23.3030  -22.6130  -11.5560 C.2     1  UNL1        0.0270
     10  C         22.3430  -22.9930  -10.6110 C.2     1  UNL1        0.0310
     11  S         24.1390  -21.3310  -13.8400 S.O2    1  UNL1        0.2390
     12  O         25.2340  -20.6740  -13.1600 O.2     1  UNL1       -0.2060
     13  O         24.3330  -22.4380  -14.7500 O.2     1  UNL1       -0.2060
     14  N         23.2900  -20.1610  -14.7200 N.3     1  UNL1       -0.2250
     15  H         23.7310  -19.2390  -14.6930 H       1  UNL1        0.1360
     16  H         22.3260  -20.1230  -14.3720 H       1  UNL1        0.1360
     17  C         18.7010  -24.0270   -8.1020 C.3     1  UNL1        0.1420
     18  C         18.6160  -23.0160   -6.9710 C.2     1  UNL1       -0.0380
     19  C         19.6490  -22.0560   -6.9010 C.2     1  UNL1        0.0080
     20  C         19.6970  -21.1260   -5.8680 C.2     1  UNL1        0.0010
     21  C         18.7260  -21.1490   -4.8780 C.2     1  UNL1        0.0120
     22  C         17.6850  -22.0940   -4.9070 C.2     1  UNL1       -0.0250
     23  C         16.7280  -22.0990   -3.8770 C.2     1  UNL1        0.0120
     24  C         17.6020  -23.0360   -5.9690 C.2     1  UNL1       -0.0190
     25  C         15.6720  -23.0110   -3.8820 C.2     1  UNL1        0.0010
     26  C         15.5560  -23.9230   -4.9230 C.2     1  UNL1        0.0010
     27  C         16.5050  -23.9400   -5.9470 C.2     1  UNL1        0.0130
@<TRIPOS>BOND
     1    13    11    2
     2    14    15    1
     3    14    16    1
     4    14    11    1
     5    11    12    2
     6    11     8    1
     7     7     8    2
     8     7     6    1
     9     8     9    1
    10     6     5    2
    11     9    10    2
    12     5    10    1
    13     5     1    1
    14     4     1    1
    15     1     2   am
    16     2     3    2
    17     2    17    1
    18    17    18    1
    19    18    19    2
    20    18    24    1
    21    19    20    1
    22    24    27    1
    23    24    22    2
    24    27    26    2
    25    20    21    2
    26    26    25    1
    27    22    21    1
    28    22    23    1
    29    25    23    2
