@<TRIPOS>MOLECULE
40046_out_ligand_01.pdbqt
 26 29 0 0 0
SMALL
GASTEIGER

@<TRIPOS>ATOM
      1  C         25.1230  -22.0940  -12.7430 C.3     1  UNL1        0.2700
      2  C         24.6980  -20.9480  -13.7000 C.3     1  UNL1        0.0420
      3  C         23.3010  -21.1890  -14.3030 C.3     1  UNL1        0.0070
      4  C         22.2130  -21.2370  -13.2150 C.3     1  UNL1        0.0420
      5  C         22.6500  -22.0680  -12.0560 C.ar    1  UNL1       -0.0210
      6  C         23.9710  -22.4260  -11.8480 C.ar    1  UNL1        0.0500
      7  N         24.0200  -23.1890  -10.7120 N.ar    1  UNL1       -0.3570
      8  C         22.7620  -23.3060  -10.1630 C.ar    1  UNL1        0.0430
      9  C         22.3430  -23.9720   -9.0080 C.2     1  UNL1        0.0310
     10  C         20.9800  -23.9230   -8.6900 C.2     1  UNL1        0.0140
     11  C         20.0510  -23.2380   -9.4900 C.2     1  UNL1       -0.0250
     12  C         20.5120  -22.5810  -10.6470 C.2     1  UNL1        0.0260
     13  C         21.8800  -22.6130  -10.9910 C.ar    1  UNL1       -0.0000
     14  H         24.8520  -23.6010  -10.3170 H       1  UNL1        0.1660
     15  N         26.2910  -21.6320  -11.9930 N.3     1  UNL1        0.0960
     16  H         27.0660  -21.4900  -12.6420 H       1  UNL1        0.3160
     17  C         26.0530  -20.4270  -11.1890 C.3     1  UNL1        0.2960
     18  C         27.0050  -19.2910  -11.5900 C.3     1  UNL1        0.1940
     19  O         26.6940  -18.1190  -10.8380 O.3     1  UNL1       -0.3990
     20  H         26.1210  -17.5910  -11.4310 H       1  UNL1        0.2090
     21  C         18.6230  -23.2080   -9.1290 C.2     1  UNL1       -0.0260
     22  C         18.1630  -23.8030   -7.9420 C.2     1  UNL1        0.0120
     23  C         16.8090  -23.7730   -7.5990 C.2     1  UNL1        0.0010
     24  C         15.8920  -23.1470   -8.4380 C.2     1  UNL1        0.0000
     25  C         16.3250  -22.5500   -9.6190 C.2     1  UNL1        0.0010
     26  C         17.6810  -22.5800   -9.9600 C.2     1  UNL1        0.0120
@<TRIPOS>BOND
     1     3     2    1
     2     3     4    1
     3     2     1    1
     4     4     5    1
     5     1    15    1
     6     1     6    1
     7    16    15    1
     8     5     6   ar
     9     5    13   ar
    10    15    17    1
    11     6     7   ar
    12    18    17    1
    13    18    19    1
    14    20    19    1
    15    13    12    1
    16    13     8   ar
    17     7    14    1
    18     7     8   ar
    19    12    11    2
    20     8     9    1
    21    26    25    1
    22    26    21    2
    23    25    24    2
    24    11    21    1
    25    11    10    1
    26    21    22    1
    27     9    10    2
    28    24    23    1
    29    22    23    2
