@<TRIPOS>MOLECULE
40054_out_ligand_01.pdbqt
 36 39 0 0 0
SMALL
GASTEIGER

@<TRIPOS>ATOM
      1  C         19.0340  -22.5920  -10.7400 C.2     1  UNL1        0.0450
      2  C         18.8930  -21.4810  -11.5760 C.2     1  UNL1        0.0300
      3  C         19.9970  -20.7230  -11.9360 C.2     1  UNL1        0.0030
      4  C         21.2530  -21.0440  -11.4290 C.2     1  UNL1        0.0140
      5  C         21.4560  -22.1210  -10.5330 C.2     1  UNL1        0.0030
      6  C         22.7400  -22.4340   -9.9720 C.2     1  UNL1        0.0450
      7  C         22.8710  -23.5240   -9.1060 C.2     1  UNL1        0.0300
      8  C         21.7860  -24.3360   -8.8150 C.2     1  UNL1        0.0030
      9  C         20.5390  -24.0430   -9.3570 C.2     1  UNL1        0.0140
     10  C         20.3220  -22.9260  -10.2030 C.2     1  UNL1        0.0030
     11  N         17.8860  -23.3260  -10.3330 N.am    1  UNL1       -0.3320
     12  H         17.6180  -24.0950  -10.9310 H       1  UNL1        0.1680
     13  C         16.9350  -23.0660   -9.3810 C.2     1  UNL1        0.1760
     14  S         15.4140  -22.3920   -9.6080 S.2     1  UNL1       -0.0410
     15  N         17.2080  -23.5190   -8.1130 N.am    1  UNL1       -0.3330
     16  H         17.0990  -24.5260   -8.0350 H       1  UNL1        0.1680
     17  C         17.5220  -22.8470   -6.9130 C.2     1  UNL1        0.0340
     18  C         18.6960  -22.0780   -6.9080 C.2     1  UNL1        0.0320
     19  C         19.0910  -21.3870   -5.7600 C.2     1  UNL1        0.0440
     20  C         18.3190  -21.4720   -4.6090 C.2     1  UNL1        0.1160
     21  F         18.6940  -20.8070   -3.5080 F       1  UNL1       -0.2060
     22  C         17.1700  -22.2490   -4.5840 C.2     1  UNL1        0.0440
     23  C         16.7760  -22.9470   -5.7330 C.2     1  UNL1        0.0320
     24  N         23.8440  -21.5650  -10.2040 N.am    1  UNL1       -0.3320
     25  H         23.7660  -20.6490   -9.7890 H       1  UNL1        0.1680
     26  C         24.9230  -21.6560  -11.1010 C.2     1  UNL1        0.1760
     27  S         26.2040  -20.5840  -11.1980 S.2     1  UNL1       -0.0410
     28  N         24.7310  -22.8110  -11.8670 N.am    1  UNL1       -0.3330
     29  H         24.3240  -23.5680  -11.3250 H       1  UNL1        0.1680
     30  C         24.8020  -23.0740  -13.2520 C.2     1  UNL1        0.0340
     31  C         24.3020  -22.0750  -14.1000 C.2     1  UNL1        0.0320
     32  C         24.3010  -22.2370  -15.4870 C.2     1  UNL1        0.0440
     33  C         24.7900  -23.4180  -16.0340 C.2     1  UNL1        0.1160
     34  F         24.7940  -23.5800  -17.3630 F       1  UNL1       -0.2060
     35  C         25.2740  -24.4280  -15.2170 C.2     1  UNL1        0.0440
     36  C         25.2710  -24.2600  -13.8270 C.2     1  UNL1        0.0320
@<TRIPOS>BOND
     1    34    33    1
     2    33    32    2
     3    33    35    1
     4    32    31    1
     5    35    36    2
     6    31    30    2
     7    36    30    1
     8    30    28    1
     9     3     2    1
    10     3     4    2
    11    28    29    1
    12    28    26    1
    13     2     1    2
    14     4     5    1
    15    27    26    2
    16    26    24    1
    17    12    11    1
    18     1    11    1
    19     1    10    1
    20     5    10    2
    21     5     6    1
    22    11    13    1
    23    24     6    1
    24    24    25    1
    25    10     9    1
    26     6     7    2
    27    14    13    2
    28    13    15    1
    29     9     8    2
    30     7     8    1
    31    15    16    1
    32    15    17    1
    33    17    18    2
    34    17    23    1
    35    18    19    1
    36    19    20    2
    37    23    22    2
    38    20    22    1
    39    20    21    1
