@<TRIPOS>MOLECULE
40072_out_ligand_01.pdbqt
 35 39 0 0 0
SMALL
GASTEIGER

@<TRIPOS>ATOM
      1  N         20.5040  -20.6010   -5.6860 N.1     1  UNL1       -0.1910
      2  C         19.5480  -21.1800   -6.0000 C.1     1  UNL1        0.1030
      3  C         18.3940  -21.9030   -6.4500 C.ar    1  UNL1        0.0850
      4  C         18.2750  -22.3650   -7.7480 C.ar    1  UNL1        0.0980
      5  S         16.8100  -23.1900   -7.9710 S.2     1  UNL1       -0.0750
      6  C         16.3140  -22.9330   -6.3590 C.ar    1  UNL1       -0.0070
      7  C         17.2530  -22.2240   -5.6310 C.ar    1  UNL1       -0.0210
      8  C         17.0750  -21.8590   -4.1830 C.3     1  UNL1        0.0410
      9  C         16.8580  -23.0730   -3.2780 C.3     1  UNL1        0.0050
     10  C         15.4570  -23.6830   -3.3690 C.3     1  UNL1        0.0010
     11  C         15.1400  -24.3960   -4.6870 C.3     1  UNL1        0.0050
     12  C         14.9910  -23.4610   -5.8870 C.3     1  UNL1        0.0470
     13  N         19.2030  -22.2240   -8.7750 N.am    1  UNL1       -0.3140
     14  C         18.9430  -21.9540  -10.1150 C.2     1  UNL1        0.2770
     15  O         17.8370  -21.7440  -10.5990 O.2     1  UNL1       -0.2660
     16  H         20.1740  -22.2720   -8.5000 H       1  UNL1        0.1700
     17  C         20.1720  -21.9160  -10.9540 C.2     1  UNL1        0.1480
     18  C         20.4120  -21.1880  -12.1610 C.2     1  UNL1        0.0890
     19  C         21.6880  -21.5160  -12.5390 C.2     1  UNL1        0.1230
     20  N         22.1800  -22.3140  -11.5440 N.pl3   1  UNL1       -0.2400
     21  N         22.4400  -21.1870  -13.6120 N.pl3   1  UNL1       -0.3660
     22  N         21.2620  -22.6420  -10.6260 N.2     1  UNL1       -0.1650
     23  C         23.5020  -22.9150  -11.5610 C.3     1  UNL1        0.2210
     24  C         24.4020  -22.2280  -12.6090 C.3     1  UNL1        0.0670
     25  C         23.6310  -21.9810  -13.9150 C.3     1  UNL1        0.1250
     26  H         22.0230  -20.7240  -14.4180 H       1  UNL1        0.1610
     27  C         24.1710  -22.8560  -10.2050 C.3     1  UNL1        0.4090
     28  F         24.0520  -21.6440   -9.6200 F       1  UNL1       -0.1690
     29  F         25.5060  -23.0850  -10.3510 F       1  UNL1       -0.1690
     30  F         23.7280  -23.7910   -9.3410 F       1  UNL1       -0.1690
     31  C         24.5240  -21.3760  -14.9740 C.2     1  UNL1        0.0050
     32  C         24.7530  -21.8440  -16.2550 C.2     1  UNL1        0.0170
     33  C         25.6580  -21.0210  -16.9850 C.2     1  UNL1        0.0080
     34  C         26.0910  -19.9470  -16.2420 C.2     1  UNL1        0.0500
     35  S         25.4070  -19.9330  -14.6760 S.3     1  UNL1       -0.1040
@<TRIPOS>BOND
     1    33    32    1
     2    33    34    2
     3    32    31    2
     4    34    35    1
     5    31    35    1
     6    31    25    1
     7    26    21    1
     8    25    21    1
     9    25    24    1
    10    21    19    1
    11    24    23    1
    12    19    18    2
    13    19    20    1
    14    18    17    1
    15    23    20    1
    16    23    27    1
    17    20    22    1
    18    17    22    2
    19    17    14    1
    20    15    14    2
    21    29    27    1
    22    27    28    1
    23    27    30    1
    24    14    13   am
    25    13    16    1
    26    13     4    1
    27     5     4   ar
    28     5     6   ar
    29     4     3   ar
    30     3     2    1
    31     3     7   ar
    32     6    12    1
    33     6     7   ar
    34     2     1    3
    35    12    11    1
    36     7     8    1
    37    11    10    1
    38     8     9    1
    39    10     9    1
