@<TRIPOS>MOLECULE
40093_out_ligand_01.pdbqt
 29 32 0 0 0
SMALL
GASTEIGER

@<TRIPOS>ATOM
      1  N         22.8120  -22.4630  -11.4350 N.am    1  UNL1       -0.2440
      2  C         21.8970  -21.7360  -12.1740 C.2     1  UNL1        0.2660
      3  O         22.0020  -21.0570  -13.1800 O.2     1  UNL1       -0.2670
      4  C         20.5990  -21.8790  -11.5220 C.2     1  UNL1        0.0480
      5  C         19.3650  -21.3600  -11.8680 C.2     1  UNL1        0.0190
      6  C         18.2780  -21.6760  -11.0430 C.2     1  UNL1        0.0180
      7  C         18.4550  -22.4890   -9.8990 C.2     1  UNL1        0.0330
      8  C         19.7180  -23.0140   -9.5850 C.2     1  UNL1        0.0350
      9  C         20.7700  -22.6820  -10.4190 C.2     1  UNL1        0.0490
     10  C         22.1810  -23.0520  -10.3550 C.2     1  UNL1        0.2660
     11  O         22.5870  -23.7540   -9.4480 O.2     1  UNL1       -0.2670
     12  C         17.3070  -22.8480   -9.0180 C.2     1  UNL1        0.2560
     13  O         16.2660  -23.2100   -9.5490 O.2     1  UNL1       -0.2670
     14  N         17.5580  -22.7620   -7.6620 N.am    1  UNL1       -0.3220
     15  H         18.5060  -22.5650   -7.3690 H       1  UNL1        0.1690
     16  C         16.6350  -23.0120   -6.6240 C.2     1  UNL1        0.0520
     17  C         15.5130  -22.1820   -6.5380 C.2     1  UNL1        0.0320
     18  C         14.5670  -22.3890   -5.5360 C.2     1  UNL1        0.0210
     19  C         14.7690  -23.4280   -4.6450 C.2     1  UNL1        0.1160
     20  N         15.8330  -24.2540   -4.6940 N.2     1  UNL1       -0.2710
     21  C         16.7430  -24.0300   -5.6800 C.2     1  UNL1        0.1450
     22  C         24.2060  -22.5820  -11.7410 C.2     1  UNL1        0.0480
     23  C         25.1570  -21.7070  -11.1920 C.2     1  UNL1        0.0300
     24  C         26.5190  -21.8230  -11.4900 C.2     1  UNL1        0.0050
     25  C         26.9710  -22.8200  -12.3480 C.2     1  UNL1        0.0370
     26  C         26.0580  -23.7020  -12.9110 C.2     1  UNL1        0.0700
     27  C         24.6930  -23.5780  -12.6050 C.2     1  UNL1        0.0660
     28  O         26.3580  -24.7260  -13.7690 O.2     1  UNL1       -0.3560
     29  C         25.5620  -24.8420  -14.9420 C.3     1  UNL1        0.2100
@<TRIPOS>BOND
     1    29    28    1
     2    28    26    1
     3     3     2    2
     4    26    27    1
     5    26    25    2
     6    27    22    2
     7    25    24    1
     8     2     4    1
     9     2     1   am
    10     5     4    2
    11     5     6    1
    12    22     1    1
    13    22    23    1
    14     4     9    1
    15    24    23    2
    16     1    10   am
    17     6     7    2
    18     9    10    1
    19     9     8    2
    20    10    11    2
    21     7     8    1
    22     7    12    1
    23    13    12    2
    24    12    14   am
    25    14    15    1
    26    14    16    1
    27    16    17    2
    28    16    21    1
    29    17    18    1
    30    21    20    2
    31    18    19    2
    32    20    19    1
