@<TRIPOS>MOLECULE
400_out_ligand_01.pdbqt
 42 46 0 0 0
SMALL
GASTEIGER

@<TRIPOS>ATOM
      1  N         22.1120  -22.2490  -11.0200 N.am    1  UNL1       -0.3220
      2  C         21.1170  -21.6380  -11.7630 C.2     1  UNL1        0.2560
      3  O         21.2690  -21.0390  -12.8190 O.2     1  UNL1       -0.2670
      4  H         21.8110  -22.9200  -10.3270 H       1  UNL1        0.1690
      5  C         23.5100  -22.1090  -11.1770 C.2     1  UNL1        0.0420
      6  C         24.0670  -21.2870  -12.1620 C.2     1  UNL1        0.0550
      7  C         25.4560  -21.1650  -12.2780 C.2     1  UNL1        0.0820
      8  C         26.3070  -21.8320  -11.3980 C.2     1  UNL1        0.0260
      9  C         25.7610  -22.6390  -10.4050 C.2     1  UNL1        0.0100
     10  C         24.3680  -22.7870  -10.2800 C.2     1  UNL1       -0.0350
     11  C         23.8430  -23.6720   -9.1790 C.3     1  UNL1        0.0500
     12  S         26.1470  -20.0960  -13.5140 S.O2    1  UNL1        0.2630
     13  O         27.1120  -19.2420  -12.8510 O.2     1  UNL1       -0.2000
     14  O         25.0790  -19.5270  -14.3060 O.2     1  UNL1       -0.2000
     15  N         27.0600  -21.1610  -14.4610 N.pl3   1  UNL1       -0.2810
     16  H         27.5780  -20.6450  -15.1710 H       1  UNL1        0.1790
     17  C         26.4540  -22.3870  -14.8550 C.2     1  UNL1        0.0440
     18  C         26.8330  -23.5760  -14.2310 C.2     1  UNL1        0.0300
     19  C         26.2130  -24.7770  -14.5820 C.2     1  UNL1        0.0040
     20  C         25.2160  -24.7850  -15.5580 C.2     1  UNL1        0.0240
     21  C         24.8390  -23.5910  -16.1710 C.2     1  UNL1        0.0360
     22 CL         23.6100  -23.6060  -17.3780 Cl      1  UNL1       -0.0840
     23  C         25.4490  -22.3870  -15.8210 C.2     1  UNL1        0.0540
     24  C         19.7310  -21.7740  -11.2170 C.2     1  UNL1        0.0330
     25  C         18.6900  -21.0640  -11.8330 C.2     1  UNL1        0.0170
     26  C         17.3860  -21.1380  -11.3340 C.2     1  UNL1        0.0030
     27  C         17.1140  -21.9050  -10.2000 C.2     1  UNL1        0.0250
     28  C         18.1570  -22.5830   -9.5640 C.2     1  UNL1        0.0760
     29  C         19.4580  -22.5380  -10.0780 C.2     1  UNL1        0.0410
     30  S         17.8350  -23.5660   -8.1060 S.O2    1  UNL1        0.2480
     31  O         19.0130  -24.3830   -7.8960 O.2     1  UNL1       -0.2050
     32  O         16.5360  -24.1820   -8.2840 O.2     1  UNL1       -0.2050
     33  N         17.6980  -22.4080   -6.8630 N.pl3   1  UNL1       -0.1670
     34  C         16.4510  -22.3150   -6.1700 C.2     1  UNL1        0.0320
     35  C         15.1970  -22.0880   -6.7100 C.2     1  UNL1        0.0250
     36  C         16.6380  -22.4420   -4.7960 C.2     1  UNL1       -0.0340
     37  C         14.1030  -22.0460   -5.8430 C.2     1  UNL1        0.0020
     38  C         14.2830  -22.2160   -4.4620 C.2     1  UNL1        0.0010
     39  C         15.5590  -22.4110   -3.9270 C.2     1  UNL1        0.0090
     40  C         18.0770  -22.6690   -4.4650 C.3     1  UNL1        0.0610
     41  C         18.7830  -22.4060   -5.8170 C.3     1  UNL1        0.0800
     42  C         19.4720  -21.0430   -5.8510 C.3     1  UNL1        0.0280
@<TRIPOS>BOND
     1    22    21    1
     2    21    23    1
     3    21    20    2
     4    23    17    2
     5    20    19    1
     6    16    15    1
     7    17    15    1
     8    17    18    1
     9    19    18    2
    10    15    12    1
    11    14    12    2
    12    12    13    2
    13    12     7    1
    14     3     2    2
    15     7     6    1
    16     7     8    2
    17     6     5    2
    18    25    26    1
    19    25    24    2
    20     2    24    1
    21     2     1   am
    22     8     9    1
    23    26    27    2
    24    24    29    1
    25     5     1    1
    26     5    10    1
    27     1     4    1
    28     9    10    2
    29    10    11    1
    30    27    28    1
    31    29    28    2
    32    28    30    1
    33    32    30    2
    34    30    31    2
    35    30    33    1
    36    33    34    1
    37    33    41    1
    38    35    34    2
    39    35    37    1
    40    34    36    1
    41    42    41    1
    42    37    38    2
    43    41    40    1
    44    36    40    1
    45    36    39    2
    46    38    39    1
