@<TRIPOS>MOLECULE
40100_out_ligand_01.pdbqt
 31 34 0 0 0
SMALL
GASTEIGER

@<TRIPOS>ATOM
      1  C         20.6050  -22.3750   -9.8330 C.2     1  UNL1        0.0900
      2  C         20.4800  -21.5400  -10.9540 C.2     1  UNL1        0.0680
      3  C         19.2210  -21.2510  -11.4570 C.2     1  UNL1        0.1170
      4  F         19.1040  -20.4440  -12.5180 F       1  UNL1       -0.2060
      5  C         18.0840  -21.7750  -10.8650 C.2     1  UNL1        0.0430
      6  C         18.2050  -22.6200   -9.7590 C.2     1  UNL1        0.0130
      7  C         19.4670  -22.9630   -9.2300 C.2     1  UNL1       -0.0160
      8  S         22.2590  -22.6090   -9.2000 S.O2    1  UNL1        0.2590
      9  O         22.4360  -21.8150   -8.0080 O.2     1  UNL1       -0.2010
     10  O         22.5230  -24.0280   -9.2290 O.2     1  UNL1       -0.2010
     11  N         23.2180  -21.9230  -10.3940 N.3     1  UNL1       -0.3100
     12  H         22.7510  -21.1950  -10.9320 H       1  UNL1        0.1720
     13  C         24.3150  -22.6960  -11.0020 C.3     1  UNL1        0.0970
     14  C         25.6470  -22.0470  -10.6020 C.3     1  UNL1        0.0260
     15  C         25.8980  -20.7090  -11.2950 C.3     1  UNL1        0.0020
     16  C         25.7660  -20.8220  -12.8090 C.3     1  UNL1        0.0010
     17  C         24.4200  -21.4150  -13.2140 C.3     1  UNL1        0.0060
     18  C         24.1210  -22.7620  -12.5330 C.3     1  UNL1        0.0050
     19  C         24.9670  -23.8860  -13.1420 C.3     1  UNL1        0.0120
     20  C         19.5880  -23.9070   -8.0420 C.3     1  UNL1        0.1760
     21  N         18.7400  -23.5820   -6.9090 N.am    1  UNL1       -0.2740
     22  C         18.8810  -22.4650   -6.1360 C.2     1  UNL1        0.2630
     23  O         19.6590  -21.5380   -6.2540 O.2     1  UNL1       -0.2670
     24  C         17.8790  -22.5510   -5.0860 C.2     1  UNL1        0.0670
     25  C         17.5600  -21.7100   -4.0420 C.2     1  UNL1        0.0210
     26  C         17.1800  -23.7190   -5.2680 C.2     1  UNL1        0.1400
     27  C         16.5130  -22.1140   -3.2100 C.2     1  UNL1        0.0200
     28  C         15.8560  -23.3250   -3.4740 C.2     1  UNL1        0.1170
     29  N         16.1650  -24.1540   -4.5010 N.2     1  UNL1       -0.2540
     30  C         17.7390  -24.3980   -6.4460 C.2     1  UNL1        0.2800
     31  O         17.3730  -25.4660   -6.9010 O.2     1  UNL1       -0.2650
@<TRIPOS>BOND
     1    17    16    1
     2    17    18    1
     3    19    18    1
     4    16    15    1
     5    18    13    1
     6     4     3    1
     7     3     2    1
     8     3     5    2
     9    15    14    1
    10    13    14    1
    11    13    11    1
    12     2     1    2
    13    12    11    1
    14     5     6    1
    15    11     8    1
    16     1     7    1
    17     1     8    1
    18     6     7    2
    19     7    20    1
    20    10     8    2
    21     8     9    2
    22    20    21    1
    23    21    30   am
    24    21    22   am
    25    31    30    2
    26    30    26    1
    27    23    22    2
    28    22    24    1
    29    26    24    2
    30    26    29    1
    31    24    25    1
    32    29    28    2
    33    25    27    2
    34    28    27    1
