@<TRIPOS>MOLECULE
40128_out_ligand_01.pdbqt
 29 32 0 0 0
SMALL
GASTEIGER

@<TRIPOS>ATOM
      1  C         21.7260  -22.1200  -11.5170 C.2     1  UNL1        0.0320
      2  C         21.6370  -23.0380  -10.4650 C.2     1  UNL1        0.0170
      3  C         20.4000  -23.2980   -9.8680 C.2     1  UNL1        0.0100
      4  C         19.2400  -22.6390  -10.3060 C.2     1  UNL1       -0.0300
      5  C         19.3440  -21.7080  -11.3520 C.2     1  UNL1        0.0100
      6  C         20.5790  -21.4440  -11.9480 C.2     1  UNL1        0.0170
      7  C         23.0210  -21.8240  -12.1920 C.2     1  UNL1        0.2560
      8  N         22.9130  -21.5330  -13.5380 N.am    1  UNL1       -0.3230
      9  H         21.9770  -21.4600  -13.9160 H       1  UNL1        0.1690
     10  O         24.0390  -21.8230  -11.5130 O.2     1  UNL1       -0.2670
     11  C         23.9560  -21.2340  -14.4400 C.2     1  UNL1        0.0350
     12  C         24.2490  -22.1920  -15.4150 C.2     1  UNL1        0.0300
     13  C         25.2730  -21.9740  -16.3420 C.2     1  UNL1        0.0090
     14  C         26.0270  -20.7950  -16.3140 C.2     1  UNL1       -0.0560
     15  C         27.1190  -20.5910  -17.3280 C.3     1  UNL1        0.0490
     16  C         25.7380  -19.8230  -15.3370 C.2     1  UNL1       -0.0540
     17  C         24.7070  -20.0580  -14.4070 C.2     1  UNL1        0.0370
     18  C         26.5230  -18.5420  -15.2510 C.3     1  UNL1        0.0490
     19  C         17.8980  -22.9330   -9.6660 C.3     1  UNL1        0.3110
     20  N         17.8800  -23.1720   -8.2210 N.3     1  UNL1        0.0970
     21  C         16.7370  -23.9600   -7.7530 C.3     1  UNL1        0.2770
     22  C         16.9930  -24.4770   -6.3300 C.3     1  UNL1        0.0690
     23  C         17.5110  -23.4060   -5.4010 C.2     1  UNL1       -0.0490
     24  C         17.5180  -23.6210   -4.0160 C.2     1  UNL1        0.0070
     25  C         18.0450  -22.2180   -5.9270 C.2     1  UNL1       -0.0240
     26  C         18.0300  -22.6510   -3.1560 C.2     1  UNL1        0.0010
     27  C         18.5500  -21.4660   -3.6730 C.2     1  UNL1        0.0010
     28  C         18.5510  -21.2460   -5.0500 C.2     1  UNL1        0.0090
     29  C         18.0220  -21.9490   -7.4200 C.3     1  UNL1        0.3110
@<TRIPOS>BOND
     1    15    14    1
     2    13    14    2
     3    13    12    1
     4    14    16    1
     5    12    11    2
     6    16    18    1
     7    16    17    2
     8    11    17    1
     9    11     8    1
    10     9     8    1
    11     8     7   am
    12     7     1    1
    13     7    10    2
    14     6     1    2
    15     6     5    1
    16     1     2    1
    17     5     4    2
    18     2     3    2
    19     4     3    1
    20     4    19    1
    21    19    20    1
    22    20    21    1
    23    20    29    1
    24    21    22    1
    25    29    25    1
    26    22    23    1
    27    25    23    2
    28    25    28    1
    29    23    24    1
    30    28    27    2
    31    24    26    2
    32    27    26    1
