@<TRIPOS>MOLECULE
40136_out_ligand_01.pdbqt
 32 35 0 0 0
SMALL
GASTEIGER

@<TRIPOS>ATOM
      1  C         22.4000  -21.9360  -12.0800 C.2     1  UNL1        0.0320
      2  C         21.2170  -21.3390  -12.5250 C.2     1  UNL1        0.0180
      3  C         20.0200  -21.5510  -11.8280 C.2     1  UNL1        0.0160
      4  C         19.9650  -22.3620  -10.6780 C.2     1  UNL1        0.0120
      5  C         21.1680  -22.9650  -10.2610 C.2     1  UNL1        0.0160
      6  C         22.3680  -22.7630  -10.9540 C.2     1  UNL1        0.0180
      7  C         23.6960  -21.7440  -12.7900 C.2     1  UNL1        0.2560
      8  N         23.6160  -20.9950  -13.9450 N.am    1  UNL1       -0.3210
      9  H         22.7340  -20.5470  -14.1730 H       1  UNL1        0.1690
     10  O         24.7100  -22.2180  -12.2910 O.2     1  UNL1       -0.2670
     11  C         24.6530  -20.6580  -14.8430 C.2     1  UNL1        0.0680
     12  C         25.5540  -19.6150  -14.6250 C.2     1  UNL1        0.0320
     13  C         26.5520  -19.3410  -15.5620 C.2     1  UNL1        0.0020
     14  C         26.6580  -20.1110  -16.7190 C.2     1  UNL1        0.0030
     15  C         25.7650  -21.1600  -16.9460 C.2     1  UNL1        0.0390
     16  C         24.7590  -21.4380  -16.0160 C.2     1  UNL1        0.0950
     17  O         23.8330  -22.4490  -16.1400 O.2     1  UNL1       -0.3490
     18  C         24.1780  -23.5440  -16.9850 C.3     1  UNL1        0.1710
     19  C         23.0750  -23.7000  -18.0170 C.3     1  UNL1        0.0340
     20  C         18.6990  -22.5810   -9.9460 C.2     1  UNL1        0.1620
     21  N         17.5460  -22.2280  -10.5530 N.2     1  UNL1       -0.2410
     22  C         16.4090  -22.4440   -9.8660 C.2     1  UNL1        0.1230
     23  C         16.3790  -22.9840   -8.6060 C.2     1  UNL1        0.0770
     24  C         17.6050  -23.2930   -8.0700 C.2     1  UNL1        0.1730
     25  N         18.7710  -23.1150   -8.7160 N.2     1  UNL1       -0.2040
     26  O         17.5860  -23.8560   -6.7970 O.2     1  UNL1       -0.2920
     27  C         17.9300  -23.0400   -5.7440 C.2     1  UNL1        0.0770
     28  C         17.5260  -23.4220   -4.4660 C.2     1  UNL1        0.0370
     29  C         17.7990  -22.5920   -3.3770 C.2     1  UNL1        0.0030
     30  C         18.4610  -21.3790   -3.5720 C.2     1  UNL1        0.0000
     31  C         18.8510  -20.9920   -4.8550 C.2     1  UNL1        0.0030
     32  C         18.5750  -21.8180   -5.9450 C.2     1  UNL1        0.0370
@<TRIPOS>BOND
     1    19    18    1
     2    18    17    1
     3    15    14    2
     4    15    16    1
     5    14    13    1
     6    17    16    1
     7    16    11    2
     8    13    12    2
     9    11    12    1
    10    11     8    1
    11     9     8    1
    12     8     7   am
    13     7    10    2
    14     7     1    1
    15     2     1    2
    16     2     3    1
    17     1     6    1
    18     3     4    2
    19     6     5    2
    20     4     5    1
    21     4    20    1
    22    21    20    2
    23    21    22    1
    24    20    25    1
    25    22    23    2
    26    25    24    2
    27    23    24    1
    28    24    26    1
    29    26    27    1
    30    32    27    2
    31    32    31    1
    32    27    28    1
    33    31    30    2
    34    28    29    2
    35    30    29    1
