@<TRIPOS>MOLECULE
40130_out_ligand_01.pdbqt
 32 36 0 0 0
SMALL
GASTEIGER

@<TRIPOS>ATOM
      1  C         21.9060  -21.7530  -12.1790 C.2     1  UNL1        0.0320
      2  C         22.0680  -22.6750  -11.1370 C.2     1  UNL1        0.0180
      3  C         21.0060  -22.9410  -10.2660 C.2     1  UNL1        0.0150
      4  C         19.7730  -22.2990  -10.4310 C.2     1  UNL1       -0.0070
      5  C         19.6110  -21.3870  -11.4790 C.2     1  UNL1        0.0150
      6  C         20.6700  -21.1200  -12.3510 C.2     1  UNL1        0.0180
      7  C         18.6700  -22.5860   -9.5260 C.ar    1  UNL1        0.0690
      8  N         17.4690  -23.0560   -9.9660 N.ar    1  UNL1       -0.2760
      9  N         16.5700  -23.2460   -9.0010 N.ar    1  UNL1       -0.1730
     10  H         17.2020  -23.2710  -10.9200 H       1  UNL1        0.1890
     11  C         17.1940  -22.8910   -7.8620 C.ar    1  UNL1        0.0960
     12  C         18.5390  -22.4740   -8.1470 C.ar    1  UNL1        0.0020
     13  C         16.4630  -22.9740   -6.5820 C.2     1  UNL1        0.0010
     14  C         19.6050  -21.9690   -7.2340 C.3     1  UNL1        0.0440
     15  C         19.3280  -22.0880   -5.7440 C.3     1  UNL1        0.0090
     16  C         18.0450  -21.3710   -5.3420 C.3     1  UNL1        0.0400
     17  C         16.8390  -22.2760   -5.4170 C.2     1  UNL1       -0.0450
     18  C         16.0490  -22.4000   -4.2530 C.2     1  UNL1        0.0080
     19  C         14.9150  -23.2090   -4.2260 C.2     1  UNL1        0.0010
     20  C         14.5450  -23.9070   -5.3650 C.2     1  UNL1        0.0010
     21  C         15.3100  -23.7880   -6.5270 C.2     1  UNL1        0.0140
     22  C         22.9960  -21.4480  -13.1460 C.2     1  UNL1        0.2510
     23  O         22.7330  -20.9320  -14.2260 O.2     1  UNL1       -0.2680
     24  N         24.2790  -21.7590  -12.7480 N.am    1  UNL1       -0.3570
     25  H         24.4460  -22.1980  -11.8540 H       1  UNL1        0.1620
     26  C         25.4030  -21.6530  -13.6620 C.3     1  UNL1        0.1280
     27  C         25.6160  -22.9280  -14.4860 C.3     1  UNL1        0.0660
     28  C         25.1790  -22.7540  -15.9160 C.2     1  UNL1       -0.0160
     29  C         24.5750  -23.6810  -16.7430 C.2     1  UNL1        0.0150
     30  C         24.2910  -23.1540  -18.0360 C.2     1  UNL1        0.0080
     31  C         24.6890  -21.8420  -18.1530 C.2     1  UNL1        0.0500
     32  S         25.4120  -21.2570  -16.7180 S.3     1  UNL1       -0.1060
@<TRIPOS>BOND
     1    31    30    2
     2    31    32    1
     3    30    29    1
     4    29    28    2
     5    32    28    1
     6    28    27    1
     7    27    26    1
     8    23    22    2
     9    26    24    1
    10    22    24   am
    11    22     1    1
    12    24    25    1
    13     6     1    2
    14     6     5    1
    15     1     2    1
    16     5     4    2
    17     2     3    2
    18    10     8    1
    19     4     3    1
    20     4     7    1
    21     8     7   ar
    22     8     9   ar
    23     7    12   ar
    24     9    11   ar
    25    12    11   ar
    26    12    14    1
    27    11    13    1
    28    14    15    1
    29    13    21    2
    30    13    17    1
    31    21    20    1
    32    15    16    1
    33    17    16    1
    34    17    18    2
    35    20    19    2
    36    18    19    1
