@<TRIPOS>MOLECULE
40131_out_ligand_01.pdbqt
 38 41 0 0 0
SMALL
GASTEIGER

@<TRIPOS>ATOM
      1  N         22.6340  -22.8280   -9.7230 N.am    1  UNL1       -0.3100
      2  C         22.1720  -22.3900   -8.4630 C.2     1  UNL1        0.2580
      3  O         22.7430  -21.6030   -7.7100 O.2     1  UNL1       -0.2670
      4  C         21.6650  -23.2930  -10.7350 C.3     1  UNL1        0.1710
      5  C         20.4080  -22.4620  -10.9070 C.2     1  UNL1       -0.0400
      6  C         20.4150  -21.1170  -11.3020 C.2     1  UNL1        0.0090
      7  C         19.2190  -20.4080  -11.4520 C.2     1  UNL1        0.0070
      8  C         17.9890  -21.0270  -11.2090 C.2     1  UNL1       -0.0620
      9  C         16.7040  -20.2780  -11.4020 C.3     1  UNL1        0.0480
     10  C         17.9720  -22.3720  -10.8320 C.2     1  UNL1        0.0070
     11  C         19.1680  -23.0800  -10.6800 C.2     1  UNL1        0.0090
     12  C         24.0200  -22.6410  -10.1210 C.2     1  UNL1        0.0380
     13  C         24.9990  -23.6080   -9.8490 C.2     1  UNL1        0.0300
     14  C         26.3220  -23.4600  -10.2790 C.2     1  UNL1        0.0030
     15  C         26.7060  -22.3370  -11.0000 C.2     1  UNL1        0.0070
     16  C         25.7680  -21.3450  -11.2870 C.2     1  UNL1       -0.0470
     17  C         24.4360  -21.5150  -10.8580 C.2     1  UNL1        0.0370
     18  C         26.1570  -20.1170  -12.0830 C.3     1  UNL1        0.1410
     19  C         25.8430  -20.1800  -13.5740 C.2     1  UNL1        0.2260
     20  O         25.6400  -19.1440  -14.2020 O.2     1  UNL1       -0.2730
     21  N         25.8750  -21.4640  -14.0950 N.am    1  UNL1       -0.3270
     22  H         25.9630  -22.2200  -13.4250 H       1  UNL1        0.1690
     23  C         25.7040  -21.8570  -15.4390 C.2     1  UNL1        0.0350
     24  C         26.7110  -21.4910  -16.3400 C.2     1  UNL1        0.0290
     25  C         26.6140  -21.8300  -17.6910 C.2     1  UNL1        0.0030
     26  C         25.5070  -22.5380  -18.1530 C.2     1  UNL1        0.0070
     27  C         24.4930  -22.9190  -17.2660 C.2     1  UNL1       -0.0600
     28  C         23.2880  -23.6540  -17.7740 C.3     1  UNL1        0.0480
     29  C         24.5970  -22.5660  -15.9100 C.2     1  UNL1        0.0360
     30  C         20.8580  -22.8730   -7.9730 C.2     1  UNL1        0.0320
     31  C         20.0280  -21.9810   -7.2800 C.2     1  UNL1        0.0190
     32  C         18.7900  -22.4140   -6.7960 C.2     1  UNL1        0.0370
     33  C         18.3990  -23.7470   -6.9940 C.2     1  UNL1        0.1020
     34  C         19.2410  -24.6480   -7.6620 C.2     1  UNL1        0.0370
     35  C         20.4770  -24.2090   -8.1460 C.2     1  UNL1        0.0190
     36  N         17.1000  -24.2060   -6.4840 N.pl3   1  UNL1       -0.1160
     37  O         16.9930  -24.3960   -5.2640 O.2     1  UNL1       -0.5320
     38  O         16.1860  -24.3730   -7.3050 O.2     1  UNL1       -0.5320
@<TRIPOS>BOND
     1    26    25    2
     2    26    27    1
     3    28    27    1
     4    25    24    1
     5    27    29    2
     6    24    23    2
     7    29    23    1
     8    23    21    1
     9    20    19    2
    10    21    19   am
    11    21    22    1
    12    19    18    1
    13    18    16    1
    14     7     6    1
    15     7     8    2
    16     9     8    1
    17     6     5    2
    18    16    15    2
    19    16    17    1
    20     8    10    1
    21    15    14    1
    22     5     4    1
    23     5    11    1
    24    17    12    2
    25    10    11    2
    26     4     1    1
    27    14    13    2
    28    12    13    1
    29    12     1    1
    30     1     2   am
    31     2    30    1
    32     2     3    2
    33    35    30    2
    34    35    34    1
    35    30    31    1
    36    34    33    2
    37    38    36    2
    38    31    32    2
    39    33    32    1
    40    33    36    1
    41    36    37    2
