@<TRIPOS>MOLECULE
40138_out_ligand_01.pdbqt
 36 39 0 0 0
SMALL
GASTEIGER

@<TRIPOS>ATOM
      1  N         21.1590  -23.1530   -9.4590 N.3     1  UNL1        0.1040
      2  C         20.9830  -22.1780   -8.3700 C.3     1  UNL1        0.3110
      3  C         19.8630  -22.5500   -7.4200 C.2     1  UNL1       -0.0300
      4  C         19.3780  -21.6280   -6.4840 C.2     1  UNL1        0.0090
      5  C         18.3500  -21.9820   -5.6090 C.2     1  UNL1        0.0070
      6  C         17.7920  -23.2640   -5.6470 C.2     1  UNL1       -0.0620
      7  C         16.6670  -23.6270   -4.7250 C.3     1  UNL1        0.0480
      8  C         18.2630  -24.1820   -6.5920 C.2     1  UNL1        0.0070
      9  C         19.2920  -23.8290   -7.4670 C.2     1  UNL1        0.0090
     10  C         20.7830  -22.5730  -10.7610 C.3     1  UNL1        0.3110
     11  C         19.3480  -22.0800  -10.7910 C.2     1  UNL1       -0.0290
     12  C         19.0060  -20.9140  -11.4910 C.2     1  UNL1        0.0090
     13  C         17.6900  -20.4520  -11.5020 C.2     1  UNL1        0.0010
     14  C         16.7020  -21.1450  -10.8060 C.2     1  UNL1        0.0160
     15  C         17.0190  -22.3030  -10.0820 C.2     1  UNL1        0.0480
     16  C         18.3470  -22.7640  -10.0840 C.2     1  UNL1        0.0250
     17  C         15.9440  -23.0590   -9.3420 C.3     1  UNL1        0.4170
     18  F         15.6460  -22.4930   -8.1400 F       1  UNL1       -0.1660
     19  F         14.7670  -23.1260  -10.0250 F       1  UNL1       -0.1660
     20  F         16.2880  -24.3500   -9.0720 F       1  UNL1       -0.1660
     21  C         22.5310  -23.7140   -9.5050 C.3     1  UNL1        0.3590
     22  C         23.5120  -23.0050  -10.3920 C.2     1  UNL1        0.1740
     23  N         23.8890  -23.3070  -11.6190 N.2     1  UNL1       -0.2190
     24  C         24.7980  -22.3160  -11.9570 C.2     1  UNL1        0.1490
     25  C         24.9170  -21.4520  -10.8880 C.2     1  UNL1        0.1810
     26  O         24.1040  -21.8800   -9.8860 O.2     1  UNL1       -0.3030
     27  C         25.4670  -22.2470  -13.2540 C.2     1  UNL1        0.2720
     28  O         26.3500  -23.0360  -13.5860 O.2     1  UNL1       -0.2660
     29  N         25.0560  -21.2170  -14.0850 N.am    1  UNL1       -0.3530
     30  H         24.5780  -20.4320  -13.6630 H       1  UNL1        0.1620
     31  C         25.7970  -20.9140  -15.2990 C.3     1  UNL1        0.1550
     32  C         24.8890  -20.9780  -16.5350 C.3     1  UNL1        0.1390
     33  C         25.6700  -20.9850  -17.8430 C.3     1  UNL1        0.0350
     34  C         25.8030  -22.4560  -18.1510 C.3     1  UNL1        0.0290
     35  C         24.4850  -22.9960  -17.6470 C.3     1  UNL1        0.1680
     36  O         24.1520  -22.2250  -16.4860 O.3     1  UNL1       -0.3840
@<TRIPOS>BOND
     1    34    33    1
     2    34    35    1
     3    33    32    1
     4    35    36    1
     5    32    36    1
     6    32    31    1
     7    31    29    1
     8    29    30    1
     9    29    27   am
    10    28    27    2
    11    27    24    1
    12    24    23    1
    13    24    25    2
    14    23    22    2
    15    13    12    1
    16    13    14    2
    17    12    11    2
    18    25    26    1
    19    14    15    1
    20    11    10    1
    21    11    16    1
    22    10     1    1
    23    22    26    1
    24    22    21    1
    25    16    15    2
    26    15    17    1
    27    19    17    1
    28    21     1    1
    29     1     2    1
    30    17    20    1
    31    17    18    1
    32     2     3    1
    33     9     3    2
    34     9     8    1
    35     3     4    1
    36     8     6    2
    37     4     5    2
    38     6     5    1
    39     6     7    1
