@<TRIPOS>MOLECULE
40146_out_ligand_01.pdbqt
 30 32 0 0 0
SMALL
GASTEIGER

@<TRIPOS>ATOM
      1  C         18.6080  -23.0550   -6.5700 C.2     1  UNL1       -0.0050
      2  C         18.9400  -24.0310   -7.5240 C.2     1  UNL1        0.0150
      3  C         20.0490  -23.8680   -8.3620 C.2     1  UNL1        0.0180
      4  C         20.8460  -22.7240   -8.2580 C.2     1  UNL1        0.0320
      5  C         20.5540  -21.7640   -7.2860 C.2     1  UNL1        0.0180
      6  C         19.4430  -21.9320   -6.4520 C.2     1  UNL1        0.0150
      7  C         17.4350  -23.2060   -5.6930 C.2     1  UNL1        0.0930
      8  N         17.7580  -23.5430   -4.4160 N.2     1  UNL1       -0.2580
      9  C         16.7460  -23.7150   -3.5420 C.2     1  UNL1        0.1170
     10  C         15.4160  -23.5570   -3.8730 C.2     1  UNL1        0.0220
     11  C         15.0960  -23.1960   -5.1790 C.2     1  UNL1        0.0330
     12  C         16.1050  -23.0060   -6.1250 C.2     1  UNL1        0.0640
     13  N         15.8430  -22.6130   -7.4630 N.am    1  UNL1       -0.3250
     14  C         15.6310  -23.4270   -8.5620 C.2     1  UNL1        0.2210
     15  O         15.6040  -24.6520   -8.5660 O.2     1  UNL1       -0.2730
     16  H         15.7850  -21.6150   -7.6280 H       1  UNL1        0.1690
     17  C         15.4260  -22.6050   -9.8270 C.3     1  UNL1        0.0980
     18  C         16.6650  -21.8160  -10.2180 C.3     1  UNL1        0.0140
     19  C         22.0170  -22.5800   -9.1710 C.2     1  UNL1        0.2560
     20  O         23.1290  -22.4560   -8.6700 O.2     1  UNL1       -0.2670
     21  N         21.7080  -22.6500  -10.5200 N.am    1  UNL1       -0.3230
     22  H         20.7590  -22.8970  -10.7650 H       1  UNL1        0.1690
     23  C         22.5930  -22.5020  -11.6090 C.2     1  UNL1        0.0350
     24  C         23.8110  -23.1730  -11.7220 C.2     1  UNL1        0.0300
     25  C         24.6380  -22.9620  -12.8320 C.2     1  UNL1        0.0090
     26  C         24.2600  -22.0790  -13.8490 C.2     1  UNL1       -0.0580
     27  C         23.0410  -21.4010  -13.7320 C.2     1  UNL1        0.0090
     28  C         22.2160  -21.6120  -12.6220 C.2     1  UNL1        0.0300
     29  C         25.1620  -21.8400  -15.0310 C.3     1  UNL1        0.0340
     30  C         24.6430  -22.5250  -16.2860 C.3     1  UNL1        0.0100
@<TRIPOS>BOND
     1    30    29    1
     2    29    26    1
     3    26    27    2
     4    26    25    1
     5    27    28    1
     6    25    24    2
     7    28    23    2
     8    24    23    1
     9    23    21    1
    10    22    21    1
    11    21    19   am
    12    18    17    1
    13    17    14    1
    14    19    20    2
    15    19     4    1
    16    15    14    2
    17    14    13   am
    18     3     4    2
    19     3     2    1
    20     4     5    1
    21    16    13    1
    22     2     1    2
    23    13    12    1
    24     5     6    2
    25     1     6    1
    26     1     7    1
    27    12     7    2
    28    12    11    1
    29     7     8    1
    30    11    10    2
    31     8     9    2
    32    10     9    1
