@<TRIPOS>MOLECULE
40156_out_ligand_01.pdbqt
 32 35 0 0 0
SMALL
GASTEIGER

@<TRIPOS>ATOM
      1  C         21.4020  -22.0540  -11.4640 C.2     1  UNL1        0.2360
      2  O         21.2750  -21.7670  -12.6520 O.2     1  UNL1       -0.2720
      3  N         22.5440  -22.6400  -10.9510 N.am    1  UNL1       -0.3540
      4  H         22.4790  -23.0520  -10.0190 H       1  UNL1        0.1620
      5  C         20.3090  -21.8120  -10.4120 C.3     1  UNL1        0.1660
      6  C         19.1060  -21.0360  -10.9450 C.3     1  UNL1        0.0310
      7  C         18.1330  -22.1190  -11.3720 C.3     1  UNL1        0.0180
      8  C         18.3100  -23.1650  -10.2830 C.3     1  UNL1        0.1090
      9  N         19.7670  -23.1550  -10.0120 N.3     1  UNL1       -0.1930
     10  S         20.2970  -23.7190   -8.5140 S.O2    1  UNL1        0.2440
     11  O         20.4430  -25.1580   -8.6320 O.2     1  UNL1       -0.2060
     12  O         21.4060  -22.8840   -8.1030 O.2     1  UNL1       -0.2060
     13  C         18.9100  -23.4060   -7.4590 C.2     1  UNL1        0.0740
     14  C         17.9570  -24.4010   -7.2410 C.2     1  UNL1        0.0250
     15  C         16.8740  -24.1380   -6.4000 C.2     1  UNL1        0.0080
     16  C         16.7450  -22.8900   -5.7710 C.2     1  UNL1       -0.0620
     17  C         15.5600  -22.6090   -4.8910 C.3     1  UNL1        0.0480
     18  C         17.7030  -21.8970   -6.0120 C.2     1  UNL1        0.0080
     19  C         18.7870  -22.1510   -6.8540 C.2     1  UNL1        0.0250
     20  C         23.6450  -23.0260  -11.8080 C.3     1  UNL1        0.1840
     21  C         24.5930  -21.8490  -12.0070 C.ar    1  UNL1        0.0830
     22  N         25.1480  -21.3430  -10.9430 N.ar    1  UNL1       -0.1740
     23  N         25.9990  -20.2930  -11.0880 N.ar    1  UNL1       -0.2420
     24  C         26.3450  -19.6910  -12.2700 C.ar    1  UNL1        0.2720
     25  H         26.4120  -19.9200  -10.2350 H       1  UNL1        0.1920
     26  O         27.1200  -18.7410  -12.3200 O.2     1  UNL1       -0.2660
     27  C         25.7280  -20.2490  -13.4860 C.ar    1  UNL1        0.0460
     28  C         26.0200  -19.6910  -14.7370 C.2     1  UNL1        0.0180
     29  C         24.8530  -21.3300  -13.3740 C.ar    1  UNL1        0.0080
     30  C         25.4310  -20.2220  -15.8870 C.2     1  UNL1        0.0010
     31  C         24.5580  -21.3060  -15.7830 C.2     1  UNL1        0.0010
     32  C         24.2680  -21.8610  -14.5320 C.2     1  UNL1        0.0140
@<TRIPOS>BOND
     1    30    31    2
     2    30    28    1
     3    31    32    1
     4    28    27    2
     5    32    29    2
     6    27    29   ar
     7    27    24   ar
     8    29    21   ar
     9     2     1    2
    10    26    24    2
    11    24    23   ar
    12    21    20    1
    13    21    22   ar
    14    20     3    1
    15     1     3   am
    16     1     5    1
    17     7     6    1
    18     7     8    1
    19    23    22   ar
    20    23    25    1
    21     3     4    1
    22     6     5    1
    23     5     9    1
    24     8     9    1
    25     9    10    1
    26    11    10    2
    27    10    12    2
    28    10    13    1
    29    13    14    2
    30    13    19    1
    31    14    15    1
    32    19    18    2
    33    15    16    2
    34    18    16    1
    35    16    17    1
