@<TRIPOS>MOLECULE
40164_out_ligand_01.pdbqt
 30 33 0 0 0
SMALL
GASTEIGER

@<TRIPOS>ATOM
      1  N         22.5160  -22.6220  -11.7460 N.am    1  UNL1       -0.3090
      2  C         22.4880  -22.7180  -10.3740 C.2     1  UNL1        0.3270
      3  O         23.4820  -22.7850   -9.6590 O.2     1  UNL1       -0.2460
      4  N         21.2220  -22.8320   -9.8270 N.am    1  UNL1       -0.2990
      5  C         21.0540  -23.2910   -8.4430 C.3     1  UNL1        0.1380
      6  C         19.5630  -23.5930   -8.2700 C.3     1  UNL1        0.0620
      7  C         18.9680  -22.8140   -9.4050 C.2     1  UNL1       -0.0140
      8  C         17.6350  -22.4810   -9.6310 C.2     1  UNL1        0.0400
      9  C         17.3110  -21.6910  -10.7370 C.2     1  UNL1        0.0180
     10  C         18.3170  -21.2620  -11.6120 C.2     1  UNL1        0.0030
     11  C         19.6560  -21.6100  -11.3900 C.2     1  UNL1        0.0300
     12  C         19.9660  -22.4010  -10.2950 C.2     1  UNL1        0.0460
     13  H         21.6820  -22.9560  -12.1950 H       1  UNL1        0.1700
     14  C         23.6440  -22.4470  -12.5730 C.2     1  UNL1        0.0360
     15  C         23.6270  -21.3630  -13.4590 C.2     1  UNL1        0.0300
     16  C         24.6990  -21.1360  -14.3280 C.2     1  UNL1        0.0090
     17  C         25.8140  -21.9800  -14.3110 C.2     1  UNL1       -0.0620
     18  C         26.9470  -21.7780  -15.2710 C.3     1  UNL1        0.0480
     19  C         25.8340  -23.0510  -13.4150 C.2     1  UNL1        0.0090
     20  C         24.7620  -23.2790  -12.5460 C.2     1  UNL1        0.0300
     21  C         16.5540  -22.8860   -8.7090 C.2     1  UNL1        0.2520
     22  O         15.8570  -23.8570   -8.9670 O.2     1  UNL1       -0.2680
     23  N         16.4360  -22.1260   -7.5700 N.am    1  UNL1       -0.3510
     24  H         17.1440  -21.4320   -7.3410 H       1  UNL1        0.1630
     25  C         15.4620  -22.4720   -6.5630 C.3     1  UNL1        0.1870
     26  C         16.1600  -22.7820   -5.2950 C.2     1  UNL1        0.0700
     27  C         17.1900  -23.6340   -4.9560 C.2     1  UNL1        0.0360
     28  C         17.4250  -23.4400   -3.5710 C.2     1  UNL1        0.0270
     29  C         16.5220  -22.4920   -3.1530 C.2     1  UNL1        0.1420
     30  O         15.7420  -22.0950   -4.1900 O.2     1  UNL1       -0.3250
@<TRIPOS>BOND
     1    18    17    1
     2    16    17    2
     3    16    15    1
     4    17    19    1
     5    15    14    2
     6    19    20    2
     7    14    20    1
     8    14     1    1
     9    13     1    1
    10     1     2   am
    11    10    11    2
    12    10     9    1
    13    11    12    1
    14     9     8    2
    15     2     4   am
    16     2     3    2
    17    12     4    1
    18    12     7    2
    19     4     5    1
    20     8     7    1
    21     8    21    1
    22     7     6    1
    23    22    21    2
    24    21    23   am
    25     5     6    1
    26    23    24    1
    27    23    25    1
    28    25    26    1
    29    26    27    2
    30    26    30    1
    31    27    28    1
    32    30    29    1
    33    28    29    2
