@<TRIPOS>MOLECULE
40174_out_ligand_01.pdbqt
 31 33 0 0 0
SMALL
GASTEIGER

@<TRIPOS>ATOM
      1  S         20.3720  -23.2850   -9.3930 S.O2    1  UNL1        0.2460
      2  O         20.7470  -24.6660   -9.1670 O.2     1  UNL1       -0.2060
      3  O         18.9990  -22.9070   -9.6440 O.2     1  UNL1       -0.2060
      4  N         21.0000  -22.3900   -8.0840 N.pl3   1  UNL1       -0.1810
      5  H         21.8300  -22.8610   -7.7240 H       1  UNL1        0.1460
      6  C         20.0470  -22.0930   -7.0570 C.2     1  UNL1        0.0230
      7  C         20.2580  -21.0210   -6.1920 C.2     1  UNL1        0.0240
      8  C         19.3100  -20.7220   -5.2160 C.2     1  UNL1        0.0020
      9  C         18.1490  -21.4910   -5.1050 C.2     1  UNL1        0.0090
     10  C         17.9130  -22.5620   -5.9830 C.2     1  UNL1       -0.0340
     11  C         18.8830  -22.8570   -6.9560 C.2     1  UNL1        0.0330
     12  C         16.6710  -23.4300   -5.8870 C.3     1  UNL1        0.1130
     13  C         16.7190  -24.6630   -6.7930 C.3     1  UNL1        0.0370
     14  N         15.4980  -22.6180   -6.1680 N.am    1  UNL1       -0.3530
     15  C         14.6790  -22.1540   -5.1680 C.2     1  UNL1        0.2140
     16  C         13.4850  -21.3780   -5.6540 C.3     1  UNL1        0.1170
     17  O         14.8920  -22.3370   -3.9740 O.2     1  UNL1       -0.2740
     18  H         15.2130  -22.5180   -7.1320 H       1  UNL1        0.1630
     19  C         21.3740  -22.6650  -10.7380 C.2     1  UNL1        0.0830
     20  C         22.7250  -23.0630  -10.7770 C.2     1  UNL1        0.0550
     21  C         23.5890  -22.6190  -11.7860 C.2     1  UNL1        0.0380
     22  C         23.0580  -21.7690  -12.7580 C.2     1  UNL1        0.0300
     23  C         21.7120  -21.3780  -12.7310 C.2     1  UNL1        0.0100
     24  C         20.8460  -21.8140  -11.7210 C.2     1  UNL1       -0.0390
     25  C         19.4080  -21.3810  -11.7660 C.3     1  UNL1        0.0500
     26  N         24.9500  -23.0320  -11.8080 N.am    1  UNL1       -0.3180
     27  C         25.9600  -22.4440  -10.9560 C.3     1  UNL1        0.1330
     28  C         27.1210  -23.4110  -11.0290 C.3     1  UNL1        0.0290
     29  C         27.0150  -23.9780  -12.4290 C.3     1  UNL1        0.1050
     30  C         25.5290  -23.9480  -12.7010 C.2     1  UNL1        0.2240
     31  O         25.0080  -24.5910  -13.5980 O.2     1  UNL1       -0.2730
@<TRIPOS>BOND
     1    31    30    2
     2    22    23    2
     3    22    21    1
     4    23    24    1
     5    30    29    1
     6    30    26   am
     7    29    28    1
     8    26    21    1
     9    26    27    1
    10    21    20    2
    11    25    24    1
    12    24    19    2
    13    28    27    1
    14    20    19    1
    15    19     1    1
    16     3     1    2
    17     1     2    2
    18     1     4    1
    19     4     5    1
    20     4     6    1
    21    18    14    1
    22     6    11    2
    23     6     7    1
    24    11    10    1
    25    13    12    1
    26     7     8    2
    27    14    12    1
    28    14    15   am
    29    10    12    1
    30    10     9    2
    31    16    15    1
    32     8     9    1
    33    15    17    2
