@<TRIPOS>MOLECULE
40189_out_ligand_01.pdbqt
 32 35 0 0 0
SMALL
GASTEIGER

@<TRIPOS>ATOM
      1  N         17.2270  -22.8160   -7.3900 N.ar    1  UNL1       -0.2100
      2  N         16.2140  -22.3370   -8.1590 N.ar    1  UNL1       -0.1700
      3  C         16.6840  -22.3030   -9.4050 C.ar    1  UNL1        0.0620
      4  C         15.8430  -21.7510  -10.4980 C.3     1  UNL1        0.0730
      5  C         17.9870  -22.8390   -9.4940 C.ar    1  UNL1        0.0220
      6  C         18.2960  -23.2220   -8.1960 C.ar    1  UNL1        0.1790
      7  C         18.8400  -22.9590  -10.7150 C.3     1  UNL1        0.0540
      8  C         19.0100  -21.6280  -11.4430 C.3     1  UNL1        0.1080
      9  C         20.4760  -21.2360  -11.5180 C.2     1  UNL1        0.2220
     10  O         20.9750  -20.4760  -10.6950 O.2     1  UNL1       -0.2730
     11  N         21.1070  -21.8020  -12.6130 N.am    1  UNL1       -0.3270
     12  H         20.5500  -22.4240  -13.1860 H       1  UNL1        0.1690
     13  C         22.4640  -21.6890  -12.9780 C.2     1  UNL1        0.0340
     14  C         22.7700  -20.8110  -14.0280 C.2     1  UNL1        0.0290
     15  C         24.0880  -20.6490  -14.4620 C.2     1  UNL1        0.0020
     16  C         25.1150  -21.3640  -13.8500 C.2     1  UNL1        0.0000
     17  C         24.8230  -22.2350  -12.8050 C.2     1  UNL1        0.0020
     18  C         23.5030  -22.3970  -12.3690 C.2     1  UNL1        0.0290
     19  O         19.3700  -23.8470   -7.6970 O.3     1  UNL1       -0.2910
     20  C         20.6210  -23.4450   -8.0940 C.2     1  UNL1        0.0770
     21  C         21.4200  -24.2650   -8.8970 C.2     1  UNL1        0.0370
     22  C         22.6910  -23.8340   -9.2730 C.2     1  UNL1        0.0030
     23  C         23.1630  -22.5920   -8.8410 C.2     1  UNL1        0.0000
     24  C         22.3680  -21.7870   -8.0240 C.2     1  UNL1        0.0030
     25  C         21.0990  -22.2200   -7.6380 C.2     1  UNL1        0.0370
     26  C         17.1060  -22.8560   -5.9570 C.2     1  UNL1        0.0670
     27  C         16.1860  -23.7510   -5.3750 C.2     1  UNL1        0.0320
     28  C         16.0450  -23.8490   -3.9880 C.2     1  UNL1        0.0020
     29  C         16.8270  -23.0640   -3.1540 C.2     1  UNL1        0.0010
     30  C         17.7470  -22.1770   -3.7070 C.2     1  UNL1        0.0090
     31  C         17.9010  -22.0500   -5.1040 C.2     1  UNL1       -0.0330
     32  C         18.9070  -21.0330   -5.5820 C.3     1  UNL1        0.0500
@<TRIPOS>BOND
     1    15    14    1
     2    15    16    2
     3    14    13    2
     4    16    17    1
     5    12    11    1
     6    13    11    1
     7    13    18    1
     8    17    18    2
     9    11     9   am
    10     9     8    1
    11     9    10    2
    12     8     7    1
    13     7     5    1
    14     4     3    1
    15     5     3   ar
    16     5     6   ar
    17     3     2   ar
    18    22    21    1
    19    22    23    2
    20    21    20    2
    21    23    24    1
    22     6    19    1
    23     6     1   ar
    24     2     1   ar
    25    20    19    1
    26    20    25    1
    27    24    25    2
    28     1    26    1
    29    26    27    2
    30    26    31    1
    31    32    31    1
    32    27    28    1
    33    31    30    2
    34    28    29    2
    35    30    29    1
