@<TRIPOS>MOLECULE
40184_out_ligand_01.pdbqt
 31 33 0 0 0
SMALL
GASTEIGER

@<TRIPOS>ATOM
      1  C         20.4760  -22.4900   -7.4600 C.2     1  UNL1        0.0720
      2  C         19.2750  -23.2020   -7.3150 C.2     1  UNL1        0.0450
      3  C         18.3140  -22.7750   -6.3910 C.2     1  UNL1        0.0800
      4  C         18.5380  -21.6530   -5.5910 C.2     1  UNL1        0.0280
      5  C         19.7330  -20.9480   -5.7260 C.2     1  UNL1        0.0450
      6  C         20.6880  -21.3660   -6.6550 C.2     1  UNL1        0.1320
      7  F         21.8210  -20.6520   -6.7510 F       1  UNL1       -0.2050
      8  S         16.8010  -23.6960   -6.2350 S.O2    1  UNL1        0.2580
      9  O         16.2100  -23.3720   -4.9570 O.2     1  UNL1       -0.2010
     10  O         17.0830  -25.0560   -6.6300 O.2     1  UNL1       -0.2010
     11  N         15.8420  -23.0280   -7.4310 N.3     1  UNL1       -0.3150
     12  H         14.9770  -22.6050   -7.0990 H       1  UNL1        0.1720
     13  C         15.9190  -23.5300   -8.8050 C.3     1  UNL1        0.1370
     14  C         15.7870  -22.3630   -9.7840 C.3     1  UNL1        0.0580
     15  C         17.1020  -22.0480  -10.4500 C.2     1  UNL1       -0.0570
     16  C         18.1320  -22.9980  -10.4670 C.2     1  UNL1        0.0070
     17  C         19.3420  -22.7170  -11.1050 C.2     1  UNL1        0.0010
     18  C         19.5310  -21.4880  -11.7330 C.2     1  UNL1        0.0000
     19  C         18.5120  -20.5390  -11.7250 C.2     1  UNL1        0.0010
     20  C         17.3010  -20.8170  -11.0880 C.2     1  UNL1        0.0070
     21  C         21.4580  -22.9610   -8.4820 C.2     1  UNL1        0.2590
     22  O         21.5940  -24.1730   -8.6190 O.2     1  UNL1       -0.2670
     23  N         22.1300  -21.9860   -9.1960 N.am    1  UNL1       -0.3230
     24  H         21.8980  -21.0190   -8.9870 H       1  UNL1        0.1690
     25  C         23.1020  -22.1660  -10.2010 C.2     1  UNL1        0.0350
     26  C         24.3000  -21.4470  -10.0630 C.2     1  UNL1        0.0320
     27  C         25.3170  -21.5680  -11.0140 C.2     1  UNL1        0.0440
     28  C         25.1380  -22.4090  -12.1030 C.2     1  UNL1        0.1160
     29  F         26.1120  -22.5260  -13.0150 F       1  UNL1       -0.2060
     30  C         23.9620  -23.1300  -12.2560 C.2     1  UNL1        0.0440
     31  C         22.9440  -23.0090  -11.3050 C.2     1  UNL1        0.0320
@<TRIPOS>BOND
     1    29    28    1
     2    30    28    2
     3    30    31    1
     4    28    27    1
     5    18    19    2
     6    18    17    1
     7    19    20    1
     8    31    25    2
     9    17    16    2
    10    20    15    2
    11    27    26    2
    12    16    15    1
    13    15    14    1
    14    25    26    1
    15    25    23    1
    16    14    13    1
    17    23    24    1
    18    23    21   am
    19    13    11    1
    20    22    21    2
    21    21     1    1
    22     1     2    2
    23     1     6    1
    24    11    12    1
    25    11     8    1
    26     2     3    1
    27     7     6    1
    28     6     5    2
    29    10     8    2
    30     3     8    1
    31     3     4    2
    32     8     9    2
    33     5     4    1
