@<TRIPOS>MOLECULE
40202_out_ligand_01.pdbqt
 29 31 0 0 0
SMALL
GASTEIGER

@<TRIPOS>ATOM
      1  C         18.6580  -22.8000   -6.5600 C.2     1  UNL1       -0.0050
      2  C         18.8760  -23.9060   -7.4000 C.2     1  UNL1        0.0150
      3  C         20.0110  -23.9760   -8.2130 C.2     1  UNL1        0.0180
      4  C         20.9550  -22.9430   -8.2010 C.2     1  UNL1        0.0320
      5  C         20.7720  -21.8540   -7.3410 C.2     1  UNL1        0.0180
      6  C         19.6320  -21.7880   -6.5310 C.2     1  UNL1        0.0150
      7  C         17.4630  -22.7120   -5.7000 C.2     1  UNL1        0.0930
      8  N         17.7450  -22.8370   -4.3750 N.2     1  UNL1       -0.2580
      9  C         16.7110  -22.8020   -3.5110 C.2     1  UNL1        0.1170
     10  C         15.3970  -22.6360   -3.9010 C.2     1  UNL1        0.0220
     11  C         15.1200  -22.4890   -5.2590 C.2     1  UNL1        0.0330
     12  C         16.1550  -22.5160   -6.1960 C.2     1  UNL1        0.0640
     13  N         15.9390  -22.3270   -7.5870 N.am    1  UNL1       -0.3250
     14  C         15.6740  -23.2900   -8.5460 C.2     1  UNL1        0.2210
     15  O         15.5980  -24.4990   -8.3630 O.2     1  UNL1       -0.2730
     16  H         15.9630  -21.3670   -7.9110 H       1  UNL1        0.1690
     17  C         15.4840  -22.6620   -9.9190 C.3     1  UNL1        0.0980
     18  C         16.6570  -21.7890  -10.3280 C.3     1  UNL1        0.0140
     19  C         22.1510  -23.0610   -9.0850 C.2     1  UNL1        0.2560
     20  O         22.8460  -24.0650   -8.9850 O.2     1  UNL1       -0.2670
     21  N         22.3240  -22.0170   -9.9770 N.am    1  UNL1       -0.3230
     22  H         21.5860  -21.3280  -10.0310 H       1  UNL1        0.1690
     23  C         23.3790  -21.8440  -10.8980 C.2     1  UNL1        0.0350
     24  C         24.6720  -21.4600  -10.5410 C.2     1  UNL1        0.0300
     25  C         25.6620  -21.3030  -11.5200 C.2     1  UNL1        0.0090
     26  C         25.3770  -21.5350  -12.8680 C.2     1  UNL1       -0.0620
     27  C         26.4310  -21.3320  -13.9150 C.3     1  UNL1        0.0480
     28  C         24.0770  -21.9020  -13.2290 C.2     1  UNL1        0.0090
     29  C         23.0890  -22.0580  -12.2510 C.2     1  UNL1        0.0300
@<TRIPOS>BOND
     1    27    26    1
     2    28    26    2
     3    28    29    1
     4    26    25    1
     5    29    23    2
     6    25    24    2
     7    23    24    1
     8    23    21    1
     9    18    17    1
    10    22    21    1
    11    21    19   am
    12    17    14    1
    13    19    20    2
    14    19     4    1
    15    14    15    2
    16    14    13   am
    17     3     4    2
    18     3     2    1
    19     4     5    1
    20    16    13    1
    21    13    12    1
    22     2     1    2
    23     5     6    2
    24     1     6    1
    25     1     7    1
    26    12     7    2
    27    12    11    1
    28     7     8    1
    29    11    10    2
    30     8     9    2
    31    10     9    1
