@<TRIPOS>MOLECULE
40209_out_ligand_01.pdbqt
 31 34 0 0 0
SMALL
GASTEIGER

@<TRIPOS>ATOM
      1  C         19.5400  -22.7890   -9.4180 C.2     1  UNL1        0.0720
      2  C         20.9420  -22.7950   -9.3250 C.2     1  UNL1        0.0450
      3  C         21.7180  -22.2770  -10.3680 C.2     1  UNL1        0.0800
      4  C         21.1140  -21.7880  -11.5300 C.2     1  UNL1        0.0280
      5  C         19.7240  -21.7880  -11.6300 C.2     1  UNL1        0.0450
      6  C         18.9490  -22.2810  -10.5780 C.2     1  UNL1        0.1320
      7  F         17.6150  -22.2530  -10.7180 F       1  UNL1       -0.2050
      8  S         23.4980  -22.3180  -10.2420 S.O2    1  UNL1        0.2610
      9  O         23.8370  -23.4680   -9.4300 O.2     1  UNL1       -0.2000
     10  O         23.9240  -20.9870   -9.8670 O.2     1  UNL1       -0.2000
     11  N         24.0020  -22.6260  -11.8250 N.3     1  UNL1       -0.3020
     12  C         25.1150  -23.5820  -12.0240 C.3     1  UNL1        0.1400
     13  C         25.0380  -24.1550  -13.4390 C.3     1  UNL1        0.0600
     14  C         25.0030  -23.0620  -14.4780 C.2     1  UNL1       -0.0490
     15  C         25.4040  -23.3310  -15.7930 C.2     1  UNL1        0.0080
     16  C         24.5130  -21.7870  -14.1430 C.2     1  UNL1       -0.0330
     17  C         25.3470  -22.3330  -16.7650 C.2     1  UNL1        0.0010
     18  C         24.8780  -21.0630  -16.4340 C.2     1  UNL1        0.0010
     19  C         24.4630  -20.7910  -15.1300 C.2     1  UNL1        0.0090
     20  C         24.0660  -21.4580  -12.7330 C.3     1  UNL1        0.1740
     21  C         18.7540  -23.3100   -8.2600 C.2     1  UNL1        0.2590
     22  O         18.9960  -24.4530   -7.8830 O.2     1  UNL1       -0.2670
     23  N         17.8200  -22.4560   -7.7080 N.am    1  UNL1       -0.3220
     24  H         17.7370  -21.5240   -8.1070 H       1  UNL1        0.1690
     25  C         16.9420  -22.7010   -6.6220 C.2     1  UNL1        0.0520
     26  C         15.7730  -23.4590   -6.7400 C.2     1  UNL1        0.0310
     27  C         14.9410  -23.6690   -5.6340 C.2     1  UNL1        0.0020
     28  C         15.2650  -23.1240   -4.3940 C.2     1  UNL1        0.0020
     29  C         16.4240  -22.3650   -4.2570 C.2     1  UNL1        0.0210
     30  C         17.2550  -22.1560   -5.3620 C.2     1  UNL1        0.0370
     31 BR         18.8190  -21.1040   -5.0940 Br      1  UNL1       -0.0490
@<TRIPOS>BOND
     1    17    18    2
     2    17    15    1
     3    18    19    1
     4    15    14    2
     5    19    16    2
     6    14    16    1
     7    14    13    1
     8    16    20    1
     9    13    12    1
    10    20    11    1
    11    12    11    1
    12    11     8    1
    13     5     4    2
    14     5     6    1
    15     4     3    1
    16     7     6    1
    17     6     1    2
    18     3     8    1
    19     3     2    2
    20     8    10    2
    21     8     9    2
    22     1     2    1
    23     1    21    1
    24    21    22    2
    25    21    23   am
    26    24    23    1
    27    23    25    1
    28    26    25    2
    29    26    27    1
    30    25    30    1
    31    27    28    2
    32    30    31    1
    33    30    29    2
    34    28    29    1
