@<TRIPOS>MOLECULE
40247_out_ligand_01.pdbqt
 35 39 0 0 0
SMALL
GASTEIGER

@<TRIPOS>ATOM
      1  S         16.1100  -23.3470   -9.5960 S.3     1  UNL1       -0.0870
      2  C         16.0740  -23.2160   -7.8690 C.ar    1  UNL1        0.1700
      3  N         17.0460  -23.7410   -7.0490 N.ar    1  UNL1       -0.3190
      4  C         16.7160  -23.3950   -5.7530 C.ar    1  UNL1        0.0830
      5  C         17.3100  -23.6150   -4.5160 C.2     1  UNL1        0.1480
      6  C         15.5180  -22.6950   -5.8760 C.ar    1  UNL1        0.0890
      7  N         16.6980  -23.1360   -3.4070 N.2     1  UNL1       -0.2710
      8  C         15.5330  -22.4530   -3.5330 C.2     1  UNL1        0.1180
      9  C         14.8880  -22.1980   -4.7340 C.2     1  UNL1        0.0530
     10  N         15.1330  -22.6040   -7.1890 N.ar    1  UNL1       -0.2220
     11  C         18.2110  -24.5200   -7.4460 C.3     1  UNL1        0.1700
     12  C         19.4390  -23.6560   -7.6170 C.2     1  UNL1       -0.0390
     13  C         19.4890  -22.3550   -7.0990 C.2     1  UNL1        0.0090
     14  C         20.6340  -21.5720   -7.2570 C.2     1  UNL1        0.0010
     15  C         21.7400  -22.0770   -7.9360 C.2     1  UNL1        0.0070
     16  C         21.7140  -23.3720   -8.4600 C.2     1  UNL1       -0.0610
     17  C         22.8920  -23.9060   -9.2210 C.3     1  UNL1        0.0480
     18  C         20.5550  -24.1470   -8.3120 C.2     1  UNL1        0.0150
     19  C         16.6120  -21.6580  -10.0370 C.3     1  UNL1        0.1210
     20  C         17.9780  -21.5990  -10.6750 C.2     1  UNL1       -0.0480
     21  C         18.4820  -20.3860  -11.1740 C.2     1  UNL1        0.0090
     22  C         19.7470  -20.3330  -11.7670 C.2     1  UNL1        0.0170
     23  C         20.5210  -21.4950  -11.8750 C.2     1  UNL1        0.0320
     24  C         20.0290  -22.7040  -11.3720 C.2     1  UNL1        0.0170
     25  C         18.7620  -22.7570  -10.7850 C.2     1  UNL1        0.0090
     26  C         21.8730  -21.4830  -12.4990 C.2     1  UNL1        0.2510
     27  O         22.0360  -21.0240  -13.6240 O.2     1  UNL1       -0.2680
     28  N         22.9030  -21.9810  -11.7280 N.am    1  UNL1       -0.3540
     29  H         22.7610  -22.0290  -10.7230 H       1  UNL1        0.1620
     30  C         24.2840  -21.8210  -12.1460 C.3     1  UNL1        0.1550
     31  C         24.8940  -23.1640  -12.5440 C.3     1  UNL1        0.1390
     32  C         25.0110  -23.3480  -14.0470 C.3     1  UNL1        0.0350
     33  C         26.1610  -24.3190  -14.1470 C.3     1  UNL1        0.0290
     34  C         27.0740  -23.8370  -13.0390 C.3     1  UNL1        0.1680
     35  O         26.2360  -23.2730  -12.0190 O.3     1  UNL1       -0.3840
@<TRIPOS>BOND
     1    33    32    1
     2    33    34    1
     3    32    31    1
     4    27    26    2
     5    34    35    1
     6    31    30    1
     7    31    35    1
     8    26    23    1
     9    26    28   am
    10    30    28    1
    11    23    22    2
    12    23    24    1
    13    22    21    1
    14    28    29    1
    15    24    25    2
    16    21    20    2
    17    25    20    1
    18    20    19    1
    19    19     1    1
    20     1     2    1
    21    17    16    1
    22    16    18    1
    23    16    15    2
    24    18    12    2
    25    15    14    1
    26     2    10   ar
    27     2     3   ar
    28    12    11    1
    29    12    13    1
    30    11     3    1
    31    14    13    2
    32    10     6   ar
    33     3     4   ar
    34     6     4   ar
    35     6     9    1
    36     4     5    1
    37     9     8    2
    38     5     7    2
    39     8     7    1
