@<TRIPOS>MOLECULE
40248_out_ligand_01.pdbqt
 35 39 0 0 0
SMALL
GASTEIGER

@<TRIPOS>ATOM
      1  C         21.7240  -23.0860   -8.7620 C.2     1  UNL1        0.0700
      2  C         21.7190  -24.4440   -9.0120 C.2     1  UNL1        0.0370
      3  C         20.4720  -24.9320   -8.5520 C.2     1  UNL1        0.0390
      4  C         19.7730  -23.8440   -8.0610 C.2     1  UNL1        0.0970
      5  O         20.5450  -22.7160   -8.1840 O.2     1  UNL1       -0.3140
      6  C         18.4110  -23.6450   -7.4330 C.3     1  UNL1        0.1610
      7  O         18.0400  -24.9540   -6.9650 O.3     1  UNL1       -0.3730
      8  H         18.6310  -25.5700   -7.4390 H       1  UNL1        0.2120
      9  C         17.3760  -23.1730   -8.4650 C.2     1  UNL1       -0.0100
     10  C         16.0630  -23.6960   -8.4700 C.2     1  UNL1        0.0110
     11  C         15.1160  -23.2600   -9.4030 C.2     1  UNL1        0.0040
     12  C         15.4610  -22.2930  -10.3460 C.2     1  UNL1        0.0420
     13  C         16.7440  -21.7700  -10.3450 C.2     1  UNL1        0.1170
     14  F         17.0740  -20.8310  -11.2490 F       1  UNL1       -0.2060
     15  C         17.6950  -22.1900   -9.4220 C.2     1  UNL1        0.0530
     16  C         18.4060  -22.7590   -6.1760 C.2     1  UNL1       -0.0100
     17  C         17.8140  -23.1450   -4.9590 C.2     1  UNL1        0.0110
     18  C         17.8530  -22.3080   -3.8380 C.2     1  UNL1        0.0040
     19  C         18.4960  -21.0780   -3.9070 C.2     1  UNL1        0.0420
     20  C         19.0890  -20.6860   -5.0970 C.2     1  UNL1        0.1170
     21  F         19.7040  -19.5040   -5.1670 F       1  UNL1       -0.2060
     22  C         19.0430  -21.5030   -6.2210 C.2     1  UNL1        0.0530
     23  C         22.7120  -21.9940   -9.0030 C.3     1  UNL1        0.1820
     24  N         23.0920  -21.7970  -10.4110 N.3     1  UNL1       -0.3980
     25  C         24.5070  -21.4570  -10.5810 C.3     1  UNL1        0.1560
     26  C         25.1600  -22.0580  -11.8180 C.2     1  UNL1       -0.0350
     27  C         24.8000  -23.3640  -12.1930 C.2     1  UNL1        0.0090
     28  C         25.3370  -23.9710  -13.3280 C.2     1  UNL1        0.0010
     29  C         26.2340  -23.2780  -14.1220 C.2     1  UNL1        0.0010
     30  C         26.5860  -21.9730  -13.7870 C.2     1  UNL1        0.0070
     31  C         26.0490  -21.3440  -12.6500 C.2     1  UNL1       -0.0540
     32  C         26.4680  -19.9280  -12.3550 C.3     1  UNL1        0.0490
     33  C         22.0630  -21.0970  -11.2020 C.3     1  UNL1        0.0800
     34  C         21.7410  -21.4920  -12.6180 C.3     1  UNL1        0.0270
     35  C         20.7130  -21.6550  -11.5430 C.3     1  UNL1        0.0270
@<TRIPOS>BOND
     1    29    30    2
     2    29    28    1
     3    30    31    1
     4    28    27    2
     5    31    32    1
     6    31    26    2
     7    34    35    1
     8    34    33    1
     9    27    26    1
    10    26    25    1
    11    35    33    1
    12    14    13    1
    13    33    24    1
    14    25    24    1
    15    24    23    1
    16    12    13    2
    17    12    11    1
    18    13    15    1
    19    15     9    2
    20    11    10    2
    21     2     1    2
    22     2     3    1
    23    23     1    1
    24     1     5    1
    25     3     4    2
    26    10     9    1
    27     9     6    1
    28     5     4    1
    29     4     6    1
    30     8     7    1
    31     6     7    1
    32     6    16    1
    33    22    16    2
    34    22    20    1
    35    16    17    1
    36    21    20    1
    37    20    19    2
    38    17    18    2
    39    19    18    1
