@<TRIPOS>MOLECULE
40271_out_ligand_01.pdbqt
 29 32 0 0 0
SMALL
GASTEIGER

@<TRIPOS>ATOM
      1  C         23.2200  -22.7400   -9.3310 C.2     1  UNL1        0.0220
      2  C         22.4430  -23.8730   -9.5620 C.2     1  UNL1        0.0250
      3  C         21.2070  -24.0130   -8.9240 C.2     1  UNL1        0.0150
      4  C         20.7340  -23.0150   -8.0610 C.2     1  UNL1       -0.0090
      5  C         21.5220  -21.8760   -7.8490 C.2     1  UNL1        0.0150
      6  C         22.7580  -21.7320   -8.4890 C.2     1  UNL1        0.0250
      7  N         24.4590  -22.5860  -10.0340 N.pl3   1  UNL1       -0.1810
      8  H         24.9290  -21.7260   -9.7460 H       1  UNL1        0.1460
      9  S         24.2900  -22.4980  -11.7300 S.O2    1  UNL1        0.2480
     10  O         22.9240  -22.0630  -11.9500 O.2     1  UNL1       -0.2050
     11  O         24.8210  -23.6750  -12.3790 O.2     1  UNL1       -0.2050
     12  C         25.3500  -21.1470  -12.1240 C.2     1  UNL1        0.1130
     13  C         26.0890  -20.5070  -11.1230 C.2     1  UNL1        0.0280
     14  C         26.9150  -19.4330  -11.4600 C.2     1  UNL1        0.0020
     15  C         26.9990  -19.0040  -12.7860 C.2     1  UNL1        0.0030
     16  C         26.2540  -19.6450  -13.7780 C.2     1  UNL1        0.0440
     17  C         25.4300  -20.7160  -13.4420 C.2     1  UNL1        0.1390
     18  F         24.7350  -21.3160  -14.4160 F       1  UNL1       -0.2040
     19  C         19.4380  -23.1470   -7.3960 C.2     1  UNL1        0.0430
     20  C         18.3880  -24.0180   -7.6300 C.2     1  UNL1        0.0440
     21  C         17.3540  -23.7450   -6.6940 C.2     1  UNL1       -0.0060
     22  C         16.0770  -24.2890   -6.4590 C.2     1  UNL1        0.0370
     23  C         17.8030  -22.7040   -5.8840 C.2     1  UNL1        0.0430
     24  C         15.3030  -23.7660   -5.4180 C.2     1  UNL1        0.0350
     25 CL         13.7370  -24.4230   -5.1190 Cl      1  UNL1       -0.0840
     26  C         15.7730  -22.7250   -4.6200 C.2     1  UNL1        0.0260
     27  C         17.0380  -22.1720   -4.8390 C.2     1  UNL1        0.0320
     28  N         19.0610  -22.3660   -6.3250 N.pl3   1  UNL1       -0.3550
     29  H         19.6430  -21.6560   -5.9020 H       1  UNL1        0.1660
@<TRIPOS>BOND
     1    18    17    1
     2    16    17    1
     3    16    15    2
     4    17    12    2
     5    15    14    1
     6    11     9    2
     7    12     9    1
     8    12    13    1
     9    10     9    2
    10     9     7    1
    11    14    13    2
    12     7     8    1
    13     7     1    1
    14     2     1    2
    15     2     3    1
    16     1     6    1
    17     3     4    2
    18     6     5    2
    19     4     5    1
    20     4    19    1
    21    20    19    2
    22    20    21    1
    23    19    28    1
    24    21    22    2
    25    21    23    1
    26    22    24    1
    27    28    29    1
    28    28    23    1
    29    23    27    2
    30    24    25    1
    31    24    26    2
    32    27    26    1
