@<TRIPOS>MOLECULE
40273_out_ligand_01.pdbqt
 33 36 0 0 0
SMALL
GASTEIGER

@<TRIPOS>ATOM
      1  C         19.6460  -22.8650   -9.0440 C.2     1  UNL1        0.0320
      2  C         20.6780  -23.6020   -8.4490 C.2     1  UNL1        0.0190
      3  C         21.9030  -23.7550   -9.1030 C.2     1  UNL1        0.0310
      4  C         22.0960  -23.1830  -10.3610 C.2     1  UNL1        0.0420
      5  C         21.0670  -22.4590  -10.9640 C.2     1  UNL1        0.0310
      6  C         19.8390  -22.3030  -10.3130 C.2     1  UNL1        0.0190
      7  N         23.3370  -23.3780  -11.0220 N.pl3   1  UNL1       -0.2810
      8  H         23.3270  -23.7620  -11.9660 H       1  UNL1        0.1790
      9  S         24.5910  -22.2710  -10.7960 S.O2    1  UNL1        0.2630
     10  O         24.1390  -21.1930   -9.9450 O.2     1  UNL1       -0.2000
     11  O         25.7610  -23.0550  -10.4600 O.2     1  UNL1       -0.2000
     12  C         24.8460  -21.6150  -12.4320 C.2     1  UNL1        0.0800
     13  C         24.1480  -22.1630  -13.5160 C.2     1  UNL1        0.0280
     14  C         24.3420  -21.6380  -14.7920 C.2     1  UNL1        0.0400
     15  C         25.2190  -20.5670  -14.9590 C.2     1  UNL1        0.0890
     16  O         25.3820  -20.0680  -16.2660 O.3     1  UNL1       -0.2750
     17  C         25.9050  -20.0020  -13.8840 C.2     1  UNL1       -0.0010
     18  C         26.2260  -18.9970  -16.5260 C.2     1  UNL1        0.2880
     19  O         26.3840  -18.5430  -17.6540 O.2     1  UNL1       -0.2600
     20  C         26.9360  -18.4120  -15.3740 C.2     1  UNL1        0.0830
     21  C         26.7920  -18.8770  -14.1300 C.2     1  UNL1        0.0200
     22  C         25.7150  -20.5290  -12.6060 C.2     1  UNL1        0.0390
     23  C         18.3530  -22.7340   -8.3120 C.2     1  UNL1        0.2560
     24  O         17.3950  -22.2740   -8.9180 O.2     1  UNL1       -0.2670
     25  N         18.3700  -23.1940   -7.0080 N.am    1  UNL1       -0.3230
     26  H         19.2060  -23.6710   -6.6960 H       1  UNL1        0.1690
     27  C         17.3080  -23.1580   -6.0780 C.2     1  UNL1        0.0370
     28  C         17.4700  -22.3340   -4.9540 C.2     1  UNL1        0.0290
     29  C         16.4670  -22.2330   -3.9860 C.2     1  UNL1        0.0050
     30  C         15.2890  -22.9580   -4.1340 C.2     1  UNL1        0.0420
     31  C         15.1270  -23.7710   -5.2500 C.2     1  UNL1        0.1180
     32  F         13.9890  -24.4650   -5.3920 F       1  UNL1       -0.2060
     33  C         16.1210  -23.8780   -6.2200 C.2     1  UNL1        0.0710
@<TRIPOS>BOND
     1    19    18    2
     2    18    16    1
     3    18    20    1
     4    16    15    1
     5    20    21    2
     6    15    14    2
     7    15    17    1
     8    14    13    1
     9    21    17    1
    10    17    22    2
    11    13    12    2
    12    22    12    1
    13    12     9    1
    14     8     7    1
    15     7     9    1
    16     7     4    1
    17     5     4    2
    18     5     6    1
    19     9    11    2
    20     9    10    2
    21     4     3    1
    22     6     1    2
    23     3     2    2
    24     1     2    1
    25     1    23    1
    26    24    23    2
    27    23    25   am
    28    25    26    1
    29    25    27    1
    30    33    27    2
    31    33    31    1
    32    27    28    1
    33    32    31    1
    34    31    30    2
    35    28    29    2
    36    30    29    1
