@<TRIPOS>MOLECULE
40305_out_ligand_01.pdbqt
 36 39 0 0 0
SMALL
GASTEIGER

@<TRIPOS>ATOM
      1  C         18.6170  -22.3900  -10.4120 C.2     1  UNL1        0.0320
      2  C         19.6060  -23.2920  -10.0030 C.2     1  UNL1        0.0190
      3  C         20.9380  -23.1210  -10.4030 C.2     1  UNL1        0.0300
      4  C         21.3000  -22.0420  -11.2100 C.2     1  UNL1        0.0360
      5  C         20.3090  -21.1380  -11.6180 C.2     1  UNL1        0.0300
      6  C         18.9770  -21.3030  -11.2160 C.2     1  UNL1        0.0190
      7  C         17.2210  -22.6020   -9.9320 C.2     1  UNL1        0.2510
      8  N         17.0260  -23.6270   -9.0260 N.am    1  UNL1       -0.3570
      9  H         17.8240  -24.0170   -8.5470 H       1  UNL1        0.1620
     10  O         16.3160  -21.8740  -10.3280 O.2     1  UNL1       -0.2680
     11  C         15.7180  -23.8870   -8.4480 C.3     1  UNL1        0.1240
     12  C         15.8240  -24.4330   -7.0240 C.3     1  UNL1        0.0500
     13  C         17.1660  -24.0910   -6.3620 C.3     1  UNL1        0.2740
     14  N         17.1890  -22.8070   -5.6350 N.3     1  UNL1        0.0930
     15  C         15.8220  -22.3260   -5.3550 C.3     1  UNL1        0.2730
     16  C         15.2970  -22.5460   -3.9310 C.3     1  UNL1        0.0300
     17  C         15.9340  -23.7460   -3.2530 C.3     1  UNL1        0.0040
     18  C         17.4620  -23.6830   -3.2890 C.3     1  UNL1        0.0360
     19  C         18.0430  -22.8190   -4.4320 C.3     1  UNL1        0.2220
     20  C         18.3890  -21.3870   -3.9490 C.3     1  UNL1        0.0310
     21  C         18.9850  -20.5130   -5.0480 C.3     1  UNL1        0.0070
     22  N         22.6120  -21.8020  -11.6570 N.am    1  UNL1       -0.3090
     23  C         23.7270  -21.4640  -10.9060 C.2     1  UNL1        0.3270
     24  O         23.7120  -21.2110   -9.7050 O.2     1  UNL1       -0.2460
     25  N         24.9030  -21.3500  -11.6880 N.am    1  UNL1       -0.2990
     26  C         26.0630  -20.7800  -10.9940 C.3     1  UNL1        0.1340
     27  C         25.1700  -22.2260  -12.7870 C.2     1  UNL1        0.0450
     28  C         27.1180  -20.1120  -11.8710 C.3     1  UNL1        0.0210
     29  C         26.4780  -19.4100  -13.0580 C.3     1  UNL1        0.0060
     30  C         26.2710  -20.3640  -14.2330 C.3     1  UNL1        0.0410
     31  C         25.8170  -21.7830  -13.9550 C.2     1  UNL1       -0.0310
     32  C         26.0150  -22.7060  -15.0060 C.2     1  UNL1        0.0090
     33  C         25.6050  -24.0350  -14.9010 C.2     1  UNL1        0.0010
     34  C         24.9830  -24.4710  -13.7410 C.2     1  UNL1        0.0020
     35  C         24.7660  -23.5740  -12.6950 C.2     1  UNL1        0.0300
     36  H         22.7570  -21.7740  -12.6580 H       1  UNL1        0.1700
@<TRIPOS>BOND
     1    32    33    2
     2    32    31    1
     3    33    34    1
     4    30    31    1
     5    30    29    1
     6    31    27    2
     7    34    35    2
     8    29    28    1
     9    27    35    1
    10    27    25    1
    11    36    22    1
    12    28    26    1
    13    25    26    1
    14    25    23   am
    15    22     4    1
    16    22    23   am
    17     5     6    1
    18     5     4    2
    19     6     1    2
    20     4     3    1
    21    23    24    2
    22     1     2    1
    23     1     7    1
    24     3     2    2
    25    10     7    2
    26     7     8   am
    27     8     9    1
    28     8    11    1
    29    11    12    1
    30    12    13    1
    31    13    14    1
    32    14    15    1
    33    14    19    1
    34    15    16    1
    35    21    20    1
    36    19    20    1
    37    19    18    1
    38    16    17    1
    39    18    17    1
