@<TRIPOS>MOLECULE
40314_out_ligand_01.pdbqt
 37 41 0 0 0
SMALL
GASTEIGER

@<TRIPOS>ATOM
      1  C         20.7920  -22.5090   -7.6390 C.3     1  UNL1        0.1210
      2  C         21.9730  -22.5370   -8.5820 C.2     1  UNL1       -0.0480
      3  C         22.4450  -23.7550   -9.0950 C.2     1  UNL1        0.0090
      4  C         23.5470  -23.7850   -9.9550 C.2     1  UNL1        0.0170
      5  C         24.1870  -22.5930  -10.3170 C.2     1  UNL1        0.0320
      6  C         23.7370  -21.3790   -9.7880 C.2     1  UNL1        0.0170
      7  C         22.6350  -21.3510   -8.9300 C.2     1  UNL1        0.0090
      8  C         25.3610  -22.5780  -11.2340 C.2     1  UNL1        0.2520
      9  N         25.0750  -22.6340  -12.5840 N.am    1  UNL1       -0.3520
     10  H         24.1210  -22.4670  -12.8680 H       1  UNL1        0.1630
     11  O         26.4960  -22.4900  -10.7820 O.2     1  UNL1       -0.2680
     12  C         26.1190  -22.5060  -13.5950 C.3     1  UNL1        0.0880
     13  C         26.3830  -21.0370  -13.9420 C.3     1  UNL1        0.0250
     14  C         25.2080  -20.3560  -14.6450 C.3     1  UNL1        0.0020
     15  C         24.2370  -21.3170  -15.3280 C.3     1  UNL1        0.0050
     16  C         24.8960  -22.5780  -15.9010 C.3     1  UNL1       -0.0130
     17  C         25.8190  -23.3100  -14.8840 C.3     1  UNL1        0.0080
     18  C         25.6690  -22.2370  -17.1820 C.3     1  UNL1        0.0100
     19  C         25.2970  -24.7200  -14.5790 C.3     1  UNL1        0.0120
     20  S         19.7220  -23.9620   -7.8380 S.3     1  UNL1       -0.0870
     21  C         18.2890  -23.4390   -7.0170 C.ar    1  UNL1        0.1700
     22  N         18.2280  -23.1420   -5.7400 N.ar    1  UNL1       -0.2220
     23  C         16.9230  -22.7850   -5.5130 C.ar    1  UNL1        0.0890
     24  C         16.3100  -22.3860   -4.3260 C.2     1  UNL1        0.0530
     25  C         16.1750  -22.8660   -6.6820 C.ar    1  UNL1        0.0830
     26  C         14.9590  -22.0970   -4.4140 C.2     1  UNL1        0.1180
     27  N         14.2240  -22.1790   -5.5490 N.2     1  UNL1       -0.2710
     28  C         14.8200  -22.5640   -6.7000 C.2     1  UNL1        0.1480
     29  N         17.0780  -23.2700   -7.6440 N.ar    1  UNL1       -0.3190
     30  C         16.7600  -23.5420   -9.0380 C.3     1  UNL1        0.1700
     31  C         17.4450  -22.5880   -9.9890 C.2     1  UNL1       -0.0370
     32  C         16.7780  -21.4320  -10.4290 C.2     1  UNL1        0.0090
     33  C         17.4020  -20.5290  -11.2950 C.2     1  UNL1        0.0040
     34  C         18.7040  -20.7670  -11.7270 C.2     1  UNL1        0.0420
     35  C         19.3690  -21.9060  -11.2910 C.2     1  UNL1        0.1170
     36  F         20.6240  -22.1330  -11.7020 F       1  UNL1       -0.2060
     37  C         18.7580  -22.8130  -10.4310 C.2     1  UNL1        0.0510
@<TRIPOS>BOND
     1    18    16    1
     2    16    15    1
     3    16    17    1
     4    15    14    1
     5    17    19    1
     6    17    12    1
     7    14    13    1
     8    13    12    1
     9    12     9    1
    10    10     9    1
    11     9     8   am
    12    34    33    1
    13    34    35    2
    14    36    35    1
    15    33    32    2
    16    35    37    1
    17     8    11    2
    18     8     5    1
    19    37    31    2
    20    32    31    1
    21     5     4    2
    22     5     6    1
    23    31    30    1
    24     4     3    1
    25     6     7    2
    26     3     2    2
    27    30    29    1
    28     7     2    1
    29     2     1    1
    30    20     1    1
    31    20    21    1
    32    29    21   ar
    33    29    25   ar
    34    21    22   ar
    35    28    25    1
    36    28    27    2
    37    25    23   ar
    38    22    23   ar
    39    27    26    1
    40    23    24    1
    41    26    24    2
