@<TRIPOS>MOLECULE
40335_out_ligand_01.pdbqt
 35 39 0 0 0
SMALL
GASTEIGER

@<TRIPOS>ATOM
      1  S         16.5200  -23.2680   -9.6890 S.3     1  UNL1       -0.0870
      2  C         17.0720  -21.5750  -10.0510 C.3     1  UNL1        0.1210
      3  C         18.3720  -21.5090  -10.8120 C.2     1  UNL1       -0.0480
      4  C         19.1700  -22.6530  -10.9520 C.2     1  UNL1        0.0090
      5  C         20.3730  -22.5970  -11.6590 C.2     1  UNL1        0.0170
      6  C         20.7970  -21.3970  -12.2400 C.2     1  UNL1        0.0320
      7  C         20.0190  -20.2440  -12.0840 C.2     1  UNL1        0.0170
      8  C         18.8120  -20.3020  -11.3770 C.2     1  UNL1        0.0090
      9  C         22.0830  -21.3950  -12.9920 C.2     1  UNL1        0.2520
     10  O         22.2160  -20.6920  -13.9880 O.2     1  UNL1       -0.2680
     11  N         23.0990  -22.1760  -12.4720 N.am    1  UNL1       -0.3520
     12  H         22.9940  -22.5200  -11.5270 H       1  UNL1        0.1630
     13  C         24.4490  -22.1340  -13.0280 C.3     1  UNL1        0.0840
     14  C         25.3060  -21.0900  -12.3050 C.3     1  UNL1        0.0250
     15  C         25.5540  -21.4410  -10.8340 C.3     1  UNL1        0.0020
     16  C         25.6450  -22.9450  -10.5670 C.3     1  UNL1        0.0000
     17  C         26.0670  -23.7230  -11.8040 C.3     1  UNL1        0.0020
     18  C         25.1010  -23.5260  -12.9770 C.3     1  UNL1        0.0250
     19  C         16.4130  -23.1950   -7.9620 C.ar    1  UNL1        0.1710
     20  N         15.5100  -22.4970   -7.3090 N.ar    1  UNL1       -0.2210
     21  C         15.7820  -22.7190   -5.9860 C.ar    1  UNL1        0.1050
     22  C         15.1640  -22.2390   -4.8260 C.2     1  UNL1        0.0370
     23  C         16.8700  -23.5710   -5.8380 C.ar    1  UNL1        0.1610
     24  C         15.6940  -22.6580   -3.6030 C.2     1  UNL1        0.0220
     25  C         16.7910  -23.5150   -3.5950 C.2     1  UNL1        0.1190
     26  N         17.4270  -24.0040   -4.6890 N.2     1  UNL1       -0.2410
     27  N         17.2640  -23.8660   -7.1200 N.ar    1  UNL1       -0.3040
     28  C         18.3670  -24.7460   -7.4590 C.3     1  UNL1        0.1710
     29  C         19.6260  -23.9750   -7.7890 C.2     1  UNL1       -0.0400
     30  C         20.6400  -24.5690   -8.5580 C.2     1  UNL1        0.0120
     31  C         21.8020  -23.8580   -8.8680 C.2     1  UNL1        0.0430
     32  C         21.9540  -22.5570   -8.4060 C.2     1  UNL1        0.1160
     33  F         23.0680  -21.8760   -8.7070 F       1  UNL1       -0.2060
     34  C         20.9690  -21.9530   -7.6340 C.2     1  UNL1        0.0430
     35  C         19.8080  -22.6620   -7.3200 C.2     1  UNL1        0.0120
@<TRIPOS>BOND
     1    10     9    2
     2    13    18    1
     3    13    11    1
     4    13    14    1
     5     9    11   am
     6     9     6    1
     7    18    17    1
     8    11    12    1
     9    14    15    1
    10     6     7    2
    11     6     5    1
    12     7     8    1
    13    17    16    1
    14     5     4    2
    15     8     3    2
    16     4     3    1
    17    15    16    1
    18     3     2    1
    19     2     1    1
    20     1    19    1
    21    31    30    1
    22    31    32    2
    23    33    32    1
    24    30    29    2
    25    32    34    1
    26    19    20   ar
    27    19    27   ar
    28    29    28    1
    29    29    35    1
    30    34    35    2
    31    28    27    1
    32    20    21   ar
    33    27    23   ar
    34    21    23   ar
    35    21    22    1
    36    23    26    1
    37    22    24    2
    38    26    25    2
    39    24    25    1
