@<TRIPOS>MOLECULE
40341_out_ligand_01.pdbqt
 35 38 0 0 0
SMALL
GASTEIGER

@<TRIPOS>ATOM
      1  C         22.0730  -22.4110  -11.2620 C.2     1  UNL1        0.0800
      2  C         20.9030  -21.8220  -11.7440 C.2     1  UNL1        0.0270
      3  C         19.6910  -22.0820  -11.1020 C.2     1  UNL1        0.0310
      4  C         19.6320  -22.9310   -9.9890 C.2     1  UNL1        0.0340
      5  C         20.8120  -23.5140   -9.5190 C.2     1  UNL1        0.0310
      6  C         22.0320  -23.2630  -10.1570 C.2     1  UNL1        0.0270
      7  N         18.3630  -23.1410   -9.4150 N.am    1  UNL1       -0.3270
      8  C         17.1860  -22.4670   -9.6750 C.2     1  UNL1        0.2310
      9  O         17.0470  -21.5520  -10.4850 O.2     1  UNL1       -0.2720
     10  H         18.3340  -23.7860   -8.6260 H       1  UNL1        0.1690
     11  C         15.9640  -23.0070   -8.9420 C.3     1  UNL1        0.1820
     12  S         16.2930  -24.4130   -7.8330 S.3     1  UNL1       -0.1180
     13  C         16.1950  -23.5770   -6.2370 C.2     1  UNL1        0.0300
     14  C         15.0790  -23.8340   -5.4240 C.2     1  UNL1        0.0210
     15  C         14.9540  -23.2050   -4.1910 C.2     1  UNL1        0.0020
     16  C         15.9440  -22.3290   -3.7650 C.2     1  UNL1        0.0140
     17  C         17.0720  -22.0790   -4.5650 C.2     1  UNL1       -0.0060
     18  C         18.0700  -21.1970   -4.1320 C.2     1  UNL1        0.0150
     19  C         17.2210  -22.7060   -5.8230 C.2     1  UNL1        0.0830
     20  C         19.1800  -20.9580   -4.9280 C.2     1  UNL1        0.0200
     21  C         19.2530  -21.6100   -6.1410 C.2     1  UNL1        0.1170
     22  N         18.3100  -22.4620   -6.5990 N.2     1  UNL1       -0.2590
     23  S         23.6070  -22.1140  -12.1070 S.O2    1  UNL1        0.2760
     24  O         24.0710  -23.4090  -12.5690 O.2     1  UNL1       -0.2000
     25  O         24.4650  -21.2940  -11.2790 O.2     1  UNL1       -0.2000
     26  N         23.1600  -21.2810  -13.4720 N.pl3   1  UNL1       -0.1090
     27  H         22.3300  -21.6460  -13.9210 H       1  UNL1        0.1980
     28  C         24.1630  -20.9430  -14.3700 C.cat   1  UNL1        0.7360
     29  N         24.9270  -19.8810  -14.1190 N.2     1  UNL1       -0.0670
     30  C         25.7760  -19.5140  -15.0970 C.2     1  UNL1        0.0510
     31  C         25.8240  -20.1700  -16.3130 C.2     1  UNL1        0.0540
     32  C         26.6780  -18.3490  -14.8270 C.3     1  UNL1        0.0710
     33  C         24.9460  -21.2250  -16.4860 C.2     1  UNL1        0.0510
     34  C         24.9130  -21.9740  -17.7840 C.3     1  UNL1        0.0710
     35  N         24.0860  -21.6110  -15.5240 N.2     1  UNL1       -0.0670
@<TRIPOS>BOND
     1    34    33    1
     2    33    31    1
     3    33    35    2
     4    31    30    2
     5    35    28    1
     6    30    32    1
     7    30    29    1
     8    28    29    2
     9    28    26    1
    10    27    26    1
    11    26    23    1
    12    24    23    2
    13    23    25    2
    14    23     1    1
    15     2     1    2
    16     2     3    1
    17     1     6    1
    18     3     4    2
    19     9     8    2
    20     6     5    2
    21     4     5    1
    22     4     7    1
    23     8     7   am
    24     8    11    1
    25     7    10    1
    26    11    12    1
    27    12    13    1
    28    22    21    2
    29    22    19    1
    30    13    19    2
    31    13    14    1
    32    21    20    1
    33    19    17    1
    34    14    15    2
    35    20    18    2
    36    17    18    1
    37    17    16    2
    38    15    16    1
