@<TRIPOS>MOLECULE
40369_out_ligand_01.pdbqt
 27 30 0 0 0
SMALL
GASTEIGER

@<TRIPOS>ATOM
      1  C         22.7900  -22.8420   -8.9370 C.2     1  UNL1        0.0340
      2  C         21.9760  -23.9430   -9.2230 C.2     1  UNL1        0.0300
      3  C         20.7110  -24.0720   -8.6340 C.2     1  UNL1        0.0160
      4  C         20.2320  -23.1010   -7.7480 C.2     1  UNL1       -0.0090
      5  C         21.0460  -21.9950   -7.4740 C.2     1  UNL1        0.0160
      6  C         22.3120  -21.8660   -8.0630 C.2     1  UNL1        0.0300
      7  C         18.9130  -23.2460   -7.1290 C.2     1  UNL1        0.0430
      8  C         17.8550  -24.0850   -7.4430 C.2     1  UNL1        0.0440
      9  C         16.7940  -23.8390   -6.5310 C.2     1  UNL1       -0.0040
     10  C         15.5000  -24.3680   -6.3700 C.2     1  UNL1        0.0560
     11  C         17.2310  -22.8480   -5.6540 C.2     1  UNL1        0.0430
     12  C         14.7030  -23.8760   -5.3370 C.2     1  UNL1        0.1170
     13  F         13.4660  -24.3700   -5.1760 F       1  UNL1       -0.2060
     14  C         15.1550  -22.8870   -4.4700 C.2     1  UNL1        0.0440
     15  C         16.4380  -22.3500   -4.6130 C.2     1  UNL1        0.0330
     16  N         18.5120  -22.5150   -6.0320 N.pl3   1  UNL1       -0.3550
     17  H         19.0850  -21.8330   -5.5550 H       1  UNL1        0.1660
     18  N         24.0480  -22.7900   -9.5670 N.am    1  UNL1       -0.3270
     19  C         24.3170  -22.8500  -10.9260 C.2     1  UNL1        0.2260
     20  O         23.4920  -22.9590  -11.8290 O.2     1  UNL1       -0.2730
     21  H         24.8400  -22.6070   -8.9620 H       1  UNL1        0.1690
     22  C         25.8060  -22.8020  -11.2410 C.3     1  UNL1        0.1490
     23  C         26.1790  -21.4570  -11.7910 C.2     1  UNL1       -0.0090
     24  C         26.4590  -20.2990  -11.0940 C.2     1  UNL1        0.0150
     25  C         26.7780  -19.2110  -11.9570 C.2     1  UNL1        0.0080
     26  C         26.7290  -19.5740  -13.2850 C.2     1  UNL1        0.0500
     27  S         26.2980  -21.2170  -13.4840 S.3     1  UNL1       -0.1060
@<TRIPOS>BOND
     1    27    26    1
     2    27    23    1
     3    26    25    2
     4    25    24    1
     5    20    19    2
     6    23    22    1
     7    23    24    2
     8    22    19    1
     9    19    18   am
    10    18    21    1
    11    18     1    1
    12     2     1    2
    13     2     3    1
    14     1     6    1
    15     3     4    2
    16     6     5    2
    17     4     5    1
    18     4     7    1
    19     8     7    2
    20     8     9    1
    21     7    16    1
    22     9    10    2
    23     9    11    1
    24    10    12    1
    25    16    11    1
    26    16    17    1
    27    11    15    2
    28    12    13    1
    29    12    14    2
    30    15    14    1
