@<TRIPOS>MOLECULE
40360_out_ligand_01.pdbqt
 41 47 0 0 0
SMALL
GASTEIGER

@<TRIPOS>ATOM
      1  C         20.6330  -22.4000  -10.3690 C.2     1  UNL1        0.0350
      2  C         19.6620  -21.6460  -11.0340 C.2     1  UNL1        0.0310
      3  C         18.3070  -21.7950  -10.7190 C.2     1  UNL1        0.0270
      4  C         17.9180  -22.7290   -9.7570 C.2     1  UNL1        0.0790
      5  C         18.8770  -23.4830   -9.0800 C.2     1  UNL1        0.0270
      6  C         20.2310  -23.3140   -9.3860 C.2     1  UNL1        0.0310
      7  N         22.0140  -22.2790  -10.6040 N.am    1  UNL1       -0.3210
      8  C         23.0080  -21.8920   -9.7200 C.2     1  UNL1        0.2790
      9  O         22.8270  -21.5020   -8.5720 O.2     1  UNL1       -0.2650
     10  H         22.3510  -22.5260  -11.5300 H       1  UNL1        0.1690
     11  C         24.3350  -21.9910  -10.3010 C.2     1  UNL1        0.1430
     12  C         25.1970  -23.0610  -10.4330 C.2     1  UNL1        0.0450
     13  C         26.3300  -22.5910  -11.1420 C.2     1  UNL1        0.0380
     14  C         26.0960  -21.2580  -11.4050 C.2     1  UNL1        0.0780
     15  O         24.8990  -20.8790  -10.8690 O.2     1  UNL1       -0.3070
     16  C         26.8440  -20.2140  -12.1550 C.3     1  UNL1        0.2400
     17  O         25.8700  -19.5270  -12.9350 O.2     1  UNL1       -0.3450
     18  C         25.7580  -19.8650  -14.2530 C.2     1  UNL1        0.0690
     19  C         26.2590  -19.1280  -15.3400 C.2     1  UNL1        0.0370
     20  C         26.0770  -19.5810  -16.6530 C.2     1  UNL1        0.0100
     21  C         25.4100  -20.7770  -16.8550 C.2     1  UNL1       -0.0520
     22  C         24.9190  -21.5160  -15.7770 C.2     1  UNL1       -0.0490
     23  C         25.0650  -21.4420  -18.1520 C.3     1  UNL1        0.0390
     24  C         25.0810  -21.0690  -14.4770 C.2     1  UNL1        0.0440
     25  C         24.2040  -22.7420  -16.2480 C.3     1  UNL1        0.0390
     26  C         24.7480  -22.8680  -17.6790 C.3     1  UNL1        0.0090
     27  S         16.2090  -22.8920   -9.3070 S.O2    1  UNL1        0.2590
     28  O         15.4440  -22.1650  -10.2990 O.2     1  UNL1       -0.2010
     29  O         15.9300  -24.2790   -9.0130 O.2     1  UNL1       -0.2010
     30  N         16.0940  -21.9810   -7.9040 N.3     1  UNL1       -0.3050
     31  H         15.4650  -21.1890   -8.0380 H       1  UNL1        0.1730
     32  C         16.1940  -22.5210   -6.5330 C.3     1  UNL1        0.0410
     33  C         17.4880  -21.9270   -5.9120 C.3     1  UNL1        0.0360
     34  C         17.6640  -22.3970   -4.4580 C.3     1  UNL1       -0.0120
     35  C         16.4500  -21.9480   -3.6300 C.3     1  UNL1        0.0090
     36  C         17.7540  -23.9310   -4.4360 C.3     1  UNL1        0.0090
     37  C         15.1620  -22.5430   -4.2220 C.3     1  UNL1       -0.0120
     38  C         15.2610  -24.0790   -4.2080 C.3     1  UNL1        0.0090
     39  C         14.9980  -22.0580   -5.6740 C.3     1  UNL1        0.0360
     40  C         16.4760  -24.5390   -5.0330 C.3     1  UNL1       -0.0120
     41  C         16.3110  -24.0560   -6.4860 C.3     1  UNL1        0.0360
@<TRIPOS>BOND
     1    23    26    1
     2    23    21    1
     3    26    25    1
     4    21    20    2
     5    21    22    1
     6    20    19    1
     7    25    22    1
     8    22    24    2
     9    19    18    2
    10    24    18    1
    11    18    17    1
    12    17    16    1
    13    16    14    1
    14    10     7    1
    15    14    13    2
    16    14    15    1
    17    13    12    1
    18     2     3    1
    19     2     1    2
    20    15    11    1
    21     3     4    2
    22     7     1    1
    23     7     8   am
    24    12    11    2
    25     1     6    1
    26    11     8    1
    27    28    27    2
    28     4    27    1
    29     4     5    1
    30     8     9    2
    31     6     5    2
    32    27    29    2
    33    27    30    1
    34    31    30    1
    35    30    32    1
    36    32    41    1
    37    32    33    1
    38    32    39    1
    39    41    40    1
    40    33    34    1
    41    39    37    1
    42    40    36    1
    43    40    38    1
    44    34    36    1
    45    34    35    1
    46    37    38    1
    47    37    35    1
