@<TRIPOS>MOLECULE
40372_out_ligand_01.pdbqt
 33 37 0 0 0
SMALL
GASTEIGER

@<TRIPOS>ATOM
      1  C         18.8130  -22.0470  -10.2920 C.2     1  UNL1        0.0340
      2  C         19.1130  -21.6290  -11.5940 C.2     1  UNL1        0.0190
      3  C         20.4410  -21.6060  -12.0480 C.2     1  UNL1        0.0270
      4  C         21.5010  -22.0080  -11.2220 C.2     1  UNL1        0.0440
      5  C         21.1610  -22.4310   -9.9250 C.2     1  UNL1        0.1250
      6  C         19.8460  -22.4660   -9.4500 C.2     1  UNL1        0.0550
      7  N         22.8330  -21.9780  -11.6600 N.pl3   1  UNL1       -0.2800
      8  C         23.5270  -23.2740  -11.7070 C.3     1  UNL1        0.1020
      9  C         25.0420  -23.0680  -11.9250 C.3     1  UNL1        0.0180
     10  C         25.4090  -21.6000  -12.1510 C.3     1  UNL1        0.0190
     11  C         25.5070  -23.8530  -13.1540 C.3     1  UNL1        0.1380
     12  C         24.5200  -21.0970  -13.2880 C.3     1  UNL1        0.0500
     13  C         23.0310  -21.1240  -12.8540 C.3     1  UNL1        0.1060
     14  C         24.7270  -21.9320  -14.5480 C.2     1  UNL1        0.0200
     15  C         24.5290  -21.3910  -15.7650 C.2     1  UNL1        0.0260
     16  N         25.1180  -23.2720  -14.4410 N.am    1  UNL1       -0.3170
     17  C         24.6940  -22.1740  -16.9600 C.2     1  UNL1        0.0070
     18  C         25.0640  -23.4550  -16.8870 C.2     1  UNL1        0.0740
     19  C         25.3270  -24.0800  -15.5650 C.2     1  UNL1        0.2470
     20  O         25.7070  -25.2480  -15.5220 O.2     1  UNL1       -0.2680
     21  N         22.2030  -22.8740   -9.0240 N.pl3   1  UNL1       -0.1140
     22  O         22.8280  -21.9940   -8.4140 O.2     1  UNL1       -0.5320
     23  O         22.3500  -24.0960   -8.8890 O.2     1  UNL1       -0.5320
     24  C         17.4190  -22.0900   -9.7720 C.2     1  UNL1        0.2520
     25  O         16.5120  -21.5870  -10.4250 O.2     1  UNL1       -0.2680
     26  N         17.2290  -22.7430   -8.5740 N.am    1  UNL1       -0.3520
     27  H         17.9600  -23.3420   -8.2170 H       1  UNL1        0.1630
     28  C         15.9000  -22.9860   -8.0570 C.3     1  UNL1        0.1690
     29  C         15.9100  -22.7040   -6.5880 C.2     1  UNL1        0.0000
     30  C         14.8270  -22.5350   -5.7470 C.2     1  UNL1        0.0170
     31  C         15.2190  -22.2830   -4.4020 C.2     1  UNL1        0.0080
     32  C         16.5890  -22.2700   -4.2580 C.2     1  UNL1        0.0500
     33  S         17.3920  -22.5630   -5.7390 S.3     1  UNL1       -0.1050
@<TRIPOS>BOND
     1    17    18    2
     2    17    15    1
     3    18    19    1
     4    15    14    2
     5    19    20    2
     6    19    16   am
     7    14    16    1
     8    14    12    1
     9    16    11    1
    10    12    13    1
    11    12    10    1
    12    11     9    1
    13    13     7    1
    14    10     9    1
    15     3     2    1
    16     3     4    2
    17     9     8    1
    18     8     7    1
    19     7     4    1
    20     2     1    2
    21     4     5    1
    22    25    24    2
    23     1    24    1
    24     1     6    1
    25     5     6    2
    26     5    21    1
    27    24    26   am
    28    21    23    2
    29    21    22    2
    30    26    27    1
    31    26    28    1
    32    28    29    1
    33    29    30    2
    34    29    33    1
    35    30    31    1
    36    33    32    1
    37    31    32    2
