@<TRIPOS>MOLECULE
40371_out_ligand_01.pdbqt
 36 40 0 0 0
SMALL
GASTEIGER

@<TRIPOS>ATOM
      1  C         22.8890  -22.7300  -10.4070 C.2     1  UNL1        0.0540
      2  C         21.5560  -22.6200  -10.2470 C.2     1  UNL1        0.1450
      3  O         20.7990  -21.8310  -11.0900 O.2     1  UNL1       -0.3030
      4  C         19.4520  -21.7520  -10.8770 C.2     1  UNL1        0.1030
      5  C         18.7540  -20.9090  -11.7500 C.2     1  UNL1        0.0390
      6  C         17.3780  -20.7560  -11.6220 C.2     1  UNL1        0.0030
      7  C         16.7030  -21.4460  -10.6200 C.2     1  UNL1        0.0020
      8  C         17.4060  -22.2870   -9.7480 C.2     1  UNL1        0.0330
      9  C         18.7940  -22.4530   -9.8640 C.2     1  UNL1        0.0710
     10  N         19.5500  -23.2960   -9.0000 N.am    1  UNL1       -0.3050
     11  C         20.9250  -23.4190   -9.1430 C.2     1  UNL1        0.2820
     12  O         21.6120  -24.1530   -8.4290 O.2     1  UNL1       -0.2650
     13  C         23.6870  -22.0720  -11.4530 C.2     1  UNL1       -0.0330
     14  C         23.2000  -22.0700  -12.7650 C.2     1  UNL1        0.0120
     15  C         23.9280  -21.4660  -13.7950 C.2     1  UNL1        0.0180
     16  C         25.1570  -20.8540  -13.5230 C.2     1  UNL1        0.0320
     17  C         25.6680  -20.8850  -12.2210 C.2     1  UNL1        0.0180
     18  C         24.9390  -21.4960  -11.1950 C.2     1  UNL1        0.0120
     19  C         25.8890  -20.2030  -14.6430 C.2     1  UNL1        0.2510
     20  O         27.0810  -19.9370  -14.5340 O.2     1  UNL1       -0.2680
     21  N         25.1630  -19.9780  -15.7930 N.am    1  UNL1       -0.3540
     22  H         24.3050  -20.5000  -15.9280 H       1  UNL1        0.1620
     23  C         25.8340  -19.5730  -17.0170 C.3     1  UNL1        0.1550
     24  C         25.5870  -20.5880  -18.1410 C.3     1  UNL1        0.1390
     25  C         26.6080  -21.7130  -18.1530 C.3     1  UNL1        0.0350
     26  C         25.9790  -22.7380  -17.2410 C.3     1  UNL1        0.0290
     27  C         24.5070  -22.5790  -17.5480 C.3     1  UNL1        0.1680
     28  O         24.3000  -21.2100  -17.9290 O.3     1  UNL1       -0.3840
     29  C         18.9000  -24.0820   -7.9480 C.3     1  UNL1        0.1740
     30  C         18.6060  -23.2930   -6.6930 C.2     1  UNL1       -0.0010
     31  C         19.2000  -22.0440   -6.4560 C.2     1  UNL1        0.0120
     32  C         18.8980  -21.3210   -5.2980 C.2     1  UNL1        0.0010
     33  C         17.9940  -21.8320   -4.3670 C.2     1  UNL1        0.0030
     34  C         17.3880  -23.0650   -4.5970 C.2     1  UNL1        0.0430
     35  C         17.6910  -23.7790   -5.7530 C.2     1  UNL1        0.1240
     36  F         17.0860  -24.9590   -5.9570 F       1  UNL1       -0.2050
@<TRIPOS>BOND
     1    25    24    1
     2    25    26    1
     3    24    28    1
     4    24    23    1
     5    28    27    1
     6    27    26    1
     7    23    21    1
     8    22    21    1
     9    21    19   am
    10    19    20    2
    11    19    16    1
    12    15    16    2
    13    15    14    1
    14    16    17    1
    15    14    13    2
    16    17    18    2
    17     5     6    1
    18     5     4    2
    19     6     7    2
    20    13    18    1
    21    13     1    1
    22     3     4    1
    23     3     2    1
    24     4     9    1
    25     7     8    1
    26     1     2    2
    27     2    11    1
    28     9     8    2
    29     9    10    1
    30    11    10   am
    31    11    12    2
    32    10    29    1
    33    29    30    1
    34    30    31    2
    35    30    35    1
    36    31    32    1
    37    36    35    1
    38    35    34    2
    39    32    33    2
    40    34    33    1
