@<TRIPOS>MOLECULE
40384_out_ligand_01.pdbqt
 30 33 0 0 0
SMALL
GASTEIGER

@<TRIPOS>ATOM
      1  C         23.2220  -22.8410   -9.3360 C.2     1  UNL1       -0.0400
      2  C         22.9290  -21.7340   -8.5140 C.2     1  UNL1        0.0110
      3  C         21.7300  -21.6600   -7.7960 C.2     1  UNL1        0.0310
      4  C         20.8250  -22.6980   -7.9130 C.2     1  UNL1        0.0430
      5  C         21.1020  -23.7950   -8.7280 C.2     1  UNL1       -0.0290
      6  C         22.2880  -23.8830   -9.4450 C.2     1  UNL1        0.0180
      7  C         20.0030  -24.8060   -8.6740 C.2     1  UNL1        0.0610
      8  C         18.9640  -24.1060   -7.7900 C.2     1  UNL1        0.1370
      9  N         19.5640  -22.8490   -7.3060 N.am    1  UNL1       -0.3130
     10  C         19.0130  -21.9830   -6.3760 C.2     1  UNL1        0.2580
     11  O         19.5460  -20.9860   -5.8970 O.2     1  UNL1       -0.2670
     12  C         24.5150  -22.8850  -10.1130 C.3     1  UNL1        0.1620
     13  N         24.2750  -23.2330  -11.4980 N.am    1  UNL1       -0.3390
     14  C         24.8410  -22.4910  -12.5170 C.2     1  UNL1        0.3200
     15  O         25.6270  -21.5770  -12.3120 O.2     1  UNL1       -0.2470
     16  N         24.4120  -22.9530  -13.7440 N.am    1  UNL1       -0.3090
     17  H         23.9430  -23.8440  -13.7290 H       1  UNL1        0.1700
     18  H         23.3640  -23.6180  -11.6940 H       1  UNL1        0.1640
     19  C         24.7000  -22.4150  -15.0140 C.2     1  UNL1        0.0360
     20  C         24.6770  -21.0500  -15.3040 C.2     1  UNL1        0.0290
     21  C         24.9640  -20.5960  -16.5960 C.2     1  UNL1        0.0020
     22  C         25.2730  -21.5030  -17.6080 C.2     1  UNL1        0.0000
     23  C         25.2920  -22.8670  -17.3300 C.2     1  UNL1        0.0020
     24  C         25.0050  -23.3210  -16.0400 C.2     1  UNL1        0.0290
     25  C         17.6550  -22.3050   -5.8900 C.2     1  UNL1        0.0320
     26  C         16.5510  -22.1560   -6.7370 C.2     1  UNL1        0.0170
     27  C         15.2760  -22.4570   -6.2590 C.2     1  UNL1        0.0010
     28  C         15.1080  -22.8910   -4.9420 C.2     1  UNL1        0.0000
     29  C         16.2110  -23.0170   -4.0950 C.2     1  UNL1        0.0010
     30  C         17.4890  -22.7180   -4.5660 C.2     1  UNL1        0.0170
@<TRIPOS>BOND
     1    22    23    2
     2    22    21    1
     3    23    24    1
     4    21    20    2
     5    24    19    2
     6    20    19    1
     7    19    16    1
     8    16    17    1
     9    16    14   am
    10    14    15    2
    11    14    13   am
    12    18    13    1
    13    13    12    1
    14    12     1    1
    15     6     1    2
    16     6     5    1
    17     1     2    1
    18     5     7    1
    19     5     4    2
    20     7     8    2
    21     2     3    2
    22     4     3    1
    23     4     9    1
    24     8     9    1
    25     9    10   am
    26    26    27    1
    27    26    25    2
    28    10    11    2
    29    10    25    1
    30    27    28    2
    31    25    30    1
    32    28    29    1
    33    30    29    2
