@<TRIPOS>MOLECULE
40387_out_ligand_01.pdbqt
 30 33 0 0 0
SMALL
GASTEIGER

@<TRIPOS>ATOM
      1  C         22.7870  -22.5740  -11.7440 C.2     1  UNL1        0.0680
      2  C         21.7560  -21.7580  -12.1580 C.2     1  UNL1        0.0360
      3  C         20.6990  -21.9470  -11.2330 C.2     1  UNL1        0.0450
      4  C         21.1270  -22.8880  -10.3130 C.2     1  UNL1        0.1430
      5  O         22.4030  -23.2720  -10.6390 O.2     1  UNL1       -0.3080
      6  C         20.5140  -23.4980   -9.1460 C.2     1  UNL1        0.2760
      7  O         20.9810  -24.4760   -8.5650 O.2     1  UNL1       -0.2650
      8  N         19.3360  -22.9060   -8.7290 N.am    1  UNL1       -0.3470
      9  H         18.8880  -22.2330   -9.3320 H       1  UNL1        0.1630
     10  C         18.5310  -23.4760   -7.6600 C.3     1  UNL1        0.1180
     11  C         17.1430  -23.8550   -8.2200 C.3     1  UNL1        0.0300
     12  C         15.9910  -23.8820   -7.2090 C.3     1  UNL1        0.0070
     13  C         16.4480  -23.9050   -5.7580 C.3     1  UNL1        0.0390
     14  C         17.4210  -22.7810   -5.5130 C.2     1  UNL1       -0.0500
     15  C         17.3440  -22.0060   -4.3500 C.2     1  UNL1        0.0070
     16  C         18.4490  -22.5590   -6.4510 C.2     1  UNL1       -0.0290
     17  C         18.2870  -21.0080   -4.1110 C.2     1  UNL1        0.0010
     18  C         19.3200  -20.7950   -5.0200 C.2     1  UNL1        0.0010
     19  C         19.4100  -21.5750   -6.1750 C.2     1  UNL1        0.0100
     20  C         24.1500  -22.8740  -12.2440 C.3     1  UNL1        0.2100
     21  S         25.3310  -21.7480  -11.5150 S.O2    1  UNL1        0.1810
     22  O         24.6790  -20.9490  -10.4930 O.2     1  UNL1       -0.2220
     23  O         26.5470  -22.4760  -11.1940 O.2     1  UNL1       -0.2220
     24  C         25.7220  -20.6630  -12.8910 C.2     1  UNL1        0.0650
     25  C         25.2190  -21.0280  -14.1510 C.2     1  UNL1        0.0240
     26  C         25.4790  -20.2350  -15.2670 C.2     1  UNL1        0.0020
     27  C         26.2490  -19.0860  -15.1340 C.2     1  UNL1        0.0010
     28  C         26.7600  -18.7260  -13.8870 C.2     1  UNL1        0.0080
     29  C         26.5040  -19.5010  -12.7410 C.2     1  UNL1       -0.0410
     30  C         27.1210  -19.0610  -11.4430 C.3     1  UNL1        0.0490
@<TRIPOS>BOND
     1    26    27    2
     2    26    25    1
     3    27    28    1
     4    25    24    2
     5    28    29    2
     6    24    29    1
     7    24    21    1
     8    29    30    1
     9    20     1    1
    10    20    21    1
    11     2     1    2
    12     2     3    1
    13     1     5    1
    14    21    23    2
    15    21    22    2
    16     3     4    2
    17     5     4    1
    18     4     6    1
    19     9     8    1
    20     6     8   am
    21     6     7    2
    22     8    10    1
    23    11    10    1
    24    11    12    1
    25    10    16    1
    26    12    13    1
    27    16    19    1
    28    16    14    2
    29    19    18    2
    30    13    14    1
    31    14    15    1
    32    18    17    1
    33    15    17    2
