@<TRIPOS>MOLECULE
40394_out_ligand_01.pdbqt
 34 37 0 0 0
SMALL
GASTEIGER

@<TRIPOS>ATOM
      1  C         19.6230  -23.7240   -8.9530 C.2     1  UNL1        0.0290
      2  C         18.7100  -24.0290   -7.9730 C.2     1  UNL1        0.1110
      3  N         17.5650  -23.3210   -8.2400 N.pl3   1  UNL1       -0.3460
      4  C         17.7200  -22.5760   -9.3940 C.2     1  UNL1        0.0460
      5  C         16.8350  -21.7130  -10.0610 C.2     1  UNL1        0.0300
      6  C         17.2800  -21.0850  -11.2280 C.2     1  UNL1        0.0020
      7  C         18.5640  -21.3080  -11.7160 C.2     1  UNL1        0.0010
      8  C         19.4380  -22.1710  -11.0460 C.2     1  UNL1        0.0150
      9  C         19.0160  -22.8190   -9.8650 C.2     1  UNL1        0.0090
     10  S         21.2540  -24.3430   -9.0530 S.3     1  UNL1       -0.1180
     11  C         22.1810  -22.8570   -8.5530 C.3     1  UNL1        0.1820
     12  C         22.9250  -22.1940   -9.7070 C.2     1  UNL1        0.2310
     13  N         22.8550  -22.8910  -10.9010 N.am    1  UNL1       -0.3270
     14  H         22.4360  -23.8140  -10.8310 H       1  UNL1        0.1690
     15  O         23.4620  -21.1000   -9.5460 O.2     1  UNL1       -0.2720
     16  C         23.4120  -22.5460  -12.1450 C.2     1  UNL1        0.0340
     17  C         24.5910  -23.0930  -12.6530 C.2     1  UNL1        0.0300
     18  C         25.0730  -22.6980  -13.9070 C.2     1  UNL1        0.0190
     19  C         24.3850  -21.7440  -14.6650 C.2     1  UNL1        0.0320
     20  C         23.1970  -21.2000  -14.1650 C.2     1  UNL1        0.0190
     21  C         22.7200  -21.5980  -12.9100 C.2     1  UNL1        0.0300
     22  C         24.9350  -21.3640  -15.9930 C.2     1  UNL1        0.2490
     23  N         24.2490  -20.4290  -16.7180 N.am    1  UNL1       -0.3660
     24  H         23.5750  -19.8110  -16.2930 H       1  UNL1        0.1590
     25  H         24.7150  -20.0990  -17.5550 H       1  UNL1        0.1590
     26  O         25.9800  -21.8420  -16.4200 O.2     1  UNL1       -0.2680
     27  C         16.3950  -23.2930   -7.3710 C.3     1  UNL1        0.2310
     28  C         16.7470  -23.5370   -5.9140 C.2     1  UNL1        0.2380
     29  O         16.4270  -24.5760   -5.3340 O.2     1  UNL1       -0.2720
     30  N         17.4740  -22.5550   -5.2710 N.am    1  UNL1       -0.3510
     31  C         17.8350  -22.6890   -3.8700 C.3     1  UNL1        0.1260
     32  C         18.0210  -21.3350   -5.8420 C.3     1  UNL1        0.1260
     33  C         18.3670  -21.3180   -3.4840 C.3     1  UNL1        0.0210
     34  C         18.9860  -20.8170   -4.7840 C.3     1  UNL1        0.0210
@<TRIPOS>BOND
     1    25    23    1
     2    23    24    1
     3    23    22   am
     4    26    22    2
     5    22    19    1
     6    19    20    2
     7    19    18    1
     8    20    21    1
     9    18    17    2
    10    21    16    2
    11    17    16    1
    12    16    13    1
    13     7     6    2
    14     7     8    1
    15     6     5    1
    16     8     9    2
    17    13    14    1
    18    13    12   am
    19     5     4    2
    20     9     4    1
    21     9     1    1
    22    12    15    2
    23    12    11    1
    24     4     3    1
    25    10     1    1
    26    10    11    1
    27     1     2    2
    28     3     2    1
    29     3    27    1
    30    27    28    1
    31    28    29    2
    32    28    30   am
    33    32    30    1
    34    32    34    1
    35    30    31    1
    36    34    33    1
    37    31    33    1
