@<TRIPOS>MOLECULE
403_out_ligand_01.pdbqt
 33 36 0 0 0
SMALL
GASTEIGER

@<TRIPOS>ATOM
      1  C         18.0230  -22.3100   -5.2770 C.2     1  UNL1        0.0800
      2  C         18.5590  -21.0870   -4.8530 C.2     1  UNL1        0.0250
      3  C         19.6870  -20.5680   -5.4920 C.2     1  UNL1        0.0030
      4  C         20.2680  -21.2620   -6.5550 C.2     1  UNL1        0.0170
      5  C         19.7010  -22.4660   -6.9920 C.2     1  UNL1        0.0330
      6  C         18.5800  -23.0010   -6.3560 C.2     1  UNL1        0.0420
      7  C         20.3270  -23.2220   -8.0930 C.2     1  UNL1        0.2530
      8  O         19.6630  -24.1200   -8.5980 O.2     1  UNL1       -0.2670
      9  N         21.6210  -22.8940   -8.4850 N.am    1  UNL1       -0.3480
     10  C         22.3830  -21.7470   -7.9960 C.3     1  UNL1        0.1530
     11  C         22.2410  -23.6880   -9.5440 C.3     1  UNL1        0.1640
     12  C         22.4550  -22.9000  -10.8160 C.2     1  UNL1       -0.0370
     13  C         21.3820  -22.2470  -11.4430 C.2     1  UNL1        0.0120
     14  C         21.5790  -21.5350  -12.6310 C.2     1  UNL1        0.0400
     15  C         22.8490  -21.4710  -13.2020 C.2     1  UNL1        0.1020
     16  C         23.9310  -22.0870  -12.5670 C.2     1  UNL1        0.1020
     17  O         22.9620  -20.7750  -14.3790 O.2     1  UNL1       -0.3460
     18  C         23.7330  -22.8110  -11.3900 C.2     1  UNL1        0.0480
     19  O         25.2170  -22.0250  -13.0440 O.2     1  UNL1       -0.3460
     20  C         25.3590  -20.9910  -14.0240 C.3     1  UNL1        0.2020
     21  C         24.2140  -21.0430  -15.0240 C.3     1  UNL1        0.2020
     22  S         16.5930  -22.9740   -4.4520 S.O2    1  UNL1        0.2630
     23  O         16.3280  -22.1580   -3.2870 O.2     1  UNL1       -0.2000
     24  O         16.7920  -24.4040   -4.3330 O.2     1  UNL1       -0.2000
     25  N         15.3580  -22.7680   -5.5870 N.pl3   1  UNL1       -0.2810
     26  H         14.4370  -22.9390   -5.1870 H       1  UNL1        0.1790
     27  C         15.5810  -23.1850   -6.9290 C.2     1  UNL1        0.0430
     28  C         15.3660  -24.5090   -7.3090 C.2     1  UNL1        0.0300
     29  C         15.5090  -24.8800   -8.6450 C.2     1  UNL1        0.0030
     30  C         15.8680  -23.9280   -9.6010 C.2     1  UNL1        0.0070
     31  C         16.1050  -22.6000   -9.2270 C.2     1  UNL1       -0.0600
     32  C         16.4430  -21.5710  -10.2650 C.3     1  UNL1        0.0480
     33  C         15.9500  -22.2320   -7.8840 C.2     1  UNL1        0.0370
@<TRIPOS>BOND
     1    21    17    1
     2    21    20    1
     3    17    15    1
     4    20    19    1
     5    15    14    2
     6    15    16    1
     7    19    16    1
     8    14    13    1
     9    16    18    2
    10    13    12    2
    11    18    12    1
    12    12    11    1
    13    32    31    1
    14    30    31    2
    15    30    29    1
    16    11     9    1
    17    31    33    1
    18    29    28    2
    19     8     7    2
    20     9     7   am
    21     9    10    1
    22     7     5    1
    23    33    27    2
    24    28    27    1
    25     5     4    2
    26     5     6    1
    27    27    25    1
    28     4     3    1
    29     6     1    2
    30    25    26    1
    31    25    22    1
    32     3     2    2
    33     1     2    1
    34     1    22    1
    35    22    24    2
    36    22    23    2
