@<TRIPOS>MOLECULE
40410_out_ligand_01.pdbqt
 34 37 0 0 0
SMALL
GASTEIGER

@<TRIPOS>ATOM
      1  C         17.6160  -22.5160   -8.1800 C.3     1  UNL1        0.1790
      2  C         17.1860  -22.6290   -9.4940 C.2     1  UNL1        0.0220
      3  C         15.7910  -22.8580   -9.3930 C.2     1  UNL1        0.0620
      4  C         14.8030  -23.0110  -10.4920 C.3     1  UNL1        0.0730
      5  N         15.3830  -22.8920   -8.1240 N.pl3   1  UNL1       -0.1700
      6  N         16.5250  -22.8470   -7.3810 N.pl3   1  UNL1       -0.2100
      7  C         17.9990  -22.5110  -10.7430 C.3     1  UNL1        0.0540
      8  C         18.1070  -21.0740  -11.2430 C.3     1  UNL1        0.1080
      9  C         19.5490  -20.7200  -11.5540 C.2     1  UNL1        0.2220
     10  O         20.0120  -19.6180  -11.2830 O.2     1  UNL1       -0.2730
     11  N         20.2340  -21.7850  -12.1180 N.am    1  UNL1       -0.3270
     12  H         19.6910  -22.6160  -12.3180 H       1  UNL1        0.1690
     13  C         21.5840  -21.8200  -12.5250 C.2     1  UNL1        0.0370
     14  C         21.9480  -20.9900  -13.5980 C.2     1  UNL1        0.0290
     15  C         23.2650  -20.9660  -14.0730 C.2     1  UNL1        0.0050
     16  C         24.2290  -21.7720  -13.4750 C.2     1  UNL1        0.0420
     17  C         23.8660  -22.5890  -12.4110 C.2     1  UNL1        0.1180
     18  F         24.7960  -23.3680  -11.8400 F       1  UNL1       -0.2060
     19  C         22.5580  -22.6210  -11.9310 C.2     1  UNL1        0.0710
     20  O         18.7970  -22.1640   -7.6560 O.2     1  UNL1       -0.2910
     21  C         19.9300  -22.8150   -8.0710 C.2     1  UNL1        0.0780
     22  C         19.9100  -24.1850   -8.3290 C.2     1  UNL1        0.0370
     23  C         21.0750  -24.8260   -8.7490 C.2     1  UNL1        0.0030
     24  C         22.2550  -24.0950   -8.9070 C.2     1  UNL1        0.0070
     25  C         22.2790  -22.7180   -8.6510 C.2     1  UNL1       -0.0590
     26  C         23.5410  -21.9260   -8.8190 C.3     1  UNL1        0.0480
     27  C         21.0950  -22.0770   -8.2610 C.2     1  UNL1        0.0440
     28  C         16.4440  -23.0240   -5.9650 C.2     1  UNL1        0.0670
     29  C         17.5490  -23.6440   -5.3410 C.2     1  UNL1        0.0320
     30  C         17.5490  -23.9130   -3.9730 C.2     1  UNL1        0.0020
     31  C         16.4500  -23.5550   -3.2010 C.2     1  UNL1        0.0010
     32  C         15.3700  -22.9020   -3.7950 C.2     1  UNL1        0.0090
     33  C         15.3570  -22.5960   -5.1720 C.2     1  UNL1       -0.0330
     34  C         14.2040  -21.7620   -5.6560 C.3     1  UNL1        0.0500
@<TRIPOS>BOND
     1    15    14    1
     2    15    16    2
     3    14    13    2
     4    16    17    1
     5    13    11    1
     6    13    19    1
     7    17    19    2
     8    17    18    1
     9    12    11    1
    10    11     9   am
    11     9    10    2
    12     9     8    1
    13     8     7    1
    14     7     2    1
    15     4     3    1
    16     2     3    2
    17     2     1    1
    18     3     5    1
    19    24    23    2
    20    24    25    1
    21    26    25    1
    22    23    22    1
    23    25    27    2
    24    22    21    2
    25    27    21    1
    26     1    20    1
    27     1     6    1
    28     5     6    1
    29    21    20    1
    30     6    28    1
    31    28    29    2
    32    28    33    1
    33    34    33    1
    34    29    30    1
    35    33    32    2
    36    30    31    2
    37    32    31    1
