@<TRIPOS>MOLECULE
40412_out_ligand_01.pdbqt
 33 36 0 0 0
SMALL
GASTEIGER

@<TRIPOS>ATOM
      1  C         24.5480  -21.5470  -11.9440 C.2     1  UNL1        0.0750
      2  C         24.6400  -21.4240  -10.5570 C.2     1  UNL1        0.0270
      3  C         23.5160  -21.6870   -9.7690 C.2     1  UNL1        0.0310
      4  C         22.2980  -22.0600  -10.3550 C.2     1  UNL1        0.0350
      5  C         22.2170  -22.1550  -11.7480 C.2     1  UNL1        0.0310
      6  C         23.3370  -21.8930  -12.5450 C.2     1  UNL1        0.0270
      7  N         21.2220  -22.3120   -9.4860 N.am    1  UNL1       -0.3210
      8  C         20.8740  -23.5010   -8.8670 C.2     1  UNL1        0.2800
      9  O         21.4700  -24.5660   -8.9890 O.2     1  UNL1       -0.2650
     10  H         20.6150  -21.5310   -9.2630 H       1  UNL1        0.1690
     11  C         19.6900  -23.3650   -8.0290 C.ar    1  UNL1        0.1500
     12  O         18.6460  -24.2330   -8.2220 O.2     1  UNL1       -0.3040
     13  C         17.6750  -23.9050   -7.3320 C.ar    1  UNL1        0.0870
     14  C         16.4470  -24.5530   -7.2060 C.2     1  UNL1        0.0400
     15  C         18.0740  -22.8260   -6.5530 C.ar    1  UNL1        0.0080
     16  C         15.5790  -24.0620   -6.2250 C.2     1  UNL1        0.0260
     17  C         15.9450  -22.9800   -5.4230 C.2     1  UNL1        0.0350
     18 CL         14.8460  -22.4070   -4.2260 Cl      1  UNL1       -0.0840
     19  C         17.1860  -22.3460   -5.5710 C.2     1  UNL1        0.0380
     20  C         19.3840  -22.4750   -7.0060 C.ar    1  UNL1       -0.0090
     21  C         20.2540  -21.3820   -6.4970 C.3     1  UNL1        0.0520
     22  S         25.9760  -21.2110  -12.9500 S.O2    1  UNL1        0.2470
     23  O         27.1210  -21.1910  -12.0630 O.2     1  UNL1       -0.2050
     24  O         25.6720  -20.0830  -13.8040 O.2     1  UNL1       -0.2050
     25  N         26.1650  -22.5830  -13.9190 N.pl3   1  UNL1       -0.1580
     26  H         26.0070  -23.4210  -13.3600 H       1  UNL1        0.1480
     27  C         25.4300  -22.5660  -15.1710 C.ar    1  UNL1        0.1700
     28  O         25.1350  -21.4200  -15.8390 O.2     1  UNL1       -0.2000
     29  N         24.4410  -21.7230  -16.9930 N.ar    1  UNL1       -0.1310
     30  C         24.3000  -23.0540  -16.9910 C.ar    1  UNL1        0.0680
     31  C         23.5860  -23.7270  -18.1030 C.3     1  UNL1        0.0730
     32  C         24.8930  -23.6420  -15.8390 C.ar    1  UNL1        0.0130
     33  C         24.9170  -25.0750  -15.4650 C.3     1  UNL1        0.0540
@<TRIPOS>BOND
     1    31    30    1
     2    29    30   ar
     3    29    28   ar
     4    30    32   ar
     5    32    33    1
     6    32    27   ar
     7    28    27   ar
     8    27    25    1
     9    25    26    1
    10    25    22    1
    11    24    22    2
    12    22    23    2
    13    22     1    1
    14     6     1    2
    15     6     5    1
    16     1     2    1
    17     5     4    2
    18     2     3    2
    19     4     3    1
    20     4     7    1
    21     7    10    1
    22     7     8   am
    23     9     8    2
    24     8    11    1
    25    12    11   ar
    26    12    13   ar
    27    11    20   ar
    28    13    14    2
    29    13    15   ar
    30    14    16    1
    31    20    15   ar
    32    20    21    1
    33    15    19    2
    34    16    17    2
    35    19    17    1
    36    17    18    1
