@<TRIPOS>MOLECULE
40413_out_ligand_01.pdbqt
 35 38 0 0 0
SMALL
GASTEIGER

@<TRIPOS>ATOM
      1  C         16.3300  -22.7770   -8.9310 C.2     1  UNL1        0.0900
      2  C         17.5350  -22.5900   -9.4960 C.2     1  UNL1        0.1050
      3  N         18.7310  -23.1910   -9.1470 N.pl3   1  UNL1       -0.3500
      4  C         19.9110  -22.9940   -9.8730 C.2     1  UNL1        0.0590
      5  C         21.1000  -23.6240   -9.4990 C.2     1  UNL1        0.0330
      6  C         22.2800  -23.3870  -10.2120 C.2     1  UNL1        0.0190
      7  C         22.2750  -22.5100  -11.3070 C.2     1  UNL1        0.0340
      8  C         21.0960  -21.8470  -11.6650 C.2     1  UNL1        0.0490
      9  C         19.9260  -22.0920  -10.9500 C.2     1  UNL1        0.0620
     10  N         18.7420  -21.4320  -11.3040 N.am    1  UNL1       -0.3200
     11  C         17.5420  -21.6080  -10.6600 C.2     1  UNL1        0.2720
     12  O         16.5430  -20.9910  -11.0200 O.2     1  UNL1       -0.2660
     13  H         18.7060  -23.9540   -8.4830 H       1  UNL1        0.1660
     14  H         18.7350  -20.7730  -12.0700 H       1  UNL1        0.1690
     15  C         16.0660  -23.6850   -7.7930 C.2     1  UNL1        0.1840
     16  O         15.7780  -24.8570   -8.0150 O.2     1  UNL1       -0.2880
     17  C         16.1350  -23.1800   -6.3960 C.2     1  UNL1        0.0170
     18  C         15.0040  -23.3260   -5.5860 C.2     1  UNL1        0.0150
     19  C         15.0230  -22.8700   -4.2680 C.2     1  UNL1        0.0040
     20  C         16.1700  -22.2570   -3.7550 C.2     1  UNL1        0.0370
     21  C         17.2960  -22.0890   -4.5620 C.2     1  UNL1        0.0690
     22  C         17.2740  -22.5480   -5.8830 C.2     1  UNL1        0.0520
     23  O         18.4720  -21.5010   -4.1860 O.2     1  UNL1       -0.3560
     24  C         19.1520  -20.7300   -5.1680 C.3     1  UNL1        0.2100
     25  C         23.5120  -22.2250  -12.0860 C.2     1  UNL1        0.2560
     26  O         24.5850  -22.5600  -11.6000 O.2     1  UNL1       -0.2670
     27  N         23.3060  -21.5650  -13.2830 N.am    1  UNL1       -0.3230
     28  H         22.3690  -21.2340  -13.4720 H       1  UNL1        0.1690
     29  C         24.2770  -21.2060  -14.2410 C.2     1  UNL1        0.0350
     30  C         24.5480  -22.1330  -15.2560 C.2     1  UNL1        0.0290
     31  C         25.5050  -21.8590  -16.2350 C.2     1  UNL1        0.0030
     32  C         26.2020  -20.6540  -16.2110 C.2     1  UNL1        0.0070
     33  C         25.9390  -19.7100  -15.2130 C.2     1  UNL1       -0.0600
     34  C         26.7100  -18.4240  -15.1590 C.3     1  UNL1        0.0480
     35  C         24.9850  -20.0010  -14.2240 C.2     1  UNL1        0.0360
@<TRIPOS>BOND
     1    31    32    2
     2    31    30    1
     3    32    33    1
     4    30    29    2
     5    33    34    1
     6    33    35    2
     7    29    35    1
     8    29    27    1
     9    28    27    1
    10    27    25   am
    11    25    26    2
    12    25     7    1
    13    14    10    1
    14     8     7    2
    15     8     9    1
    16     7     6    1
    17    10     9    1
    18    10    11   am
    19    12    11    2
    20     9     4    2
    21    11     2    1
    22     6     5    2
    23     4     5    1
    24     4     3    1
    25     2     3    1
    26     2     1    2
    27     3    13    1
    28     1    15    1
    29    16    15    2
    30    15    17    1
    31    17    22    2
    32    17    18    1
    33    22    21    1
    34    18    19    2
    35    24    23    1
    36    21    23    1
    37    21    20    2
    38    19    20    1
