@<TRIPOS>MOLECULE
40427_out_ligand_01.pdbqt
 35 39 0 0 0
SMALL
GASTEIGER

@<TRIPOS>ATOM
      1  C         19.8940  -23.7190   -8.0790 C.2     1  UNL1        0.0970
      2  C         20.5630  -24.8190   -8.5930 C.2     1  UNL1        0.0390
      3  C         21.8110  -24.3540   -9.0670 C.2     1  UNL1        0.0370
      4  C         21.8400  -23.0000   -8.8230 C.2     1  UNL1        0.0810
      5  O         20.6790  -22.6100   -8.2250 O.2     1  UNL1       -0.3140
      6  C         18.5160  -23.5610   -7.4500 C.3     1  UNL1        0.1610
      7  O         18.1640  -24.9050   -7.0610 O.3     1  UNL1       -0.3730
      8  H         17.6240  -24.8150   -6.2580 H       1  UNL1        0.2120
      9  C         17.4490  -23.1130   -8.4640 C.2     1  UNL1       -0.0100
     10  C         16.1450  -23.6520   -8.4710 C.2     1  UNL1        0.0110
     11  C         15.1970  -23.2500   -9.4180 C.2     1  UNL1        0.0040
     12  C         15.5360  -22.3070  -10.3830 C.2     1  UNL1        0.0420
     13  C         16.8210  -21.7780  -10.3970 C.2     1  UNL1        0.1170
     14  F         17.1490  -20.8750  -11.3290 F       1  UNL1       -0.2060
     15  C         17.7720  -22.1730   -9.4620 C.2     1  UNL1        0.0530
     16  C         18.4990  -22.6680   -6.1930 C.2     1  UNL1       -0.0100
     17  C         17.9180  -23.1230   -4.9900 C.2     1  UNL1        0.0110
     18  C         17.8890  -22.3230   -3.8410 C.2     1  UNL1        0.0040
     19  C         18.4510  -21.0510   -3.8670 C.2     1  UNL1        0.0420
     20  C         19.0410  -20.5940   -5.0350 C.2     1  UNL1        0.1170
     21  F         19.5880  -19.3710   -5.0620 F       1  UNL1       -0.2060
     22  C         19.0770  -21.3840   -6.1840 C.2     1  UNL1        0.0530
     23  C         22.8520  -21.9360   -9.0830 C.3     1  UNL1        0.3380
     24  N         22.9390  -21.5970  -10.5180 N.3     1  UNL1        0.1030
     25  C         24.1100  -22.2720  -11.1230 C.3     1  UNL1        0.3150
     26  C         25.0740  -21.3110  -11.7790 C.2     1  UNL1        0.0090
     27  C         25.9500  -20.5350  -11.0050 C.2     1  UNL1        0.0120
     28  C         26.8490  -19.6550  -11.6150 C.2     1  UNL1        0.0010
     29  C         26.8870  -19.5440  -13.0040 C.2     1  UNL1        0.0030
     30  C         26.0290  -20.3180  -13.7840 C.2     1  UNL1        0.0430
     31  C         25.1350  -21.1920  -13.1690 C.2     1  UNL1        0.1240
     32  F         24.3220  -21.9270  -13.9420 F       1  UNL1       -0.2050
     33  C         21.6860  -21.9540  -11.2240 C.3     1  UNL1        0.2240
     34  C         21.4690  -21.4790  -12.6370 C.3     1  UNL1        0.0380
     35  C         20.6690  -20.8820  -11.5210 C.3     1  UNL1        0.0380
@<TRIPOS>BOND
     1    32    31    1
     2    30    31    1
     3    30    29    2
     4    31    26    2
     5    29    28    1
     6    34    35    1
     7    34    33    1
     8    26    25    1
     9    26    27    1
    10    28    27    2
    11    35    33    1
    12    14    13    1
    13    33    24    1
    14    25    24    1
    15    24    23    1
    16    13    12    2
    17    13    15    1
    18    12    11    1
    19    15     9    2
    20    11    10    2
    21    23     4    1
    22     3     4    2
    23     3     2    1
    24     4     5    1
    25     2     1    2
    26    10     9    1
    27     9     6    1
    28     5     1    1
    29     1     6    1
    30     6     7    1
    31     6    16    1
    32     7     8    1
    33    16    22    2
    34    16    17    1
    35    22    20    1
    36    21    20    1
    37    20    19    2
    38    17    18    2
    39    19    18    1
