@<TRIPOS>MOLECULE
40436_out_ligand_01.pdbqt
 33 37 0 0 0
SMALL
GASTEIGER

@<TRIPOS>ATOM
      1  C         17.7820  -22.5430   -8.7950 C.2     1  UNL1        0.0900
      2  C         16.9290  -21.9110   -9.8500 C.2     1  UNL1        0.0380
      3  C         17.5260  -21.5350  -10.9880 C.2     1  UNL1        0.0570
      4  C         18.9140  -21.7410  -11.1400 C.ar    1  UNL1        0.1750
      5  N         19.7570  -21.4510  -12.1110 N.ar    1  UNL1       -0.1280
      6  N         21.0120  -21.8590  -11.7140 N.ar    1  UNL1       -0.1200
      7  C         20.8980  -22.3910  -10.5160 C.ar    1  UNL1        0.2130
      8  N         19.5870  -22.3500  -10.0940 N.ar    1  UNL1       -0.1870
      9  N         19.0560  -22.7730   -8.9050 N.2     1  UNL1       -0.1630
     10  S         22.1780  -23.0570   -9.5620 S.3     1  UNL1       -0.0790
     11  C         23.3310  -21.6610   -9.5080 C.3     1  UNL1        0.1850
     12  C         24.3410  -21.7290  -10.6460 C.2     1  UNL1        0.2310
     13  O         25.2270  -20.8810  -10.7510 O.2     1  UNL1       -0.2720
     14  N         24.1200  -22.7870  -11.5100 N.am    1  UNL1       -0.3260
     15  H         23.4830  -23.5150  -11.1800 H       1  UNL1        0.1690
     16  C         24.7360  -23.0270  -12.7540 C.2     1  UNL1        0.0370
     17  C         25.7990  -23.9190  -12.9420 C.2     1  UNL1        0.0320
     18  C         26.4030  -24.0530  -14.1980 C.2     1  UNL1        0.0420
     19  C         25.9500  -23.2940  -15.2720 C.2     1  UNL1        0.1020
     20  C         24.8630  -22.4300  -15.1030 C.2     1  UNL1        0.1040
     21  O         26.6180  -23.4430  -16.4620 O.2     1  UNL1       -0.3460
     22  C         24.2670  -22.2880  -13.8490 C.2     1  UNL1        0.0690
     23  O         24.3390  -21.6760  -16.1240 O.2     1  UNL1       -0.3460
     24  C         24.8020  -22.1350  -17.4030 C.3     1  UNL1        0.2020
     25  C         26.3020  -22.3800  -17.3700 C.3     1  UNL1        0.2020
     26  C         17.0780  -22.9190   -7.5450 C.2     1  UNL1        0.0280
     27  C         16.0310  -23.8510   -7.5890 C.2     1  UNL1        0.0170
     28  C         15.3850  -24.2300   -6.4090 C.2     1  UNL1        0.0010
     29  C         15.7810  -23.6800   -5.1880 C.2     1  UNL1        0.0030
     30  C         16.8270  -22.7540   -5.1400 C.2     1  UNL1        0.0370
     31  C         17.4860  -22.3830   -6.3160 C.2     1  UNL1        0.0800
     32  O         18.4650  -21.4230   -6.2710 O.2     1  UNL1       -0.3550
     33  C         18.7880  -21.0960   -4.9180 C.3     1  UNL1        0.2100
@<TRIPOS>BOND
     1    24    25    1
     2    24    23    1
     3    25    21    1
     4    21    19    1
     5    23    20    1
     6    19    20    2
     7    19    18    1
     8    20    22    1
     9    18    17    2
    10    22    16    2
    11    17    16    1
    12    16    14    1
    13     5     6   ar
    14     5     4   ar
    15     6     7   ar
    16    14    15    1
    17    14    12   am
    18     4     3    1
    19     4     8   ar
    20     3     2    2
    21    13    12    2
    22    12    11    1
    23     7     8   ar
    24     7    10    1
    25     8     9    1
    26     2     1    1
    27    10    11    1
    28     9     1    2
    29     1    26    1
    30    27    26    2
    31    27    28    1
    32    26    31    1
    33    28    29    2
    34    31    32    1
    35    31    30    2
    36    32    33    1
    37    29    30    1
