@<TRIPOS>MOLECULE
40439_out_ligand_01.pdbqt
 34 38 0 0 0
SMALL
GASTEIGER

@<TRIPOS>ATOM
      1  N         20.2370  -23.5400   -9.4860 N.am    1  UNL1       -0.3050
      2  C         21.6120  -23.6570   -9.7910 C.2     1  UNL1        0.2960
      3  O         22.3610  -24.3930   -9.1490 O.2     1  UNL1       -0.2640
      4  C         22.0630  -22.8600  -10.9000 C.3     1  UNL1        0.2230
      5  N         23.2790  -22.7720  -11.3980 N.2     1  UNL1       -0.1980
      6  C         23.1370  -21.8760  -12.4380 C.2     1  UNL1        0.2400
      7  N         21.8760  -21.4130  -12.5940 N.pl3   1  UNL1       -0.1390
      8  N         21.2230  -22.0600  -11.6020 N.pl3   1  UNL1       -0.2060
      9  C         19.8640  -21.9290  -11.3170 C.2     1  UNL1        0.0870
     10  C         19.0550  -21.0840  -12.0840 C.2     1  UNL1        0.0340
     11  C         17.7020  -20.9740  -11.7760 C.2     1  UNL1        0.0090
     12  C         17.1660  -21.6930  -10.7030 C.2     1  UNL1       -0.0600
     13  C         15.6990  -21.6040  -10.3910 C.3     1  UNL1        0.0480
     14  C         17.9950  -22.5470   -9.9530 C.2     1  UNL1        0.0390
     15  C         19.3610  -22.6810  -10.2420 C.2     1  UNL1        0.0670
     16  C         24.2510  -21.4430  -13.3190 C.2     1  UNL1        0.2950
     17  O         25.1530  -20.7100  -12.9270 O.2     1  UNL1       -0.2640
     18  N         24.1260  -21.9700  -14.5970 N.am    1  UNL1       -0.3200
     19  H         23.3060  -22.5590  -14.7160 H       1  UNL1        0.1690
     20  C         24.9720  -21.7910  -15.7050 C.2     1  UNL1        0.0380
     21  C         25.8930  -22.7450  -16.1460 C.2     1  UNL1        0.0290
     22  C         26.7020  -22.4930  -17.2610 C.2     1  UNL1        0.0050
     23  C         26.5950  -21.2840  -17.9420 C.2     1  UNL1        0.0420
     24  C         25.6800  -20.3380  -17.5010 C.2     1  UNL1        0.1180
     25  F         25.5720  -19.1720  -18.1530 F       1  UNL1       -0.2060
     26  C         24.8710  -20.5790  -16.3940 C.2     1  UNL1        0.0710
     27  C         19.7290  -24.3520   -8.3760 C.3     1  UNL1        0.1710
     28  C         19.2220  -23.5350   -7.2050 C.2     1  UNL1       -0.0400
     29  C         19.7720  -22.2800   -6.9080 C.2     1  UNL1        0.0090
     30  C         19.2890  -21.5260   -5.8350 C.2     1  UNL1        0.0070
     31  C         18.2330  -22.0000   -5.0510 C.2     1  UNL1       -0.0620
     32  C         17.7410  -21.2010   -3.8810 C.3     1  UNL1        0.0480
     33  C         17.6750  -23.2470   -5.3470 C.2     1  UNL1        0.0070
     34  C         18.1560  -24.0010   -6.4210 C.2     1  UNL1        0.0090
@<TRIPOS>BOND
     1    25    24    1
     2    23    24    2
     3    23    22    1
     4    24    26    1
     5    22    21    2
     6    26    20    2
     7    21    20    1
     8    20    18    1
     9    19    18    1
    10    18    16   am
    11    16    17    2
    12    16     6    1
    13     7     6    1
    14     7     8    1
    15     6     5    2
    16    10    11    1
    17    10     9    2
    18    11    12    2
    19     8     9    1
    20     8     4    1
    21     5     4    1
    22     9    15    1
    23     4     2    1
    24    12    13    1
    25    12    14    1
    26    15    14    2
    27    15     1    1
    28     2     1   am
    29     2     3    2
    30     1    27    1
    31    27    28    1
    32    28    29    2
    33    28    34    1
    34    29    30    1
    35    34    33    2
    36    30    31    2
    37    33    31    1
    38    31    32    1
