@<TRIPOS>MOLECULE
40445_out_ligand_01.pdbqt
 33 36 0 0 0
SMALL
GASTEIGER

@<TRIPOS>ATOM
      1  N         17.3110  -22.7780   -7.3880 N.ar    1  UNL1       -0.2100
      2  N         16.2990  -22.2880   -8.1540 N.ar    1  UNL1       -0.1700
      3  C         16.7730  -22.2420   -9.3980 C.ar    1  UNL1        0.0620
      4  C         15.9400  -21.6750  -10.4880 C.3     1  UNL1        0.0730
      5  C         18.0740  -22.7890   -9.4890 C.ar    1  UNL1        0.0220
      6  C         18.3750  -23.1890   -8.1950 C.ar    1  UNL1        0.1790
      7  C         18.9280  -22.9040  -10.7100 C.3     1  UNL1        0.0540
      8  C         19.1880  -21.5540  -11.3730 C.3     1  UNL1        0.1080
      9  C         20.6770  -21.2780  -11.4570 C.2     1  UNL1        0.2220
     10  O         21.2240  -20.4820  -10.7010 O.2     1  UNL1       -0.2730
     11  N         21.2820  -21.9820  -12.4780 N.am    1  UNL1       -0.3250
     12  H         20.7050  -22.6230  -13.0160 H       1  UNL1        0.1690
     13  C         22.6480  -21.9880  -12.8340 C.2     1  UNL1        0.0730
     14  C         23.5980  -22.8640  -12.3100 C.2     1  UNL1        0.0330
     15  C         24.9320  -22.7920  -12.7320 C.2     1  UNL1        0.0020
     16  C         25.3270  -21.8440  -13.6800 C.2     1  UNL1        0.0030
     17  C         24.3870  -20.9650  -14.2090 C.2     1  UNL1        0.0440
     18  C         23.0620  -21.0440  -13.7860 C.2     1  UNL1        0.1430
     19  F         22.1640  -20.1940  -14.3080 F       1  UNL1       -0.2040
     20  O         19.4380  -23.8330   -7.6960 O.3     1  UNL1       -0.2910
     21  C         20.6990  -23.4150   -8.0460 C.2     1  UNL1        0.0770
     22  C         21.4710  -24.2480   -8.8540 C.2     1  UNL1        0.0370
     23  C         22.7580  -23.8550   -9.2220 C.2     1  UNL1        0.0030
     24  C         23.2570  -22.6210   -8.8030 C.2     1  UNL1        0.0000
     25  C         22.4700  -21.7760   -8.0190 C.2     1  UNL1        0.0030
     26  C         21.1860  -22.1700   -7.6440 C.2     1  UNL1        0.0370
     27  C         17.1950  -22.8150   -5.9560 C.2     1  UNL1        0.0670
     28  C         16.2850  -23.7160   -5.3690 C.2     1  UNL1        0.0320
     29  C         16.1520  -23.8130   -3.9810 C.2     1  UNL1        0.0020
     30  C         16.9320  -23.0190   -3.1530 C.2     1  UNL1        0.0010
     31  C         17.8440  -22.1270   -3.7120 C.2     1  UNL1        0.0090
     32  C         17.9890  -22.0010   -5.1080 C.2     1  UNL1       -0.0330
     33  C         18.9790  -20.9740   -5.5950 C.3     1  UNL1        0.0500
@<TRIPOS>BOND
     1    19    18    1
     2    17    18    1
     3    17    16    2
     4    18    13    2
     5    16    15    1
     6    12    11    1
     7    13    11    1
     8    13    14    1
     9    15    14    2
    10    11     9   am
    11     9     8    1
    12     9    10    2
    13     8     7    1
    14     7     5    1
    15     4     3    1
    16     5     3   ar
    17     5     6   ar
    18     3     2   ar
    19    23    22    1
    20    23    24    2
    21    22    21    2
    22    24    25    1
    23     6    20    1
    24     6     1   ar
    25     2     1   ar
    26    21    20    1
    27    21    26    1
    28    25    26    2
    29     1    27    1
    30    27    28    2
    31    27    32    1
    32    33    32    1
    33    28    29    1
    34    32    31    2
    35    29    30    2
    36    31    30    1
