@<TRIPOS>MOLECULE
40464_out_ligand_01.pdbqt
 33 35 0 0 0
SMALL
GASTEIGER

@<TRIPOS>ATOM
      1  C         20.8100  -23.3230   -8.4520 C.2     1  UNL1        0.0320
      2  C         19.9010  -24.3840   -8.3400 C.2     1  UNL1        0.0180
      3  C         18.8550  -24.3150   -7.4160 C.2     1  UNL1        0.0260
      4  C         18.7230  -23.1840   -6.6030 C.2     1  UNL1        0.0740
      5  C         19.6380  -22.1320   -6.6870 C.2     1  UNL1        0.0260
      6  C         20.6810  -22.2060   -7.6120 C.2     1  UNL1        0.0180
      7  S         17.3970  -23.1220   -5.4190 S.O2    1  UNL1        0.2450
      8  O         17.8130  -22.2780   -4.3200 O.2     1  UNL1       -0.2060
      9  O         16.9320  -24.4780   -5.2260 O.2     1  UNL1       -0.2060
     10  N         16.2410  -22.2260   -6.3050 N.pl3   1  UNL1       -0.1810
     11  H         15.3380  -22.3980   -5.8590 H       1  UNL1        0.1460
     12  C         16.1880  -22.5750   -7.6940 C.2     1  UNL1        0.0230
     13  C         15.5000  -23.7150   -8.1080 C.2     1  UNL1        0.0240
     14  C         15.4970  -24.0720   -9.4550 C.2     1  UNL1        0.0030
     15  C         16.1920  -23.2960  -10.3850 C.2     1  UNL1        0.0160
     16  C         16.9010  -22.1560   -9.9760 C.2     1  UNL1        0.0490
     17  C         16.9010  -21.8090   -8.6160 C.2     1  UNL1        0.0400
     18  C         17.6780  -21.3420  -10.9800 C.3     1  UNL1        0.4170
     19  F         17.1130  -20.1280  -11.2170 F       1  UNL1       -0.1660
     20  F         17.7950  -21.9480  -12.1950 F       1  UNL1       -0.1660
     21  F         18.9530  -21.0870  -10.5720 F       1  UNL1       -0.1660
     22  C         21.9440  -23.3500   -9.4200 C.2     1  UNL1        0.2520
     23  O         22.9380  -24.0180   -9.1680 O.2     1  UNL1       -0.2680
     24  N         21.8030  -22.5650  -10.5480 N.am    1  UNL1       -0.3520
     25  H         21.0550  -21.8860  -10.5630 H       1  UNL1        0.1630
     26  C         22.8420  -22.4080  -11.5570 C.3     1  UNL1        0.0840
     27  C         22.3060  -21.8080  -12.8680 C.3     1  UNL1        0.0280
     28  C         23.4000  -21.1930  -13.7410 C.3     1  UNL1        0.0340
     29  C         24.7560  -21.8490  -13.5110 C.3     1  UNL1        0.1180
     30  C         25.2240  -21.6890  -12.0610 C.3     1  UNL1        0.0340
     31  C         24.0760  -21.6540  -11.0480 C.3     1  UNL1        0.0280
     32  O         25.7100  -21.2720  -14.3940 O.3     1  UNL1       -0.3960
     33  H         25.2790  -21.1430  -15.2560 H       1  UNL1        0.2100
@<TRIPOS>BOND
     1    33    32    1
     2    32    29    1
     3    28    29    1
     4    28    27    1
     5    29    30    1
     6    27    26    1
     7    20    18    1
     8    30    31    1
     9    26    31    1
    10    26    24    1
    11    19    18    1
    12    18    21    1
    13    18    16    1
    14    25    24    1
    15    24    22   am
    16    15    16    2
    17    15    14    1
    18    16    17    1
    19    14    13    2
    20    22    23    2
    21    22     1    1
    22    17    12    2
    23     1     2    2
    24     1     6    1
    25     2     3    1
    26    13    12    1
    27    12    10    1
    28     6     5    2
    29     3     4    2
    30     5     4    1
    31     4     7    1
    32    10    11    1
    33    10     7    1
    34     7     9    2
    35     7     8    2
