@<TRIPOS>MOLECULE
40467_out_ligand_01.pdbqt
 33 36 0 0 0
SMALL
GASTEIGER

@<TRIPOS>ATOM
      1  C         17.9000  -23.3870   -8.6550 C.2     1  UNL1        0.0790
      2  C         17.5200  -22.4640   -9.6350 C.2     1  UNL1        0.0260
      3  C         18.4900  -21.9080  -10.4700 C.2     1  UNL1        0.0180
      4  C         19.8380  -22.2660  -10.3260 C.2     1  UNL1        0.0320
      5  C         20.2160  -23.1600   -9.3130 C.2     1  UNL1        0.0180
      6  C         19.2460  -23.7210   -8.4760 C.2     1  UNL1        0.0260
      7  C         20.8380  -21.6430  -11.2400 C.2     1  UNL1        0.2560
      8  O         20.4870  -20.6820  -11.9130 O.2     1  UNL1       -0.2670
      9  N         22.0770  -22.2600  -11.2570 N.am    1  UNL1       -0.3230
     10  H         22.1680  -23.1260  -10.7430 H       1  UNL1        0.1690
     11  C         23.2160  -21.8700  -11.9950 C.2     1  UNL1        0.0370
     12  C         24.4880  -21.7180  -11.4450 C.2     1  UNL1        0.0320
     13  C         25.5630  -21.3180  -12.2470 C.2     1  UNL1        0.0420
     14  C         25.3790  -21.0630  -13.6050 C.2     1  UNL1        0.1020
     15  C         24.1200  -21.2710  -14.1780 C.2     1  UNL1        0.1040
     16  O         26.4970  -20.6290  -14.2720 O.2     1  UNL1       -0.3480
     17  C         23.0420  -21.6460  -13.3660 C.2     1  UNL1        0.0690
     18  O         23.8150  -21.1290  -15.5100 O.2     1  UNL1       -0.3480
     19  C         24.8800  -21.5130  -16.3810 C.3     1  UNL1        0.1780
     20  C         25.8520  -20.3670  -16.6000 C.3     1  UNL1        0.0530
     21  C         26.2110  -19.6750  -15.2950 C.3     1  UNL1        0.1780
     22  S         16.6680  -24.0800   -7.5710 S.O2    1  UNL1        0.2630
     23  O         17.3180  -25.0550   -6.7220 O.2     1  UNL1       -0.2000
     24  O         15.5300  -24.4430   -8.3910 O.2     1  UNL1       -0.2000
     25  N         16.1690  -22.7600   -6.6510 N.pl3   1  UNL1       -0.2800
     26  H         15.6640  -22.0670   -7.1980 H       1  UNL1        0.1790
     27  C         16.9410  -22.3220   -5.5360 C.2     1  UNL1        0.0480
     28  C         18.0610  -21.5140   -5.7480 C.2     1  UNL1        0.0300
     29  C         18.8130  -21.0540   -4.6670 C.2     1  UNL1        0.0020
     30  C         18.4520  -21.4040   -3.3710 C.2     1  UNL1        0.0010
     31  C         17.3410  -22.2220   -3.1530 C.2     1  UNL1        0.0090
     32  C         16.5740  -22.6940   -4.2310 C.2     1  UNL1       -0.0350
     33  C         15.3940  -23.5800   -3.9530 C.3     1  UNL1        0.0500
@<TRIPOS>BOND
     1    20    19    1
     2    20    21    1
     3    19    18    1
     4    18    15    1
     5    21    16    1
     6    16    14    1
     7    15    14    2
     8    15    17    1
     9    14    13    1
    10    17    11    2
    11    13    12    2
    12    11    12    1
    13    11     9    1
    14     8     7    2
    15     9     7   am
    16     9    10    1
    17     7     4    1
    18     3     4    2
    19     3     2    1
    20     4     5    1
    21     2     1    2
    22     5     6    2
    23     1     6    1
    24     1    22    1
    25    24    22    2
    26    22    23    2
    27    22    25    1
    28    26    25    1
    29    25    27    1
    30    28    27    2
    31    28    29    1
    32    27    32    1
    33    29    30    2
    34    32    33    1
    35    32    31    2
    36    30    31    1
