@<TRIPOS>MOLECULE
4047_out_ligand_01.pdbqt
 39 42 0 0 0
SMALL
GASTEIGER

@<TRIPOS>ATOM
      1  C         19.8720  -21.9640  -11.1750 C.2     1  UNL1        0.0340
      2  C         18.6310  -21.3840  -11.4680 C.2     1  UNL1        0.0310
      3  C         17.4760  -21.7910  -10.7980 C.2     1  UNL1        0.0270
      4  C         17.5660  -22.7830   -9.8200 C.2     1  UNL1        0.0800
      5  C         18.7870  -23.4020   -9.5490 C.2     1  UNL1        0.0270
      6  C         19.9400  -22.9830  -10.2210 C.2     1  UNL1        0.0310
      7  N         20.9850  -21.4600  -11.8720 N.am    1  UNL1       -0.3260
      8  C         22.2540  -22.0080  -11.9610 C.2     1  UNL1        0.2410
      9  O         22.6170  -23.0830  -11.4850 O.2     1  UNL1       -0.2710
     10  H         20.8560  -20.5400  -12.2990 H       1  UNL1        0.1690
     11  C         23.2370  -21.1310  -12.7270 C.3     1  UNL1        0.2440
     12  N         24.6190  -21.6430  -12.6290 N.pl3   1  UNL1       -0.2660
     13  S         25.5340  -21.3530  -11.2560 S.O2    1  UNL1        0.2290
     14  C         26.4640  -19.9070  -11.7230 C.3     1  UNL1        0.1860
     15  O         26.4670  -22.4400  -11.0470 O.2     1  UNL1       -0.2060
     16  O         24.6000  -20.9630  -10.2140 O.2     1  UNL1       -0.2060
     17  C         25.1180  -22.5340  -13.6380 C.2     1  UNL1        0.0680
     18  C         25.0680  -23.9130  -13.3870 C.2     1  UNL1        0.0320
     19  C         25.5460  -24.8170  -14.3330 C.2     1  UNL1        0.0040
     20  C         26.0700  -24.3500  -15.5370 C.2     1  UNL1        0.0260
     21  C         26.1120  -22.9770  -15.8030 C.2     1  UNL1        0.0580
     22 CL         26.7720  -22.4850  -17.3250 Cl      1  UNL1       -0.0820
     23  C         25.6340  -22.0580  -14.8560 C.2     1  UNL1        0.0830
     24 CL         25.6720  -20.3510  -15.1720 Cl      1  UNL1       -0.0800
     25  S         16.1080  -23.2800   -8.9320 S.O2    1  UNL1        0.2630
     26  O         15.4090  -24.2490   -9.7510 O.2     1  UNL1       -0.2000
     27  O         15.4440  -22.0860   -8.4550 O.2     1  UNL1       -0.2000
     28  N         16.7230  -24.1430   -7.6170 N.pl3   1  UNL1       -0.2800
     29  H         17.5990  -24.6140   -7.8340 H       1  UNL1        0.1790
     30  C         16.5450  -23.6250   -6.2940 C.2     1  UNL1        0.0530
     31  C         15.4330  -24.0590   -5.5640 C.2     1  UNL1        0.0310
     32  C         15.1970  -23.5600   -4.2860 C.2     1  UNL1        0.0030
     33  C         16.0650  -22.6200   -3.7350 C.2     1  UNL1        0.0120
     34  C         17.1820  -22.1610   -4.4510 C.2     1  UNL1       -0.0240
     35  C         18.0420  -21.2070   -3.8810 C.2     1  UNL1        0.0120
     36  C         17.4400  -22.6620   -5.7530 C.2     1  UNL1        0.0010
     37  C         19.1520  -20.7330   -4.5790 C.2     1  UNL1        0.0010
     38  C         19.4180  -21.2080   -5.8570 C.2     1  UNL1        0.0010
     39  C         18.5750  -22.1610   -6.4370 C.2     1  UNL1        0.0140
@<TRIPOS>BOND
     1    22    21    1
     2    21    20    2
     3    21    23    1
     4    20    19    1
     5    24    23    1
     6    23    17    2
     7    19    18    2
     8    17    18    1
     9    17    12    1
    10    11    12    1
    11    11     8    1
    12    12    13    1
    13    10     7    1
    14     8     7   am
    15     8     9    2
    16     7     1    1
    17    14    13    1
    18     2     1    2
    19     2     3    1
    20    13    15    2
    21    13    16    2
    22     1     6    1
    23     3     4    2
    24     6     5    2
    25     4     5    1
    26     4    25    1
    27    26    25    2
    28    25    27    2
    29    25    28    1
    30    29    28    1
    31    28    30    1
    32    39    38    2
    33    39    36    1
    34    30    36    2
    35    30    31    1
    36    38    37    1
    37    36    34    1
    38    31    32    2
    39    37    35    2
    40    34    35    1
    41    34    33    2
    42    32    33    1
