@<TRIPOS>MOLECULE
40479_out_ligand_01.pdbqt
 32 34 0 0 0
SMALL
GASTEIGER

@<TRIPOS>ATOM
      1  C         17.4950  -22.6470   -9.4140 C.2     1  UNL1        0.0750
      2  C         16.9700  -21.7950  -10.3900 C.2     1  UNL1        0.0250
      3  C         17.8020  -21.3020  -11.3950 C.2     1  UNL1        0.0030
      4  C         19.1500  -21.6650  -11.4280 C.2     1  UNL1        0.0170
      5  C         19.6670  -22.5380  -10.4600 C.2     1  UNL1        0.0330
      6  C         18.8380  -23.0340   -9.4490 C.2     1  UNL1        0.0410
      7  S         16.4510  -23.2620   -8.1120 S.O2    1  UNL1        0.2460
      8  O         15.6850  -22.1470   -7.5940 O.2     1  UNL1       -0.2060
      9  O         15.7910  -24.4460   -8.6220 O.2     1  UNL1       -0.2060
     10  N         17.5420  -23.7780   -6.9290 N.pl3   1  UNL1       -0.1790
     11  H         18.3770  -24.1790   -7.3630 H       1  UNL1        0.1460
     12  C         17.8460  -22.8780   -5.8570 C.2     1  UNL1        0.0560
     13  C         18.7120  -21.8030   -6.0550 C.2     1  UNL1        0.0270
     14  C         19.0310  -20.9670   -4.9860 C.2     1  UNL1        0.0020
     15  C         18.4830  -21.2080   -3.7260 C.2     1  UNL1        0.0030
     16  C         17.6120  -22.2830   -3.5250 C.2     1  UNL1        0.0380
     17  C         17.2890  -23.1270   -4.5880 C.2     1  UNL1        0.0900
     18  O         16.4460  -24.2080   -4.5180 O.2     1  UNL1       -0.3540
     19  C         15.0540  -23.9320   -4.4000 C.3     1  UNL1        0.2100
     20  C         21.1030  -22.9110  -10.4430 C.2     1  UNL1        0.2520
     21  O         21.4860  -23.7840   -9.6740 O.2     1  UNL1       -0.2680
     22  N         21.9050  -22.2280  -11.3280 N.am    1  UNL1       -0.3490
     23  H         21.4890  -21.5470  -11.9470 H       1  UNL1        0.1630
     24  C         23.3570  -22.3470  -11.3760 C.3     1  UNL1        0.1150
     25  C         24.0510  -21.5950  -10.2330 C.3     1  UNL1        0.0370
     26  C         23.8750  -22.0720  -12.7810 C.2     1  UNL1       -0.0180
     27  C         23.1330  -21.2740  -13.6740 C.2     1  UNL1        0.0100
     28  C         23.5890  -21.0080  -14.9680 C.2     1  UNL1        0.0010
     29  C         24.7920  -21.5440  -15.4080 C.2     1  UNL1        0.0010
     30  C         25.5340  -22.3590  -14.5570 C.2     1  UNL1        0.0190
     31  C         25.0790  -22.6290  -13.2580 C.2     1  UNL1        0.0190
     32 BR         26.1600  -23.7960  -12.2120 Br      1  UNL1       -0.0500
@<TRIPOS>BOND
     1    29    28    2
     2    29    30    1
     3    28    27    1
     4    30    31    2
     5    27    26    2
     6    31    26    1
     7    31    32    1
     8    26    24    1
     9    23    22    1
    10     4     3    2
    11     4     5    1
    12     3     2    1
    13    24    22    1
    14    24    25    1
    15    22    20   am
    16     5    20    1
    17     5     6    2
    18    20    21    2
    19     2     1    2
    20     6     1    1
    21     1     7    1
    22     9     7    2
    23     7     8    2
    24     7    10    1
    25    11    10    1
    26    10    12    1
    27    13    12    2
    28    13    14    1
    29    12    17    1
    30    14    15    2
    31    17    18    1
    32    17    16    2
    33    18    19    1
    34    15    16    1
