@<TRIPOS>MOLECULE
40481_out_ligand_01.pdbqt
 32 35 0 0 0
SMALL
GASTEIGER

@<TRIPOS>ATOM
      1  C         22.4590  -22.1280  -11.8820 C.2     1  UNL1        0.0330
      2  C         21.4570  -21.4070  -12.5510 C.2     1  UNL1        0.0170
      3  C         20.1560  -21.3900  -12.0440 C.2     1  UNL1        0.0030
      4  C         19.8490  -22.0960  -10.8780 C.2     1  UNL1        0.0250
      5  C         20.8520  -22.8190  -10.2220 C.2     1  UNL1        0.0800
      6  C         22.1610  -22.8190  -10.7010 C.2     1  UNL1        0.0420
      7  C         23.8560  -22.1910  -12.3780 C.2     1  UNL1        0.2520
      8  O         24.6110  -23.0530  -11.9400 O.2     1  UNL1       -0.2680
      9  N         24.2060  -21.2940  -13.3670 N.am    1  UNL1       -0.3480
     10  H         23.5320  -20.6440  -13.7390 H       1  UNL1        0.1630
     11  C         25.4820  -21.4310  -14.0650 C.3     1  UNL1        0.1180
     12  C         26.3420  -20.1640  -13.8860 C.3     1  UNL1        0.0300
     13  C         26.1500  -19.1650  -15.0330 C.3     1  UNL1        0.0070
     14  C         26.5500  -19.8280  -16.3560 C.3     1  UNL1        0.0390
     15  C         25.7310  -21.0800  -16.5900 C.2     1  UNL1       -0.0500
     16  C         25.5020  -21.5180  -17.9030 C.2     1  UNL1        0.0070
     17  C         25.2370  -21.8350  -15.5110 C.2     1  UNL1       -0.0290
     18  C         24.7470  -22.6630  -18.1520 C.2     1  UNL1        0.0010
     19  C         24.2380  -23.3970  -17.0930 C.2     1  UNL1        0.0010
     20  C         24.4950  -22.9970  -15.7820 C.2     1  UNL1        0.0100
     21  S         20.4640  -23.7150   -8.7380 S.O2    1  UNL1        0.2630
     22  O         20.6020  -22.7930   -7.6310 O.2     1  UNL1       -0.2000
     23  O         21.1670  -24.9800   -8.7470 O.2     1  UNL1       -0.2000
     24  N         18.8010  -23.9840   -8.9050 N.pl3   1  UNL1       -0.2810
     25  H         18.5010  -23.7080   -9.8390 H       1  UNL1        0.1790
     26  C         17.9560  -23.6150   -7.8250 C.2     1  UNL1        0.0420
     27  C         17.1100  -22.5110   -7.9450 C.2     1  UNL1        0.0310
     28  C         16.2580  -22.1610   -6.8980 C.2     1  UNL1        0.0210
     29  C         16.2540  -22.9230   -5.7400 C.2     1  UNL1        0.0110
     30 BR         15.1070  -22.4430   -4.3240 Br      1  UNL1       -0.0510
     31  C         17.0880  -24.0310   -5.6200 C.2     1  UNL1        0.0210
     32  C         17.9370  -24.3830   -6.6690 C.2     1  UNL1        0.0310
@<TRIPOS>BOND
     1    18    16    1
     2    18    19    2
     3    16    15    2
     4    19    20    1
     5    15    14    1
     6    15    17    1
     7    14    13    1
     8    20    17    2
     9    17    11    1
    10    13    12    1
    11    11    12    1
    12    11     9    1
    13    10     9    1
    14     9     7   am
    15     2     3    1
    16     2     1    2
    17     7     8    2
    18     7     1    1
    19     3     4    2
    20     1     6    1
    21     4     5    1
    22     6     5    2
    23     5    21    1
    24    25    24    1
    25    24    21    1
    26    24    26    1
    27    23    21    2
    28    21    22    2
    29    27    26    2
    30    27    28    1
    31    26    32    1
    32    28    29    2
    33    32    31    2
    34    29    31    1
    35    29    30    1
