@<TRIPOS>MOLECULE
40489_out_ligand_01.pdbqt
 34 37 0 0 0
SMALL
GASTEIGER

@<TRIPOS>ATOM
      1  C         19.3760  -22.4880  -10.4930 C.2     1  UNL1        0.0360
      2  C         18.7540  -21.6030  -11.3860 C.2     1  UNL1        0.0290
      3  C         17.4060  -21.2640  -11.2390 C.2     1  UNL1        0.0040
      4  C         16.6620  -21.8040  -10.1950 C.2     1  UNL1        0.0250
      5  C         17.2810  -22.6820   -9.3030 C.2     1  UNL1        0.0770
      6  C         18.6280  -23.0360   -9.4510 C.2     1  UNL1        0.0540
      7  N         20.7360  -22.7690  -10.7140 N.am    1  UNL1       -0.3250
      8  C         21.7810  -22.6960   -9.8090 C.2     1  UNL1        0.2460
      9  O         21.7110  -22.3300   -8.6400 O.2     1  UNL1       -0.2710
     10  H         20.9930  -23.0960  -11.6410 H       1  UNL1        0.1690
     11  C         23.1290  -23.0940  -10.4240 C.3     1  UNL1        0.2780
     12  O         24.2160  -22.2350  -10.1030 O.2     1  UNL1       -0.3420
     13  C         24.8220  -21.5580  -11.1260 C.2     1  UNL1        0.0700
     14  C         25.9210  -20.7100  -11.0140 C.2     1  UNL1        0.0370
     15  C         26.4580  -20.1030  -12.1550 C.2     1  UNL1        0.0150
     16  C         25.9070  -20.3360  -13.4250 C.2     1  UNL1       -0.0260
     17  C         26.4370  -19.7340  -14.5760 C.2     1  UNL1        0.0120
     18  C         24.7960  -21.1990  -13.5430 C.2     1  UNL1       -0.0230
     19  C         25.8770  -19.9790  -15.8310 C.2     1  UNL1        0.0010
     20  C         24.7800  -20.8290  -15.9500 C.2     1  UNL1        0.0010
     21  C         24.2430  -21.4350  -14.8120 C.2     1  UNL1        0.0120
     22  C         24.2700  -21.8020  -12.3880 C.2     1  UNL1        0.0490
     23  S         16.3500  -23.3880   -7.9630 S.O2    1  UNL1        0.2460
     24  O         15.5230  -22.3440   -7.3940 O.2     1  UNL1       -0.2060
     25  O         15.7680  -24.6220   -8.4420 O.2     1  UNL1       -0.2060
     26  N         17.5480  -23.8130   -6.8450 N.pl3   1  UNL1       -0.1780
     27  H         18.3400  -24.2510   -7.3200 H       1  UNL1        0.1460
     28  C         17.8930  -22.8620   -5.8320 C.2     1  UNL1        0.0610
     29  C         18.7430  -21.7910   -6.1080 C.2     1  UNL1        0.0270
     30  C         19.0860  -20.8970   -5.0900 C.2     1  UNL1        0.0020
     31  C         18.5830  -21.0710   -3.7980 C.2     1  UNL1        0.0030
     32  C         17.7310  -22.1390   -3.5210 C.2     1  UNL1        0.0440
     33  C         17.3910  -23.0240   -4.5390 C.2     1  UNL1        0.1380
     34  F         16.5750  -24.0530   -4.2670 F       1  UNL1       -0.2040
@<TRIPOS>BOND
     1    20    19    2
     2    20    21    1
     3    19    17    1
     4    21    18    2
     5    17    16    2
     6    18    16    1
     7    18    22    1
     8    16    15    1
     9    22    13    2
    10    15    14    2
    11    10     7    1
    12     2     3    1
    13     2     1    2
    14     3     4    2
    15    13    14    1
    16    13    12    1
    17     7     1    1
    18     7     8   am
    19     1     6    1
    20    11    12    1
    21    11     8    1
    22     4     5    1
    23     8     9    2
    24     6     5    2
    25     5    23    1
    26    25    23    2
    27    23    24    2
    28    23    26    1
    29    27    26    1
    30    26    28    1
    31    29    28    2
    32    29    30    1
    33    28    33    1
    34    30    31    2
    35    33    34    1
    36    33    32    2
    37    31    32    1
