@<TRIPOS>MOLECULE
40483_out_ligand_01.pdbqt
 34 37 0 0 0
SMALL
GASTEIGER

@<TRIPOS>ATOM
      1  C         18.9780  -21.4290  -11.3550 C.2     1  UNL1       -0.0360
      2  C         19.7600  -20.6610  -12.2270 C.2     1  UNL1        0.0130
      3  C         21.1360  -20.8790  -12.3200 C.2     1  UNL1        0.0260
      4  C         21.7260  -21.8880  -11.5520 C.2     1  UNL1        0.0790
      5  C         20.9570  -22.6620  -10.6780 C.2     1  UNL1        0.0260
      6  C         19.5830  -22.4350  -10.5890 C.2     1  UNL1        0.0130
      7  C         17.5360  -21.1880  -11.2810 C.2     1  UNL1        0.0170
      8  C         16.6730  -21.7770  -10.4380 C.2     1  UNL1        0.0750
      9  C         17.0050  -22.7530   -9.3740 C.2     1  UNL1        0.2410
     10  O         16.6760  -23.9250   -9.4890 O.2     1  UNL1       -0.2690
     11  N         17.6100  -22.2080   -8.2770 N.am    1  UNL1       -0.3490
     12  H         17.8640  -21.2290   -8.2790 H       1  UNL1        0.1630
     13  C         17.9950  -23.0060   -7.1240 C.3     1  UNL1        0.1180
     14  C         19.3620  -22.5590   -6.5800 C.3     1  UNL1        0.0300
     15  C         19.2390  -21.2760   -5.7630 C.3     1  UNL1        0.0070
     16  C         18.3460  -21.5010   -4.5480 C.3     1  UNL1        0.0390
     17  C         17.0490  -22.1920   -4.8900 C.2     1  UNL1       -0.0500
     18  C         15.9930  -22.1450   -3.9660 C.2     1  UNL1        0.0070
     19  C         16.8970  -22.9310   -6.0790 C.2     1  UNL1       -0.0290
     20  C         14.7910  -22.8040   -4.2250 C.2     1  UNL1        0.0010
     21  C         14.6330  -23.5230   -5.4040 C.2     1  UNL1        0.0010
     22  C         15.6770  -23.5870   -6.3260 C.2     1  UNL1        0.0100
     23  S         23.4850  -22.1430  -11.6430 S.O2    1  UNL1        0.2630
     24  O         23.7160  -23.5360  -11.9610 O.2     1  UNL1       -0.2000
     25  O         24.0700  -21.5380  -10.4640 O.2     1  UNL1       -0.2000
     26  N         23.9520  -21.1790  -12.9530 N.pl3   1  UNL1       -0.2790
     27  H         23.1730  -20.6040  -13.2760 H       1  UNL1        0.1790
     28  C         24.7540  -21.7680  -13.9830 C.2     1  UNL1        0.0640
     29  C         24.1540  -22.2200  -15.1600 C.2     1  UNL1        0.0320
     30  C         24.9350  -22.7610  -16.1840 C.2     1  UNL1        0.0020
     31  C         26.3180  -22.8540  -16.0350 C.2     1  UNL1        0.0020
     32  C         26.9260  -22.4110  -14.8600 C.2     1  UNL1        0.0260
     33  C         26.1460  -21.8720  -13.8360 C.2     1  UNL1        0.0610
     34 CL         26.9310  -21.3360  -12.3910 Cl      1  UNL1       -0.0820
@<TRIPOS>BOND
     1    30    31    2
     2    30    29    1
     3    31    32    1
     4    29    28    2
     5    32    33    2
     6    28    33    1
     7    28    26    1
     8    33    34    1
     9    27    26    1
    10    26    23    1
    11     3     2    1
    12     3     4    2
    13     2     1    2
    14    24    23    2
    15    23     4    1
    16    23    25    2
    17     4     5    1
    18     1     7    1
    19     1     6    1
    20     7     8    2
    21     5     6    2
    22     8     9    1
    23    10     9    2
    24     9    11   am
    25    12    11    1
    26    11    13    1
    27    13    14    1
    28    13    19    1
    29    14    15    1
    30    22    19    1
    31    22    21    2
    32    19    17    2
    33    15    16    1
    34    21    20    1
    35    17    16    1
    36    17    18    1
    37    20    18    2
