@<TRIPOS>MOLECULE
40509_out_ligand_01.pdbqt
 37 40 0 0 0
SMALL
GASTEIGER

@<TRIPOS>ATOM
      1  C         21.4200  -22.0940  -10.0170 C.2     1  UNL1        0.0820
      2  C         21.3840  -21.1580  -11.0470 C.2     1  UNL1        0.0260
      3  C         20.1900  -20.9520  -11.7320 C.2     1  UNL1        0.0100
      4  C         19.0310  -21.6770  -11.3990 C.2     1  UNL1       -0.0350
      5  C         17.7750  -21.4040  -12.1840 C.3     1  UNL1        0.0500
      6  C         19.0790  -22.6350  -10.3590 C.2     1  UNL1        0.0420
      7  C         20.2790  -22.8240   -9.6660 C.2     1  UNL1        0.0550
      8  N         17.9040  -23.3560  -10.0430 N.am    1  UNL1       -0.3270
      9  C         16.7700  -22.8910   -9.3940 C.2     1  UNL1        0.2220
     10  O         16.6210  -21.7840   -8.8910 O.2     1  UNL1       -0.2730
     11  H         17.8950  -24.3350  -10.2930 H       1  UNL1        0.1690
     12  C         15.7000  -23.9680   -9.3000 C.3     1  UNL1        0.1030
     13  C         15.4760  -24.4820   -7.8780 C.3     1  UNL1        0.0140
     14  C         16.7590  -24.6800   -7.0600 C.3     1  UNL1        0.0410
     15  C         16.8780  -23.7610   -5.8850 C.2     1  UNL1       -0.0300
     16  C         16.0750  -23.7760   -4.7600 C.2     1  UNL1        0.0960
     17  N         16.4930  -22.7830   -3.9190 N.pl3   1  UNL1       -0.3650
     18  C         17.5670  -22.1190   -4.4630 C.2     1  UNL1        0.0420
     19  H         16.0720  -22.5580   -3.0270 H       1  UNL1        0.1650
     20  C         18.3150  -21.0480   -3.9570 C.2     1  UNL1        0.0300
     21  C         17.8270  -22.7040   -5.7020 C.2     1  UNL1       -0.0020
     22  C         19.3620  -20.5600   -4.7450 C.2     1  UNL1        0.0020
     23  C         19.6450  -21.1210   -5.9880 C.2     1  UNL1        0.0010
     24  C         18.8860  -22.1890   -6.4780 C.2     1  UNL1        0.0140
     25  S         22.9240  -22.3660   -9.1180 S.O2    1  UNL1        0.2630
     26  O         22.8680  -21.6270   -7.8750 O.2     1  UNL1       -0.2000
     27  O         23.1700  -23.7930   -9.1220 O.2     1  UNL1       -0.2000
     28  N         24.0920  -21.6760  -10.1220 N.pl3   1  UNL1       -0.2810
     29  H         23.7990  -20.7640  -10.4690 H       1  UNL1        0.1790
     30  C         24.8140  -22.5270  -10.9980 C.2     1  UNL1        0.0420
     31  C         26.0980  -22.9480  -10.6580 C.2     1  UNL1        0.0330
     32  C         26.8260  -23.7570  -11.5370 C.2     1  UNL1        0.0390
     33  C         26.2700  -24.1430  -12.7580 C.2     1  UNL1        0.0680
     34  C         24.9830  -23.7100  -13.0920 C.2     1  UNL1        0.0390
     35  C         24.2550  -22.8980  -12.2170 C.2     1  UNL1        0.0330
     36  O         26.8690  -24.9280  -13.7040 O.2     1  UNL1       -0.3560
     37  C         26.1460  -25.1490  -14.9080 C.3     1  UNL1        0.2100
@<TRIPOS>BOND
     1    37    36    1
     2    36    33    1
     3    34    33    2
     4    34    35    1
     5    33    32    1
     6    35    30    2
     7     5     4    1
     8     3     4    2
     9     3     2    1
    10    32    31    2
    11     4     6    1
    12     2     1    2
    13    30    31    1
    14    30    28    1
    15    29    28    1
    16     6     8    1
    17     6     7    2
    18    11     8    1
    19    28    25    1
    20     8     9   am
    21     1     7    1
    22     1    25    1
    23     9    12    1
    24     9    10    2
    25    12    13    1
    26    27    25    2
    27    25    26    2
    28    13    14    1
    29    14    15    1
    30    24    23    2
    31    24    21    1
    32    23    22    1
    33    15    21    1
    34    15    16    2
    35    21    18    2
    36    16    17    1
    37    22    20    2
    38    18    20    1
    39    18    17    1
    40    17    19    1
