@<TRIPOS>MOLECULE
40501_out_ligand_01.pdbqt
 33 36 0 0 0
SMALL
GASTEIGER

@<TRIPOS>ATOM
      1  C         20.3330  -22.4380  -10.7040 C.2     1  UNL1        0.0320
      2  C         20.4190  -23.3800   -9.6710 C.2     1  UNL1        0.0180
      3  C         19.2740  -23.7200   -8.9500 C.2     1  UNL1        0.0260
      4  C         18.0580  -23.0950   -9.2530 C.2     1  UNL1        0.0740
      5  C         17.9710  -22.1490  -10.2820 C.2     1  UNL1        0.0260
      6  C         19.1180  -21.8100  -11.0000 C.2     1  UNL1        0.0180
      7  C         21.5440  -22.0380  -11.4500 C.2     1  UNL1        0.2530
      8  N         22.7930  -22.4080  -10.9570 N.am    1  UNL1       -0.3480
      9  C         23.0020  -23.2880   -9.8140 C.3     1  UNL1        0.1530
     10  O         21.3760  -21.3780  -12.4730 O.2     1  UNL1       -0.2670
     11  C         23.9740  -21.7630  -11.5250 C.3     1  UNL1        0.1640
     12  C         24.3250  -22.3300  -12.8820 C.2     1  UNL1       -0.0370
     13  C         24.8930  -23.6090  -13.0030 C.2     1  UNL1        0.0120
     14  C         25.2270  -24.1190  -14.2610 C.2     1  UNL1        0.0400
     15  C         24.9970  -23.3570  -15.4050 C.2     1  UNL1        0.1020
     16  C         24.4610  -22.0690  -15.2930 C.2     1  UNL1        0.1020
     17  O         25.3270  -23.9310  -16.6050 O.2     1  UNL1       -0.3460
     18  C         24.1130  -21.5650  -14.0410 C.2     1  UNL1        0.0480
     19  O         24.2410  -21.2510  -16.3710 O.2     1  UNL1       -0.3460
     20  C         24.9260  -21.7240  -17.5360 C.3     1  UNL1        0.2020
     21  C         24.7330  -23.2230  -17.7000 C.3     1  UNL1        0.2020
     22  S         16.6040  -23.5250   -8.3190 S.O2    1  UNL1        0.2450
     23  O         15.4990  -23.6590   -9.2460 O.2     1  UNL1       -0.2060
     24  O         16.9730  -24.6070   -7.4310 O.2     1  UNL1       -0.2060
     25  N         16.3550  -22.1630   -7.3440 N.pl3   1  UNL1       -0.1780
     26  H         15.5280  -21.6480   -7.6510 H       1  UNL1        0.1460
     27  C         16.4730  -22.3210   -5.9270 C.2     1  UNL1        0.0610
     28  C         15.3530  -22.5760   -5.1360 C.2     1  UNL1        0.0270
     29  C         15.4960  -22.6780   -3.7480 C.2     1  UNL1        0.0020
     30  C         16.7510  -22.5170   -3.1530 C.2     1  UNL1        0.0030
     31  C         17.8710  -22.2600   -3.9430 C.2     1  UNL1        0.0440
     32  C         17.7240  -22.1660   -5.3230 C.2     1  UNL1        0.1380
     33  F         18.8010  -21.9100   -6.0840 F       1  UNL1       -0.2040
@<TRIPOS>BOND
     1    21    20    1
     2    21    17    1
     3    20    19    1
     4    17    15    1
     5    19    16    1
     6    15    16    2
     7    15    14    1
     8    16    18    1
     9    14    13    2
    10    18    12    2
    11    13    12    1
    12    12    11    1
    13    10     7    2
    14    11     8    1
    15     7     8   am
    16     7     1    1
    17     6     1    2
    18     6     5    1
    19     8     9    1
    20     1     2    1
    21     5     4    2
    22     2     3    2
    23     4     3    1
    24     4    22    1
    25    23    22    2
    26    22    24    2
    27    22    25    1
    28    26    25    1
    29    25    27    1
    30    33    32    1
    31    27    32    2
    32    27    28    1
    33    32    31    1
    34    28    29    2
    35    31    30    2
    36    29    30    1
