@<TRIPOS>MOLECULE
40513_out_ligand_01.pdbqt
 33 36 0 0 0
SMALL
GASTEIGER

@<TRIPOS>ATOM
      1  C         21.8040  -23.3780   -8.8480 C.2     1  UNL1        0.0320
      2  C         21.2500  -22.2720   -8.1950 C.2     1  UNL1        0.0180
      3  C         20.0010  -22.3860   -7.5800 C.2     1  UNL1        0.0260
      4  C         19.3180  -23.6060   -7.6300 C.2     1  UNL1        0.0790
      5  C         19.8520  -24.7030   -8.3160 C.2     1  UNL1        0.0260
      6  C         21.0990  -24.5870   -8.9310 C.2     1  UNL1        0.0180
      7  C         23.1140  -23.2270   -9.5160 C.2     1  UNL1        0.2530
      8  N         23.1700  -22.5930  -10.7550 N.am    1  UNL1       -0.3480
      9  C         22.0090  -22.1420  -11.5100 C.3     1  UNL1        0.1530
     10  O         24.0960  -23.6730   -8.9280 O.2     1  UNL1       -0.2670
     11  C         24.4830  -22.2260  -11.2780 C.3     1  UNL1        0.1640
     12  C         24.6650  -22.6660  -12.7110 C.2     1  UNL1       -0.0370
     13  C         25.1100  -23.9670  -13.0010 C.2     1  UNL1        0.0120
     14  C         25.2860  -24.3800  -14.3230 C.2     1  UNL1        0.0400
     15  C         25.0190  -23.4970  -15.3660 C.2     1  UNL1        0.1020
     16  C         24.6080  -22.1900  -15.0890 C.2     1  UNL1        0.1020
     17  O         25.1880  -23.9790  -16.6400 O.2     1  UNL1       -0.3460
     18  C         24.4180  -21.7800  -13.7690 C.2     1  UNL1        0.0480
     19  O         24.3620  -21.2560  -16.0640 O.2     1  UNL1       -0.3460
     20  C         24.8930  -21.6700  -17.3280 C.3     1  UNL1        0.2020
     21  C         24.5560  -23.1270  -17.6020 C.3     1  UNL1        0.2020
     22  S         17.7210  -23.7510   -6.8620 S.O2    1  UNL1        0.2630
     23  O         17.6440  -25.0220   -6.1760 O.2     1  UNL1       -0.2000
     24  O         17.4610  -22.5080   -6.1670 O.2     1  UNL1       -0.2000
     25  N         16.6770  -23.7640   -8.1950 N.pl3   1  UNL1       -0.2810
     26  H         16.3480  -24.7120   -8.3750 H       1  UNL1        0.1790
     27  C         17.0290  -22.9720   -9.3200 C.2     1  UNL1        0.0420
     28  C         16.5730  -21.6540   -9.4000 C.2     1  UNL1        0.0330
     29  C         16.9460  -20.8580  -10.4850 C.2     1  UNL1        0.0440
     30  C         17.7730  -21.3860  -11.4710 C.2     1  UNL1        0.1160
     31  F         18.1310  -20.6210  -12.5100 F       1  UNL1       -0.2060
     32  C         18.2360  -22.6950  -11.3940 C.2     1  UNL1        0.0440
     33  C         17.8640  -23.4940  -10.3100 C.2     1  UNL1        0.0330
@<TRIPOS>BOND
     1    21    20    1
     2    21    17    1
     3    20    19    1
     4    17    15    1
     5    19    16    1
     6    15    16    2
     7    15    14    1
     8    16    18    1
     9    14    13    2
    10    18    12    2
    11    13    12    1
    12    12    11    1
    13    31    30    1
    14     9     8    1
    15    30    32    2
    16    30    29    1
    17    32    33    1
    18    11     8    1
    19     8     7   am
    20    29    28    2
    21    33    27    2
    22     7    10    2
    23     7     1    1
    24    28    27    1
    25    27    25    1
    26     6     1    2
    27     6     5    1
    28     1     2    1
    29    26    25    1
    30     5     4    2
    31    25    22    1
    32     2     3    2
    33     4     3    1
    34     4    22    1
    35    22    23    2
    36    22    24    2
