@<TRIPOS>MOLECULE
40516_out_ligand_01.pdbqt
 33 36 0 0 0
SMALL
GASTEIGER

@<TRIPOS>ATOM
      1  C         20.5870  -22.5440   -7.7410 C.2     1  UNL1        0.0330
      2  C         20.8740  -21.4930   -6.8570 C.2     1  UNL1        0.0170
      3  C         19.9060  -21.0530   -5.9490 C.2     1  UNL1        0.0030
      4  C         18.6520  -21.6620   -5.9130 C.2     1  UNL1        0.0250
      5  C         18.3700  -22.7140   -6.7900 C.2     1  UNL1        0.0800
      6  C         19.3350  -23.1720   -7.6910 C.2     1  UNL1        0.0420
      7  C         21.5910  -23.0470   -8.7240 C.2     1  UNL1        0.2560
      8  O         21.7820  -24.2550   -8.7810 O.2     1  UNL1       -0.2670
      9  N         22.1850  -22.0760   -9.5110 N.am    1  UNL1       -0.3230
     10  H         21.8380  -21.1300   -9.4220 H       1  UNL1        0.1690
     11  C         23.1770  -22.2620  -10.4970 C.2     1  UNL1        0.0370
     12  C         24.4430  -22.7940  -10.2410 C.2     1  UNL1        0.0320
     13  C         25.3650  -22.9590  -11.2810 C.2     1  UNL1        0.0420
     14  C         25.0440  -22.5630  -12.5770 C.2     1  UNL1        0.1020
     15  C         23.7860  -22.0220  -12.8400 C.2     1  UNL1        0.1040
     16  O         25.9690  -22.8310  -13.5470 O.2     1  UNL1       -0.3480
     17  C         22.8540  -21.8880  -11.8070 C.2     1  UNL1        0.0690
     18  O         23.3530  -21.6970  -14.0980 O.2     1  UNL1       -0.3480
     19  C         24.1480  -20.6760  -14.7000 C.3     1  UNL1        0.1780
     20  C         25.4280  -21.2270  -15.3080 C.3     1  UNL1        0.0530
     21  C         26.4050  -21.6540  -14.2240 C.3     1  UNL1        0.1780
     22  S         16.7850  -23.5120   -6.7060 S.O2    1  UNL1        0.2590
     23  O         15.8060  -22.5040   -6.3650 O.2     1  UNL1       -0.2010
     24  O         16.9300  -24.7300   -5.9420 O.2     1  UNL1       -0.2010
     25  N         16.5040  -23.9260   -8.2960 N.3     1  UNL1       -0.3110
     26  H         16.4680  -24.9220   -8.4990 H       1  UNL1        0.1720
     27  C         15.8650  -22.9780   -9.1950 C.3     1  UNL1        0.1720
     28  C         16.8680  -22.3600  -10.1260 C.2     1  UNL1       -0.0220
     29  C         18.0720  -22.9960  -10.4420 C.2     1  UNL1        0.0120
     30  C         18.9780  -22.3730  -11.2970 C.2     1  UNL1        0.0200
     31  C         18.6510  -21.1270  -11.8050 C.2     1  UNL1        0.1160
     32  N         17.5040  -20.4780  -11.5140 N.2     1  UNL1       -0.2730
     33  C         16.6430  -21.1040  -10.6800 C.2     1  UNL1        0.1240
@<TRIPOS>BOND
     1    20    19    1
     2    20    21    1
     3    19    18    1
     4    21    16    1
     5    18    15    1
     6    16    14    1
     7    15    14    2
     8    15    17    1
     9    14    13    1
    10    17    11    2
    11    31    32    2
    12    31    30    1
    13    32    33    1
    14    30    29    2
    15    13    12    2
    16    33    28    2
    17    11    12    1
    18    11     9    1
    19    29    28    1
    20    28    27    1
    21     9    10    1
    22     9     7   am
    23    27    25    1
    24     8     7    2
    25     7     1    1
    26    26    25    1
    27    25    22    1
    28     1     6    2
    29     1     2    1
    30     6     5    1
    31     2     3    2
    32     5    22    1
    33     5     4    2
    34    22    23    2
    35    22    24    2
    36     3     4    1
