@<TRIPOS>MOLECULE
4051_out_ligand_01.pdbqt
 32 35 0 0 0
SMALL
GASTEIGER

@<TRIPOS>ATOM
      1  C         21.3830  -22.9240  -10.3470 C.2     1  UNL1        0.0340
      2  C         20.8150  -23.7360   -9.3620 C.2     1  UNL1        0.0310
      3  C         19.4550  -23.6320   -9.0520 C.2     1  UNL1        0.0270
      4  C         18.6630  -22.6960   -9.7200 C.2     1  UNL1        0.0800
      5  C         19.2110  -21.8910  -10.7190 C.2     1  UNL1        0.0270
      6  C         20.5690  -22.0060  -11.0260 C.2     1  UNL1        0.0310
      7  N         22.7400  -22.9680  -10.7170 N.am    1  UNL1       -0.3250
      8  C         23.7530  -22.0870  -10.3660 C.2     1  UNL1        0.2540
      9  O         23.6400  -21.1140   -9.6270 O.2     1  UNL1       -0.2700
     10  H         23.0150  -23.6950  -11.3710 H       1  UNL1        0.1690
     11  C         25.1190  -22.5080  -10.9430 C.3     1  UNL1        0.2450
     12  C         26.0970  -21.3410  -10.9770 C.3     1  UNL1        0.2180
     13  O         25.7350  -20.3680  -11.9640 O.2     1  UNL1       -0.3450
     14  C         25.3850  -20.9550  -13.1490 C.2     1  UNL1        0.1020
     15  C         25.3430  -20.1260  -14.2690 C.2     1  UNL1        0.0390
     16  C         25.0650  -22.3080  -13.2680 C.2     1  UNL1        0.1030
     17  C         25.0120  -20.6570  -15.5160 C.2     1  UNL1        0.0030
     18  C         24.7210  -22.0160  -15.6420 C.2     1  UNL1        0.0030
     19  C         24.7470  -22.8420  -14.5170 C.2     1  UNL1        0.0400
     20  O         25.0310  -23.1730  -12.2080 O.2     1  UNL1       -0.3310
     21  S         16.9320  -22.5600   -9.3330 S.O2    1  UNL1        0.2630
     22  O         16.4060  -23.8940   -9.1350 O.2     1  UNL1       -0.2000
     23  O         16.3420  -21.6580  -10.3010 O.2     1  UNL1       -0.2000
     24  N         16.9350  -21.7260   -7.8630 N.pl3   1  UNL1       -0.2810
     25  H         17.6850  -21.0390   -7.8160 H       1  UNL1        0.1790
     26  C         16.5720  -22.4080   -6.6690 C.2     1  UNL1        0.0420
     27  C         17.5420  -23.0040   -5.8630 C.2     1  UNL1        0.0330
     28  C         17.1680  -23.6440   -4.6800 C.2     1  UNL1        0.0440
     29  C         15.8270  -23.6810   -4.3170 C.2     1  UNL1        0.1160
     30  F         15.4660  -24.2960   -3.1830 F       1  UNL1       -0.2060
     31  C         14.8520  -23.0900   -5.1150 C.2     1  UNL1        0.0440
     32  C         15.2250  -22.4520   -6.2990 C.2     1  UNL1        0.0330
@<TRIPOS>BOND
     1    18    17    2
     2    18    19    1
     3    17    15    1
     4    19    16    2
     5    15    14    2
     6    16    14    1
     7    16    20    1
     8    14    13    1
     9    20    11    1
    10    13    12    1
    11    10     7    1
    12     6     5    1
    13     6     1    2
    14    12    11    1
    15    11     8    1
    16     5     4    2
    17     7     8   am
    18     7     1    1
    19     8     9    2
    20     1     2    1
    21    23    21    2
    22     4    21    1
    23     4     3    1
    24     2     3    2
    25    21    22    2
    26    21    24    1
    27    24    25    1
    28    24    26    1
    29    26    32    2
    30    26    27    1
    31    32    31    1
    32    27    28    2
    33    31    29    2
    34    28    29    1
    35    29    30    1
