@<TRIPOS>MOLECULE
40514_out_ligand_01.pdbqt
 36 39 0 0 0
SMALL
GASTEIGER

@<TRIPOS>ATOM
      1  C         17.3910  -22.6230   -9.6140 C.2     1  UNL1        0.0750
      2  C         16.9350  -21.6300  -10.4870 C.2     1  UNL1        0.0250
      3  C         17.8140  -21.0720  -11.4160 C.2     1  UNL1        0.0030
      4  C         19.1420  -21.5040  -11.4720 C.2     1  UNL1        0.0170
      5  C         19.5850  -22.5120  -10.6060 C.2     1  UNL1        0.0330
      6  C         18.7060  -23.0870   -9.6860 C.2     1  UNL1        0.0410
      7  S         16.2780  -23.3400   -8.4230 S.O2    1  UNL1        0.2460
      8  O         15.5650  -22.2500   -7.7910 O.2     1  UNL1       -0.2060
      9  O         15.5730  -24.4160   -9.0840 O.2     1  UNL1       -0.2060
     10  N         17.3160  -23.9810   -7.2430 N.pl3   1  UNL1       -0.1790
     11  H         16.9780  -24.9000   -6.9500 H       1  UNL1        0.1460
     12  C         17.6760  -23.1370   -6.1420 C.2     1  UNL1        0.0580
     13  C         18.6000  -22.1080   -6.3280 C.2     1  UNL1        0.0630
     14  C         18.8880  -21.2560   -5.2560 C.2     1  UNL1        0.1040
     15  C         18.2570  -21.4290   -4.0140 C.2     1  UNL1        0.0390
     16  C         17.3310  -22.4640   -3.8390 C.2     1  UNL1        0.0410
     17  C         17.0360  -23.3250   -4.8990 C.2     1  UNL1        0.0900
     18  N         19.8650  -20.1740   -5.4280 N.pl3   1  UNL1       -0.1160
     19  O         19.5130  -19.0240   -5.1320 O.2     1  UNL1       -0.5320
     20  O         20.9800  -20.4750   -5.8760 O.2     1  UNL1       -0.5320
     21  O         16.1450  -24.3690   -4.8490 O.2     1  UNL1       -0.3540
     22  C         14.7690  -24.0300   -4.7060 C.3     1  UNL1        0.2100
     23  C         20.9990  -22.9530  -10.5930 C.2     1  UNL1        0.2520
     24  O         21.3390  -23.8580   -9.8420 O.2     1  UNL1       -0.2680
     25  N         21.8330  -22.3050  -11.4720 N.am    1  UNL1       -0.3480
     26  H         21.4470  -21.6680  -12.1570 H       1  UNL1        0.1630
     27  C         23.2370  -22.6640  -11.6220 C.3     1  UNL1        0.1180
     28  C         23.8930  -22.6420  -10.2330 C.3     1  UNL1        0.0300
     29  C         25.4100  -22.7000  -10.3410 C.3     1  UNL1        0.0070
     30  C         25.9290  -21.4660  -11.0740 C.3     1  UNL1        0.0390
     31  C         25.1980  -21.2030  -12.3690 C.2     1  UNL1       -0.0500
     32  C         25.8030  -20.3740  -13.3270 C.2     1  UNL1        0.0070
     33  C         23.9240  -21.7450  -12.6210 C.2     1  UNL1       -0.0290
     34  C         25.1710  -20.1110  -14.5430 C.2     1  UNL1        0.0010
     35  C         23.9290  -20.6720  -14.8130 C.2     1  UNL1        0.0010
     36  C         23.3150  -21.4880  -13.8640 C.2     1  UNL1        0.0100
@<TRIPOS>BOND
     1    35    34    2
     2    35    36    1
     3    34    32    1
     4    36    33    2
     5    32    31    2
     6    33    31    1
     7    33    27    1
     8    31    30    1
     9    26    25    1
    10    27    25    1
    11    27    28    1
    12     4     3    2
    13     4     5    1
    14    25    23   am
    15     3     2    1
    16    30    29    1
    17     5    23    1
    18     5     6    2
    19    23    24    2
    20     2     1    2
    21    29    28    1
    22     6     1    1
    23     1     7    1
    24     9     7    2
    25     7     8    2
    26     7    10    1
    27    10    11    1
    28    10    12    1
    29    13    12    2
    30    13    14    1
    31    12    17    1
    32    20    18    2
    33    18    14    1
    34    18    19    2
    35    14    15    2
    36    17    21    1
    37    17    16    2
    38    21    22    1
    39    15    16    1
