@<TRIPOS>MOLECULE
40524_out_ligand_01.pdbqt
 35 39 0 0 0
SMALL
GASTEIGER

@<TRIPOS>ATOM
      1  C         19.0930  -22.2190  -10.6680 C.2     1  UNL1        0.0330
      2  C         18.3310  -21.3480  -11.4610 C.2     1  UNL1        0.0170
      3  C         16.9810  -21.1340  -11.1710 C.2     1  UNL1        0.0030
      4  C         16.3880  -21.7820  -10.0880 C.2     1  UNL1        0.0250
      5  C         17.1490  -22.6530   -9.3030 C.2     1  UNL1        0.0800
      6  C         18.4930  -22.8970   -9.6030 C.2     1  UNL1        0.0420
      7  C         20.5400  -22.4570  -10.9350 C.2     1  UNL1        0.2560
      8  O         21.1400  -23.2360  -10.2060 O.2     1  UNL1       -0.2670
      9  N         21.0670  -21.7100  -11.9740 N.am    1  UNL1       -0.3230
     10  H         20.4610  -21.0240  -12.4030 H       1  UNL1        0.1690
     11  C         22.4000  -21.7200  -12.4410 C.2     1  UNL1        0.0370
     12  C         23.3910  -22.1350  -11.5240 C.2     1  UNL1        0.0320
     13  C         24.7410  -22.1920  -11.8900 C.2     1  UNL1        0.0420
     14  C         25.0670  -21.8270  -13.1760 C.2     1  UNL1        0.1060
     15  C         24.1110  -21.4130  -14.0720 C.2     1  UNL1        0.1080
     16  O         26.3170  -21.8240  -13.7090 O.2     1  UNL1       -0.3110
     17  C         22.7730  -21.3490  -13.7380 C.2     1  UNL1        0.0690
     18  O         24.6460  -21.0930  -15.2820 O.2     1  UNL1       -0.3110
     19  C         26.0440  -21.3780  -15.0510 C.3     1  UNL1        0.1760
     20  C         26.5330  -22.4060  -16.0710 C.3     1  UNL1        0.0690
     21  C         26.8850  -20.1470  -15.3900 C.3     1  UNL1        0.0690
     22  C         26.6650  -21.5970  -17.3550 C.3     1  UNL1        0.0060
     23  C         27.0600  -20.1860  -16.9100 C.3     1  UNL1        0.0060
     24  S         16.3890  -23.4880   -7.9270 S.O2    1  UNL1        0.2630
     25  O         15.5860  -22.5120   -7.2210 O.2     1  UNL1       -0.2000
     26  O         15.8120  -24.7220   -8.4140 O.2     1  UNL1       -0.2000
     27  N         17.7000  -23.8380   -6.9170 N.pl3   1  UNL1       -0.2780
     28  H         17.6650  -24.8080   -6.6000 H       1  UNL1        0.1790
     29  C         18.0680  -22.8780   -5.9230 C.2     1  UNL1        0.0810
     30  C         18.8780  -21.7880   -6.2380 C.2     1  UNL1        0.0330
     31  C         19.1680  -20.8330   -5.2590 C.2     1  UNL1        0.0020
     32  C         18.6590  -20.9730   -3.9640 C.2     1  UNL1        0.0030
     33  C         17.8540  -22.0650   -3.6460 C.2     1  UNL1        0.0440
     34  C         17.5600  -23.0060   -4.6280 C.2     1  UNL1        0.1430
     35  F         16.7660  -24.0450   -4.3250 F       1  UNL1       -0.2040
@<TRIPOS>BOND
     1    22    23    1
     2    22    20    1
     3    23    21    1
     4    20    19    1
     5    21    19    1
     6    18    19    1
     7    18    15    1
     8    19    16    1
     9    15    17    1
    10    15    14    2
    11    17    11    2
    12    16    14    1
    13    14    13    1
    14    11     9    1
    15    11    12    1
    16    10     9    1
    17     9     7   am
    18    13    12    2
    19     2     3    1
    20     2     1    2
    21     3     4    2
    22     7     1    1
    23     7     8    2
    24     1     6    1
    25     4     5    1
    26     6     5    2
    27     5    24    1
    28    26    24    2
    29    24    25    2
    30    24    27    1
    31    27    28    1
    32    27    29    1
    33    30    29    2
    34    30    31    1
    35    29    34    1
    36    31    32    2
    37    34    35    1
    38    34    33    2
    39    32    33    1
