@<TRIPOS>MOLECULE
4052_out_ligand_01.pdbqt
 42 45 0 0 0
SMALL
GASTEIGER

@<TRIPOS>ATOM
      1  N         21.5200  -22.9970   -8.9840 N.am    1  UNL1       -0.3260
      2  C         20.6930  -24.0860   -8.7660 C.2     1  UNL1        0.2410
      3  O         20.7690  -25.1650   -9.3480 O.2     1  UNL1       -0.2710
      4  H         21.2560  -22.1190   -8.5400 H       1  UNL1        0.1690
      5  C         19.6420  -23.8680   -7.6850 C.3     1  UNL1        0.2450
      6  N         18.2350  -23.7340   -8.1460 N.pl3   1  UNL1       -0.2630
      7  C         18.0170  -22.8670   -9.2720 C.2     1  UNL1        0.0450
      8  C         16.8260  -22.1370   -9.2950 C.2     1  UNL1        0.0300
      9  C         16.5160  -21.3310  -10.3920 C.2     1  UNL1        0.0020
     10  C         17.3940  -21.2600  -11.4710 C.2     1  UNL1        0.0000
     11  C         18.5690  -22.0080  -11.4650 C.2     1  UNL1        0.0020
     12  C         18.8740  -22.8230  -10.3750 C.2     1  UNL1        0.0300
     13  S         17.0540  -23.8620   -6.9510 S.O2    1  UNL1        0.2680
     14  O         15.7880  -23.4090   -7.4850 O.2     1  UNL1       -0.2000
     15  O         17.1370  -25.2080   -6.4140 O.2     1  UNL1       -0.2000
     16  C         17.5440  -22.7150   -5.7010 C.2     1  UNL1        0.1130
     17  C         18.5890  -21.8190   -5.9760 C.2     1  UNL1        0.0280
     18  C         19.0420  -20.9440   -4.9850 C.2     1  UNL1        0.0020
     19  C         18.4660  -20.9630   -3.7130 C.2     1  UNL1        0.0030
     20  C         17.4360  -21.8600   -3.4230 C.2     1  UNL1        0.0380
     21  C         16.9820  -22.7330   -4.4230 C.2     1  UNL1        0.1260
     22  N         15.8960  -23.6290   -4.0690 N.pl3   1  UNL1       -0.1140
     23  O         14.7600  -23.3140   -4.4440 O.2     1  UNL1       -0.5320
     24  O         16.1820  -24.5940   -3.3490 O.2     1  UNL1       -0.5320
     25  C         22.6130  -22.9050   -9.8700 C.2     1  UNL1        0.0340
     26  C         22.3480  -22.3920  -11.1470 C.2     1  UNL1        0.0310
     27  C         23.3660  -22.2710  -12.0970 C.2     1  UNL1        0.0270
     28  C         24.6620  -22.6590  -11.7620 C.2     1  UNL1        0.0800
     29  C         24.9470  -23.1540  -10.4880 C.2     1  UNL1        0.0270
     30  C         23.9190  -23.2790   -9.5460 C.2     1  UNL1        0.0310
     31  S         25.9700  -22.5210  -12.9530 S.O2    1  UNL1        0.2630
     32  O         26.0750  -23.8020  -13.6190 O.2     1  UNL1       -0.2000
     33  O         27.1210  -21.9150  -12.3190 O.2     1  UNL1       -0.2000
     34  N         25.3300  -21.4470  -14.0930 N.pl3   1  UNL1       -0.2810
     35  H         24.4390  -21.0740  -13.7700 H       1  UNL1        0.1790
     36  C         25.4280  -21.7990  -15.4660 C.2     1  UNL1        0.0430
     37  C         26.5710  -21.4610  -16.1890 C.2     1  UNL1        0.0300
     38  C         26.6780  -21.8280  -17.5310 C.2     1  UNL1        0.0030
     39  C         25.6470  -22.5440  -18.1440 C.2     1  UNL1        0.0070
     40  C         24.4990  -22.8950  -17.4200 C.2     1  UNL1       -0.0600
     41  C         23.4070  -23.6790  -18.0840 C.3     1  UNL1        0.0480
     42  C         24.4000  -22.5230  -16.0710 C.2     1  UNL1        0.0370
@<TRIPOS>BOND
     1    39    38    2
     2    39    40    1
     3    41    40    1
     4    38    37    1
     5    40    42    2
     6    37    36    2
     7    42    36    1
     8    36    34    1
     9    34    35    1
    10    34    31    1
    11    32    31    2
    12    31    33    2
    13    31    28    1
    14    27    28    2
    15    27    26    1
    16    28    29    1
    17    10    11    2
    18    10     9    1
    19    11    12    1
    20    26    25    2
    21    29    30    2
    22     9     8    2
    23    12     7    2
    24    25    30    1
    25    25     1    1
    26     3     2    2
    27     8     7    1
    28     7     6    1
    29     1     2   am
    30     1     4    1
    31     2     5    1
    32     6     5    1
    33     6    13    1
    34    14    13    2
    35    13    15    2
    36    13    16    1
    37    17    16    2
    38    17    18    1
    39    16    21    1
    40    18    19    2
    41    23    22    2
    42    21    22    1
    43    21    20    2
    44    22    24    2
    45    19    20    1
