@<TRIPOS>MOLECULE
40529_out_ligand_01.pdbqt
 32 35 0 0 0
SMALL
GASTEIGER

@<TRIPOS>ATOM
      1  C         19.1810  -22.0600  -10.7980 C.2     1  UNL1        0.0360
      2  C         18.4010  -21.1990  -11.5750 C.2     1  UNL1        0.0290
      3  C         17.0410  -21.0140  -11.2950 C.2     1  UNL1        0.0040
      4  C         16.4480  -21.6790  -10.2260 C.2     1  UNL1        0.0250
      5  C         17.2290  -22.5220   -9.4340 C.2     1  UNL1        0.0770
      6  C         18.5830  -22.7280   -9.7240 C.2     1  UNL1        0.0540
      7  N         20.5520  -22.2990  -11.0190 N.am    1  UNL1       -0.3230
      8  C         21.5620  -22.3310  -10.0750 C.2     1  UNL1        0.2560
      9  O         21.4580  -22.1060   -8.8760 O.2     1  UNL1       -0.2670
     10  H         20.8290  -22.3940  -11.9880 H       1  UNL1        0.1690
     11  C         22.9140  -22.6480  -10.6170 C.2     1  UNL1        0.0350
     12  C         23.9720  -23.0270   -9.7770 C.2     1  UNL1        0.0200
     13  C         25.2240  -23.3190  -10.3230 C.2     1  UNL1        0.0400
     14  C         25.4210  -23.2290  -11.7000 C.2     1  UNL1        0.1020
     15  C         24.3790  -22.8090  -12.5320 C.2     1  UNL1        0.1030
     16  O         26.6700  -23.5520  -12.1640 O.2     1  UNL1       -0.3460
     17  C         23.1240  -22.5270  -11.9960 C.2     1  UNL1        0.0560
     18  O         24.5160  -22.6600  -13.8890 O.2     1  UNL1       -0.3460
     19  C         25.8950  -22.6290  -14.2740 C.3     1  UNL1        0.2020
     20  C         26.6680  -23.7410  -13.5840 C.3     1  UNL1        0.2020
     21  S         16.4870  -23.3650   -8.0580 S.O2    1  UNL1        0.2460
     22  O         15.9090  -24.5980   -8.5500 O.2     1  UNL1       -0.2060
     23  O         15.6900  -22.3990   -7.3330 O.2     1  UNL1       -0.2060
     24  N         17.8120  -23.7320   -7.0700 N.pl3   1  UNL1       -0.1780
     25  H         17.7970  -24.7170   -6.8020 H       1  UNL1        0.1460
     26  C         18.1400  -22.8180   -6.0210 C.2     1  UNL1        0.0610
     27  C         18.9420  -21.7040   -6.2610 C.2     1  UNL1        0.0270
     28  C         19.2070  -20.8030   -5.2270 C.2     1  UNL1        0.0020
     29  C         18.6680  -21.0110   -3.9540 C.2     1  UNL1        0.0030
     30  C         17.8630  -22.1250   -3.7110 C.2     1  UNL1        0.0440
     31  C         17.6080  -23.0190   -4.7440 C.2     1  UNL1        0.1380
     32  F         16.8290  -24.0870   -4.5110 F       1  UNL1       -0.2040
@<TRIPOS>BOND
     1    19    18    1
     2    19    20    1
     3    18    15    1
     4    20    16    1
     5    15    17    1
     6    15    14    2
     7    16    14    1
     8    17    11    2
     9    10     7    1
    10    14    13    1
    11     2     3    1
    12     2     1    2
    13     3     4    2
    14     7     1    1
    15     7     8   am
    16     1     6    1
    17    11     8    1
    18    11    12    1
    19    13    12    2
    20     4     5    1
    21     8     9    2
    22     6     5    2
    23     5    21    1
    24    22    21    2
    25    21    23    2
    26    21    24    1
    27    24    25    1
    28    24    26    1
    29    27    26    2
    30    27    28    1
    31    26    31    1
    32    28    29    2
    33    31    32    1
    34    31    30    2
    35    29    30    1
