@<TRIPOS>MOLECULE
40521_out_ligand_01.pdbqt
 30 32 0 0 0
SMALL
GASTEIGER

@<TRIPOS>ATOM
      1  C         21.0590  -22.1500  -10.0730 C.2     1  UNL1        0.0800
      2  C         21.0090  -21.5750  -11.3470 C.2     1  UNL1        0.0250
      3  C         19.7720  -21.3540  -11.9530 C.2     1  UNL1        0.0030
      4  C         18.5940  -21.7000  -11.2860 C.2     1  UNL1        0.0170
      5  C         18.6470  -22.2630  -10.0020 C.2     1  UNL1        0.0330
      6  C         19.8870  -22.5080   -9.4010 C.2     1  UNL1        0.0420
      7  S         22.6290  -22.4620   -9.3060 S.O2    1  UNL1        0.2630
      8  O         22.8920  -23.8840   -9.3420 O.2     1  UNL1       -0.2000
      9  O         22.6490  -21.7320   -8.0570 O.2     1  UNL1       -0.2000
     10  N         23.7040  -21.6610  -10.3380 N.pl3   1  UNL1       -0.2810
     11  H         24.1320  -20.8670   -9.8620 H       1  UNL1        0.1790
     12  C         24.5410  -22.4530  -11.1690 C.2     1  UNL1        0.0420
     13  C         25.8080  -22.8200  -10.7200 C.2     1  UNL1        0.0300
     14  C         26.6480  -23.5700  -11.5450 C.2     1  UNL1        0.0090
     15  C         26.2310  -23.9430  -12.8300 C.2     1  UNL1       -0.0620
     16  C         27.1200  -24.7750  -13.7060 C.3     1  UNL1        0.0480
     17  C         24.9530  -23.5730  -13.2670 C.2     1  UNL1        0.0090
     18  C         24.1120  -22.8230  -12.4410 C.2     1  UNL1        0.0300
     19  C         17.4110  -22.6430   -9.2590 C.2     1  UNL1        0.2560
     20  O         16.4770  -23.1130   -9.8970 O.2     1  UNL1       -0.2670
     21  N         17.4740  -22.4580   -7.8890 N.am    1  UNL1       -0.3220
     22  H         18.3740  -22.1970   -7.5130 H       1  UNL1        0.1690
     23  C         16.4490  -22.6850   -6.9380 C.2     1  UNL1        0.0430
     24  C         15.3390  -21.8430   -6.8180 C.2     1  UNL1        0.0720
     25  C         14.3590  -22.1020   -5.8640 C.2     1  UNL1        0.1180
     26  F         13.3030  -21.2840   -5.7640 F       1  UNL1       -0.2060
     27  C         14.4570  -23.1900   -5.0100 C.2     1  UNL1        0.0430
     28  C         15.5570  -24.0360   -5.1110 C.2     1  UNL1        0.0120
     29  C         16.5620  -23.7970   -6.0680 C.2     1  UNL1       -0.0350
     30  C         17.7260  -24.7510   -6.1250 C.3     1  UNL1        0.0500
@<TRIPOS>BOND
     1    16    15    1
     2    17    15    2
     3    17    18    1
     4    15    14    1
     5    18    12    2
     6     3     2    1
     7     3     4    2
     8    14    13    2
     9     2     1    2
    10     4     5    1
    11    12    13    1
    12    12    10    1
    13    10    11    1
    14    10     7    1
    15     1     6    1
    16     1     7    1
    17     5     6    2
    18     5    19    1
    19    20    19    2
    20     8     7    2
    21     7     9    2
    22    19    21   am
    23    21    22    1
    24    21    23    1
    25    23    24    2
    26    23    29    1
    27    24    25    1
    28    30    29    1
    29    29    28    2
    30    25    26    1
    31    25    27    2
    32    28    27    1
