@<TRIPOS>MOLECULE
40532_out_ligand_01.pdbqt
 30 32 0 0 0
SMALL
GASTEIGER

@<TRIPOS>ATOM
      1  C         17.0540  -22.8930   -8.9950 C.2     1  UNL1        0.0800
      2  C         16.3610  -22.0350   -9.8560 C.2     1  UNL1        0.0250
      3  C         17.0370  -21.4290  -10.9170 C.2     1  UNL1        0.0030
      4  C         18.3910  -21.6920  -11.1240 C.2     1  UNL1        0.0170
      5  C         19.0730  -22.5760  -10.2740 C.2     1  UNL1        0.0330
      6  C         18.4070  -23.1770   -9.2030 C.2     1  UNL1        0.0420
      7  S         16.1780  -23.6940   -7.6650 S.O2    1  UNL1        0.2630
      8  O         15.4190  -22.6690   -6.9770 O.2     1  UNL1       -0.2000
      9  O         15.5260  -24.8660   -8.2060 O.2     1  UNL1       -0.2000
     10  N         17.4090  -24.1500   -6.6030 N.pl3   1  UNL1       -0.2810
     11  H         17.4040  -25.1510   -6.4130 H       1  UNL1        0.1790
     12  C         17.7870  -23.2730   -5.5470 C.2     1  UNL1        0.0430
     13  C         17.4460  -23.6100   -4.2350 C.2     1  UNL1        0.0300
     14  C         17.7520  -22.7350   -3.1910 C.2     1  UNL1        0.0030
     15  C         18.4030  -21.5270   -3.4580 C.2     1  UNL1        0.0070
     16  C         18.7690  -21.1930   -4.7680 C.2     1  UNL1       -0.0600
     17  C         19.4330  -19.8800   -5.0690 C.3     1  UNL1        0.0480
     18  C         18.4520  -22.0740   -5.8130 C.2     1  UNL1        0.0370
     19  C         20.5160  -22.8650  -10.4780 C.2     1  UNL1        0.2560
     20  O         20.9470  -23.9510  -10.1140 O.2     1  UNL1       -0.2670
     21  N         21.2110  -21.8540  -11.1150 N.am    1  UNL1       -0.3220
     22  H         20.6520  -21.1090  -11.5050 H       1  UNL1        0.1690
     23  C         22.6000  -21.8020  -11.3810 C.2     1  UNL1        0.0430
     24  C         23.1150  -21.9100  -12.6780 C.2     1  UNL1        0.0720
     25  C         24.4890  -21.8870  -12.8920 C.2     1  UNL1        0.1180
     26  F         24.9650  -22.0090  -14.1380 F       1  UNL1       -0.2060
     27  C         25.3780  -21.7560  -11.8370 C.2     1  UNL1        0.0430
     28  C         24.8850  -21.6430  -10.5400 C.2     1  UNL1        0.0120
     29  C         23.4980  -21.6620  -10.2960 C.2     1  UNL1       -0.0350
     30  C         23.0270  -21.5340   -8.8710 C.3     1  UNL1        0.0500
@<TRIPOS>BOND
     1    26    25    1
     2    25    24    1
     3    25    27    2
     4    24    23    2
     5    27    28    1
     6    22    21    1
     7    23    21    1
     8    23    29    1
     9     4     3    2
    10     4     5    1
    11    21    19   am
    12     3     2    1
    13    28    29    2
    14    19     5    1
    15    19    20    2
    16    29    30    1
    17     5     6    2
    18     2     1    2
    19     6     1    1
    20     1     7    1
    21     9     7    2
    22     7     8    2
    23     7    10    1
    24    10    11    1
    25    10    12    1
    26    18    12    2
    27    18    16    1
    28    12    13    1
    29    17    16    1
    30    16    15    2
    31    13    14    2
    32    15    14    1
