@<TRIPOS>MOLECULE
40538_out_ligand_01.pdbqt
 32 35 0 0 0
SMALL
GASTEIGER

@<TRIPOS>ATOM
      1  C         21.1210  -22.6450   -9.4270 C.2     1  UNL1        0.0320
      2  C         20.8100  -23.4480   -8.3180 C.2     1  UNL1        0.0180
      3  C         19.4760  -23.7220   -8.0010 C.2     1  UNL1        0.0260
      4  C         18.4510  -23.1890   -8.7920 C.2     1  UNL1        0.0790
      5  C         18.7480  -22.3640   -9.8800 C.2     1  UNL1        0.0260
      6  C         20.0830  -22.0970  -10.1960 C.2     1  UNL1        0.0180
      7  C         22.5250  -22.3110   -9.8030 C.2     1  UNL1        0.2510
      8  O         23.0210  -21.2520   -9.4330 O.2     1  UNL1       -0.2680
      9  N         23.1910  -23.2260  -10.5890 N.am    1  UNL1       -0.3530
     10  H         22.6730  -23.9610  -11.0470 H       1  UNL1        0.1630
     11  C         24.5240  -22.9670  -11.0870 C.3     1  UNL1        0.1610
     12  C         24.4900  -22.5950  -12.5460 C.2     1  UNL1       -0.0380
     13  C         23.5270  -21.6920  -13.0230 C.2     1  UNL1        0.0120
     14  C         23.4800  -21.3490  -14.3760 C.2     1  UNL1        0.0400
     15  C         24.3980  -21.9080  -15.2650 C.2     1  UNL1        0.1020
     16  C         25.3730  -22.7970  -14.7990 C.2     1  UNL1        0.1020
     17  O         24.2880  -21.5360  -16.5810 O.2     1  UNL1       -0.3460
     18  C         25.4070  -23.1520  -13.4510 C.2     1  UNL1        0.0480
     19  O         26.3240  -23.3610  -15.6090 O.2     1  UNL1       -0.3460
     20  C         26.4210  -22.6670  -16.8580 C.3     1  UNL1        0.2020
     21  C         25.0380  -22.4090  -17.4350 C.3     1  UNL1        0.2020
     22  S         16.7590  -23.5070   -8.3620 S.O2    1  UNL1        0.2630
     23  O         15.9790  -23.4060   -9.5790 O.2     1  UNL1       -0.2000
     24  O         16.7000  -24.6970   -7.5390 O.2     1  UNL1       -0.2000
     25  N         16.3490  -22.1500   -7.4370 N.pl3   1  UNL1       -0.2810
     26  H         15.5510  -21.6680   -7.8490 H       1  UNL1        0.1790
     27  C         16.3660  -22.2820   -6.0210 C.2     1  UNL1        0.0420
     28  C         15.1680  -22.4740   -5.3350 C.2     1  UNL1        0.0300
     29  C         15.1730  -22.5690   -3.9420 C.2     1  UNL1        0.0020
     30  C         16.3760  -22.4700   -3.2400 C.2     1  UNL1        0.0000
     31  C         17.5730  -22.2710   -3.9300 C.2     1  UNL1        0.0020
     32  C         17.5690  -22.1740   -5.3220 C.2     1  UNL1        0.0300
@<TRIPOS>BOND
     1    21    20    1
     2    21    17    1
     3    20    19    1
     4    17    15    1
     5    19    16    1
     6    15    16    2
     7    15    14    1
     8    16    18    1
     9    14    13    2
    10    18    12    2
    11    13    12    1
    12    12    11    1
    13    11     9    1
    14    10     9    1
    15     9     7   am
    16     6     5    1
    17     6     1    2
    18     5     4    2
    19     7     8    2
    20     7     1    1
    21    23    22    2
    22     1     2    1
    23     4    22    1
    24     4     3    1
    25    22    24    2
    26    22    25    1
    27     2     3    2
    28    26    25    1
    29    25    27    1
    30    27    28    2
    31    27    32    1
    32    28    29    1
    33    32    31    2
    34    29    30    2
    35    31    30    1
