@<TRIPOS>MOLECULE
40544_out_ligand_01.pdbqt
 30 32 0 0 0
SMALL
GASTEIGER

@<TRIPOS>ATOM
      1  N         12.6940  -20.6500   -5.6920 N.1     1  UNL1       -0.1910
      2  C         13.6160  -21.3500   -5.7620 C.1     1  UNL1        0.0990
      3  C         14.7630  -22.2050   -5.8570 C.2     1  UNL1        0.0460
      4  C         14.9250  -23.2640   -4.9630 C.2     1  UNL1        0.0230
      5  C         16.0450  -24.0870   -5.0630 C.2     1  UNL1        0.0040
      6  C         17.0030  -23.8540   -6.0550 C.2     1  UNL1        0.0290
      7  C         16.8530  -22.8000   -6.9580 C.2     1  UNL1        0.0360
      8  C         15.7250  -21.9750   -6.8500 C.2     1  UNL1        0.0520
      9  N         17.7780  -22.4990   -7.9800 N.am    1  UNL1       -0.3230
     10  C         17.6370  -22.7420   -9.3340 C.2     1  UNL1        0.2560
     11  O         16.6600  -23.2100   -9.9040 O.2     1  UNL1       -0.2670
     12  H         18.6040  -21.9880   -7.6910 H       1  UNL1        0.1690
     13  C         18.8070  -22.3500  -10.1640 C.2     1  UNL1        0.0330
     14  C         18.6460  -21.7030  -11.3990 C.2     1  UNL1        0.0170
     15  C         19.7670  -21.3330  -12.1480 C.2     1  UNL1        0.0030
     16  C         21.0490  -21.5960  -11.6640 C.2     1  UNL1        0.0250
     17  C         21.2030  -22.2190  -10.4220 C.2     1  UNL1        0.0800
     18  C         20.0900  -22.6020   -9.6690 C.2     1  UNL1        0.0420
     19  S         22.8280  -22.5570   -9.7950 S.O2    1  UNL1        0.2630
     20  O         22.7450  -23.6440   -8.8450 O.2     1  UNL1       -0.2000
     21  O         23.4120  -21.2860   -9.4250 O.2     1  UNL1       -0.2000
     22  N         23.6550  -23.0770  -11.1740 N.pl3   1  UNL1       -0.2810
     23  H         23.0740  -23.6940  -11.7390 H       1  UNL1        0.1790
     24  C         24.4760  -22.1380  -11.8520 C.2     1  UNL1        0.0420
     25  C         25.6180  -21.6430  -11.2220 C.2     1  UNL1        0.0310
     26  C         26.4110  -20.6930  -11.8690 C.2     1  UNL1        0.0210
     27  C         26.0500  -20.2390  -13.1380 C.2     1  UNL1        0.0110
     28 BR         27.1210  -18.9500  -14.0110 Br      1  UNL1       -0.0510
     29  C         24.9050  -20.7290  -13.7660 C.2     1  UNL1        0.0210
     30  C         24.1140  -21.6810  -13.1190 C.2     1  UNL1        0.0310
@<TRIPOS>BOND
     1    28    27    1
     2    29    27    2
     3    29    30    1
     4    27    26    1
     5    30    24    2
     6    15    16    2
     7    15    14    1
     8    26    25    2
     9    24    25    1
    10    24    22    1
    11    23    22    1
    12    16    17    1
    13    14    13    2
    14    22    19    1
    15    17    19    1
    16    17    18    2
    17    13    18    1
    18    13    10    1
    19    11    10    2
    20    19    21    2
    21    19    20    2
    22    10     9   am
    23     9    12    1
    24     9     7    1
    25     7     8    1
    26     7     6    2
    27     8     3    2
    28     6     5    1
    29     3     2    1
    30     3     4    1
    31     2     1    3
    32     5     4    2
