@<TRIPOS>MOLECULE
40548_out_ligand_01.pdbqt
 30 32 0 0 0
SMALL
GASTEIGER

@<TRIPOS>ATOM
      1  N         26.8270  -25.0870  -15.1360 N.1     1  UNL1       -0.1910
      2  C         26.4340  -24.4040  -14.2840 C.1     1  UNL1        0.0990
      3  C         25.9730  -23.5490  -13.2290 C.2     1  UNL1        0.0460
      4  C         26.8430  -22.6140  -12.6610 C.2     1  UNL1        0.0230
      5  C         26.3970  -21.7850  -11.6340 C.2     1  UNL1        0.0040
      6  C         25.0810  -21.8900  -11.1770 C.2     1  UNL1        0.0290
      7  C         24.1970  -22.8200  -11.7410 C.2     1  UNL1        0.0360
      8  C         24.6530  -23.6510  -12.7670 C.2     1  UNL1        0.0520
      9  N         22.8870  -22.8610  -11.2150 N.am    1  UNL1       -0.3230
     10  C         21.7750  -22.1860  -11.6870 C.2     1  UNL1        0.2560
     11  O         21.7460  -21.3780  -12.6080 O.2     1  UNL1       -0.2670
     12  H         22.7760  -23.3880  -10.3600 H       1  UNL1        0.1690
     13  C         20.5090  -22.4590  -10.9480 C.2     1  UNL1        0.0320
     14  C         20.4510  -23.3880   -9.8970 C.2     1  UNL1        0.0180
     15  C         19.2470  -23.6090   -9.2250 C.2     1  UNL1        0.0260
     16  C         18.1020  -22.8990   -9.6040 C.2     1  UNL1        0.0790
     17  C         18.1400  -22.0050  -10.6780 C.2     1  UNL1        0.0260
     18  C         19.3460  -21.7850  -11.3470 C.2     1  UNL1        0.0180
     19  S         16.5710  -23.1820   -8.7400 S.O2    1  UNL1        0.2630
     20  O         16.7420  -24.3770   -7.9410 O.2     1  UNL1       -0.2000
     21  O         15.4910  -23.0650   -9.6960 O.2     1  UNL1       -0.2000
     22  N         16.5000  -21.8920   -7.6500 N.pl3   1  UNL1       -0.2790
     23  H         15.8680  -21.1620   -7.9850 H       1  UNL1        0.1790
     24  C         16.4340  -22.1780   -6.2480 C.2     1  UNL1        0.0640
     25  C         15.2010  -22.4640   -5.6570 C.2     1  UNL1        0.0320
     26  C         15.1210  -22.7050   -4.2840 C.2     1  UNL1        0.0020
     27  C         16.2710  -22.6630   -3.4960 C.2     1  UNL1        0.0020
     28  C         17.5070  -22.3830   -4.0790 C.2     1  UNL1        0.0260
     29  C         17.5890  -22.1410   -5.4510 C.2     1  UNL1        0.0610
     30 CL         19.1350  -21.7880   -6.1390 Cl      1  UNL1       -0.0820
@<TRIPOS>BOND
     1     1     2    3
     2     2     3    1
     3     3     8    2
     4     3     4    1
     5     8     7    1
     6     4     5    2
     7    11    10    2
     8     7     9    1
     9     7     6    2
    10    10     9   am
    11    10    13    1
    12     5     6    1
    13    18    13    2
    14    18    17    1
    15     9    12    1
    16    13    14    1
    17    17    16    2
    18    14    15    2
    19    21    19    2
    20    16    15    1
    21    16    19    1
    22    19    20    2
    23    19    22    1
    24    23    22    1
    25    22    24    1
    26    24    25    2
    27    24    29    1
    28    30    29    1
    29    25    26    1
    30    29    28    2
    31    26    27    2
    32    28    27    1
