@<TRIPOS>MOLECULE
40540_out_ligand_01.pdbqt
 33 36 0 0 0
SMALL
GASTEIGER

@<TRIPOS>ATOM
      1  C         20.4100  -22.1510  -10.9300 C.2     1  UNL1        0.0360
      2  C         19.7530  -21.2890  -11.8120 C.2     1  UNL1        0.0290
      3  C         18.3790  -21.0460  -11.6880 C.2     1  UNL1        0.0040
      4  C         17.6500  -21.6530  -10.6710 C.2     1  UNL1        0.0250
      5  C         18.3090  -22.4880   -9.7680 C.2     1  UNL1        0.0770
      6  C         19.6760  -22.7540   -9.9030 C.2     1  UNL1        0.0540
      7  N         21.7810  -22.4700  -11.0080 N.am    1  UNL1       -0.3270
      8  C         22.8260  -21.9060  -10.2940 C.2     1  UNL1        0.2260
      9  O         22.7350  -21.0420   -9.4260 O.2     1  UNL1       -0.2730
     10  H         22.0330  -23.1540  -11.7100 H       1  UNL1        0.1690
     11  C         24.1830  -22.4680  -10.6950 C.3     1  UNL1        0.1410
     12  C         24.9720  -21.5030  -11.5440 C.2     1  UNL1       -0.0470
     13  C         25.9760  -20.7100  -10.9660 C.2     1  UNL1        0.0100
     14  C         26.6920  -19.7940  -11.7400 C.2     1  UNL1        0.0400
     15  C         26.3990  -19.6510  -13.0940 C.2     1  UNL1        0.1020
     16  C         25.4110  -20.4470  -13.6830 C.2     1  UNL1        0.1020
     17  O         27.1210  -18.7140  -13.7870 O.2     1  UNL1       -0.3460
     18  C         24.6920  -21.3590  -12.9110 C.2     1  UNL1        0.0470
     19  O         25.0830  -20.3800  -15.0140 O.2     1  UNL1       -0.3460
     20  C         26.0770  -19.6710  -15.7620 C.3     1  UNL1        0.2020
     21  C         26.4960  -18.3990  -15.0380 C.3     1  UNL1        0.2020
     22  S         17.4020  -23.2610   -8.4480 S.O2    1  UNL1        0.2460
     23  O         18.3210  -24.1340   -7.7470 O.2     1  UNL1       -0.2060
     24  O         16.1560  -23.7600   -8.9880 O.2     1  UNL1       -0.2060
     25  N         17.0780  -21.9740   -7.3950 N.pl3   1  UNL1       -0.1780
     26  H         16.4860  -21.2750   -7.8470 H       1  UNL1        0.1460
     27  C         16.7350  -22.2840   -6.0430 C.2     1  UNL1        0.0610
     28  C         15.4390  -22.6690   -5.7020 C.2     1  UNL1        0.0270
     29  C         15.1190  -22.9150   -4.3630 C.2     1  UNL1        0.0020
     30  C         16.0900  -22.7710   -3.3660 C.2     1  UNL1        0.0030
     31  C         17.3870  -22.3870   -3.7030 C.2     1  UNL1        0.0440
     32  C         17.7000  -22.1480   -5.0370 C.2     1  UNL1        0.1380
     33  F         18.9510  -21.7820   -5.3640 F       1  UNL1       -0.2040
@<TRIPOS>BOND
     1    20    21    1
     2    20    19    1
     3    21    17    1
     4    19    16    1
     5    17    15    1
     6    16    15    2
     7    16    18    1
     8    15    14    1
     9    18    12    2
    10     2     3    1
    11     2     1    2
    12    14    13    2
    13    10     7    1
    14     3     4    2
    15    12    13    1
    16    12    11    1
    17     7     1    1
    18     7     8   am
    19     1     6    1
    20    11     8    1
    21     4     5    1
    22     8     9    2
    23     6     5    2
    24     5    22    1
    25    24    22    2
    26    22    23    2
    27    22    25    1
    28    26    25    1
    29    25    27    1
    30    27    28    2
    31    27    32    1
    32    28    29    1
    33    33    32    1
    34    32    31    2
    35    29    30    2
    36    31    30    1
