@<TRIPOS>MOLECULE
40547_out_ligand_01.pdbqt
 36 39 0 0 0
SMALL
GASTEIGER

@<TRIPOS>ATOM
      1  C         24.3690  -22.9410  -10.5390 C.2     1  UNL1        0.0360
      2  C         25.5580  -23.5990  -10.2110 C.2     1  UNL1        0.0290
      3  C         26.7370  -23.3480  -10.9260 C.2     1  UNL1        0.0040
      4  C         26.7430  -22.4290  -11.9700 C.2     1  UNL1        0.0250
      5  C         25.5620  -21.7560  -12.2850 C.2     1  UNL1        0.0770
      6  C         24.3760  -22.0180  -11.5890 C.2     1  UNL1        0.0540
      7  N         23.1440  -23.1380   -9.8670 N.am    1  UNL1       -0.3230
      8  C         22.5460  -22.2960   -8.9480 C.2     1  UNL1        0.2560
      9  O         23.0050  -21.2510   -8.5010 O.2     1  UNL1       -0.2670
     10  H         22.6920  -24.0270  -10.0380 H       1  UNL1        0.1690
     11  C         21.2220  -22.7560   -8.4370 C.2     1  UNL1        0.0320
     12  C         20.5390  -21.9420   -7.5230 C.2     1  UNL1        0.0180
     13  C         19.2930  -22.3290   -7.0220 C.2     1  UNL1        0.0160
     14  C         18.7230  -23.5410   -7.4310 C.2     1  UNL1        0.0150
     15  C         19.3870  -24.3370   -8.3740 C.2     1  UNL1        0.0160
     16  C         20.6330  -23.9490   -8.8760 C.2     1  UNL1        0.0180
     17  C         17.3920  -23.9870   -6.9440 C.2     1  UNL1        0.1920
     18  O         16.7300  -24.7540   -7.6380 O.2     1  UNL1       -0.2870
     19  C         16.8450  -23.5330   -5.6420 C.2     1  UNL1        0.0150
     20  C         15.7280  -22.6910   -5.5660 C.2     1  UNL1        0.0150
     21  C         15.2530  -22.2770   -4.3200 C.2     1  UNL1        0.0010
     22  C         15.8980  -22.6900   -3.1530 C.2     1  UNL1        0.0000
     23  C         17.0240  -23.5080   -3.2270 C.2     1  UNL1        0.0010
     24  C         17.5020  -23.9260   -4.4700 C.2     1  UNL1        0.0150
     25  S         25.5580  -20.5700  -13.6100 S.O2    1  UNL1        0.2460
     26  O         24.1880  -20.4130  -14.0480 O.2     1  UNL1       -0.2060
     27  O         26.3460  -19.4310  -13.1880 O.2     1  UNL1       -0.2060
     28  N         26.3710  -21.3790  -14.8540 N.pl3   1  UNL1       -0.1780
     29  H         27.1920  -20.8490  -15.1500 H       1  UNL1        0.1460
     30  C         25.5920  -21.9380  -15.9140 C.2     1  UNL1        0.0610
     31  C         25.4150  -21.2530  -17.1150 C.2     1  UNL1        0.0270
     32  C         24.6890  -21.8460  -18.1520 C.2     1  UNL1        0.0020
     33  C         24.1440  -23.1220  -17.9920 C.2     1  UNL1        0.0030
     34  C         24.3210  -23.8110  -16.7920 C.2     1  UNL1        0.0440
     35  C         25.0420  -23.2140  -15.7620 C.2     1  UNL1        0.1380
     36  F         25.2170  -23.8790  -14.6110 F       1  UNL1       -0.2040
@<TRIPOS>BOND
     1    32    33    2
     2    32    31    1
     3    33    34    1
     4    31    30    2
     5    34    35    2
     6    30    35    1
     7    30    28    1
     8    35    36    1
     9    29    28    1
    10    28    25    1
    11    26    25    2
    12    25    27    2
    13    25     5    1
    14     5     4    2
    15     5     6    1
    16     4     3    1
    17     6     1    2
    18     3     2    2
    19     1     2    1
    20     1     7    1
    21    10     7    1
    22     7     8   am
    23     8     9    2
    24     8    11    1
    25    16    11    2
    26    16    15    1
    27    11    12    1
    28    15    14    2
    29    18    17    2
    30    12    13    2
    31    14    13    1
    32    14    17    1
    33    17    19    1
    34    19    20    2
    35    19    24    1
    36    20    21    1
    37    24    23    2
    38    21    22    2
    39    23    22    1
