@<TRIPOS>MOLECULE
4054_out_ligand_01.pdbqt
 40 44 0 0 0
SMALL
GASTEIGER

@<TRIPOS>ATOM
      1  C         20.4850  -22.6190  -10.8970 C.2     1  UNL1        0.0350
      2  C         20.3920  -23.4860   -9.8040 C.2     1  UNL1        0.0310
      3  C         19.1730  -23.6680   -9.1440 C.2     1  UNL1        0.0270
      4  C         18.0370  -22.9890   -9.5880 C.2     1  UNL1        0.0800
      5  C         18.1200  -22.0930  -10.6530 C.2     1  UNL1        0.0270
      6  C         19.3420  -21.9170  -11.3080 C.2     1  UNL1        0.0310
      7  N         21.6700  -22.3930  -11.6280 N.am    1  UNL1       -0.3230
      8  C         21.8860  -21.4570  -12.6220 C.2     1  UNL1        0.2570
      9  O         21.0630  -20.6450  -13.0340 O.2     1  UNL1       -0.2670
     10  H         22.4560  -22.9730  -11.3640 H       1  UNL1        0.1690
     11  C         23.2870  -21.4910  -13.2000 C.2     1  UNL1        0.0430
     12  C         23.4380  -20.9660  -14.4340 C.2     1  UNL1        0.0310
     13  C         24.6970  -20.9070  -15.1960 C.2     1  UNL1       -0.0130
     14  C         25.5720  -19.8340  -14.9700 C.2     1  UNL1        0.0130
     15  C         26.7750  -19.7380  -15.6700 C.2     1  UNL1        0.0010
     16  C         27.1200  -20.7150  -16.6020 C.2     1  UNL1        0.0020
     17  C         26.2620  -21.7900  -16.8340 C.2     1  UNL1        0.0240
     18  C         25.0560  -21.8880  -16.1340 C.2     1  UNL1        0.0440
     19 CL         24.0340  -23.2430  -16.4720 Cl      1  UNL1       -0.0830
     20  C         24.4190  -22.0780  -12.4600 C.2     1  UNL1       -0.0210
     21  C         25.0780  -21.3300  -11.4760 C.2     1  UNL1        0.0120
     22  C         26.1650  -21.8710  -10.7910 C.2     1  UNL1        0.0010
     23  C         26.6020  -23.1620  -11.0840 C.2     1  UNL1        0.0000
     24  C         25.9520  -23.9150  -12.0610 C.2     1  UNL1        0.0010
     25  C         24.8640  -23.3750  -12.7500 C.2     1  UNL1        0.0120
     26  S         16.4800  -23.2460   -8.7670 S.O2    1  UNL1        0.2630
     27  O         15.6580  -24.0750   -9.6200 O.2     1  UNL1       -0.2000
     28  O         16.0130  -21.9550   -8.3060 O.2     1  UNL1       -0.2000
     29  N         16.9070  -24.1080   -7.3790 N.pl3   1  UNL1       -0.2800
     30  H         16.7730  -25.1110   -7.4830 H       1  UNL1        0.1790
     31  C         16.6570  -23.5270   -6.0970 C.2     1  UNL1        0.0530
     32  C         15.5620  -24.0030   -5.3690 C.2     1  UNL1        0.0310
     33  C         15.2950  -23.5060   -4.0980 C.2     1  UNL1        0.0030
     34  C         16.1260  -22.5340   -3.5470 C.2     1  UNL1        0.0120
     35  C         17.2360  -22.0460   -4.2540 C.2     1  UNL1       -0.0240
     36  C         18.0700  -21.0750   -3.6750 C.2     1  UNL1        0.0120
     37  C         17.5190  -22.5390   -5.5520 C.2     1  UNL1        0.0010
     38  C         19.1830  -20.5860   -4.3560 C.2     1  UNL1        0.0010
     39  C         19.4760  -21.0580   -5.6280 C.2     1  UNL1        0.0010
     40  C         18.6550  -22.0190   -6.2200 C.2     1  UNL1        0.0140
@<TRIPOS>BOND
     1    17    16    2
     2    17    18    1
     3    16    15    1
     4    19    18    1
     5    18    13    2
     6    15    14    2
     7    13    14    1
     8    13    12    1
     9    12    11    2
    10    11     8    1
    11    11    20    1
    12     9     8    2
    13    25    20    2
    14    25    24    1
    15     8     7   am
    16    20    21    1
    17    24    23    2
    18     7    10    1
    19     7     1    1
    20    21    22    2
    21     6     1    2
    22     6     5    1
    23    23    22    1
    24     1     2    1
    25     5     4    2
    26     2     3    2
    27    27    26    2
    28     4     3    1
    29     4    26    1
    30    26    28    2
    31    26    29    1
    32    30    29    1
    33    29    31    1
    34    40    39    2
    35    40    37    1
    36    31    37    2
    37    31    32    1
    38    39    38    1
    39    37    35    1
    40    32    33    2
    41    38    36    2
    42    35    36    1
    43    35    34    2
    44    33    34    1
