@<TRIPOS>MOLECULE
40545_out_ligand_01.pdbqt
 31 33 0 0 0
SMALL
GASTEIGER

@<TRIPOS>ATOM
      1  C         23.6700  -22.3860  -11.2390 C.2     1  UNL1        0.0360
      2  C         24.5480  -21.4370  -10.7110 C.2     1  UNL1        0.0290
      3  C         25.8790  -21.3820  -11.1370 C.2     1  UNL1        0.0040
      4  C         26.3460  -22.2760  -12.0980 C.2     1  UNL1        0.0230
      5  C         25.4780  -23.2280  -12.6370 C.2     1  UNL1        0.0460
      6  C         25.9470  -24.1530  -13.6270 C.1     1  UNL1        0.0990
      7  N         26.3130  -24.9070  -14.4290 N.1     1  UNL1       -0.1910
      8  C         24.1440  -23.2800  -12.2080 C.2     1  UNL1        0.0520
      9  N         22.3140  -22.5000  -10.8640 N.am    1  UNL1       -0.3230
     10  C         21.2230  -21.9120  -11.4800 C.2     1  UNL1        0.2560
     11  O         21.2460  -21.1310  -12.4220 O.2     1  UNL1       -0.2670
     12  H         22.1360  -23.0140  -10.0110 H       1  UNL1        0.1690
     13  C         19.9010  -22.2530  -10.8800 C.2     1  UNL1        0.0320
     14  C         19.8050  -23.4080  -10.0900 C.2     1  UNL1        0.0180
     15  C         18.5860  -23.7650   -9.5070 C.2     1  UNL1        0.0260
     16  C         17.4640  -22.9610   -9.7180 C.2     1  UNL1        0.0790
     17  C         17.5530  -21.7900  -10.4790 C.2     1  UNL1        0.0260
     18  C         18.7750  -21.4350  -11.0590 C.2     1  UNL1        0.0180
     19  S         15.9160  -23.4020   -8.9640 S.O2    1  UNL1        0.2630
     20  O         15.2960  -22.1780   -8.5020 O.2     1  UNL1       -0.2000
     21  O         15.2090  -24.3060   -9.8450 O.2     1  UNL1       -0.2000
     22  N         16.4100  -24.2310   -7.5770 N.pl3   1  UNL1       -0.2810
     23  H         16.9140  -25.0840   -7.8210 H       1  UNL1        0.1790
     24  C         16.9120  -23.4690   -6.4870 C.2     1  UNL1        0.0430
     25  C         16.2650  -23.5400   -5.2580 C.2     1  UNL1        0.0300
     26  C         16.7350  -22.7830   -4.1850 C.2     1  UNL1        0.0090
     27  C         17.8510  -21.9430   -4.3330 C.2     1  UNL1       -0.0560
     28  C         18.3290  -21.1410   -3.1540 C.3     1  UNL1        0.0490
     29  C         18.5020  -21.8720   -5.5820 C.2     1  UNL1       -0.0540
     30  C         18.0200  -22.6430   -6.6540 C.2     1  UNL1        0.0370
     31  C         19.6950  -20.9810   -5.7960 C.3     1  UNL1        0.0490
@<TRIPOS>BOND
     1     7     6    3
     2     6     5    1
     3     5     8    1
     4     5     4    2
     5    11    10    2
     6     8     1    2
     7     4     3    1
     8    10    13    1
     9    10     9   am
    10     1     9    1
    11     1     2    1
    12     3     2    2
    13    18    13    2
    14    18    17    1
    15    13    14    1
    16     9    12    1
    17    17    16    2
    18    14    15    2
    19    21    19    2
    20    16    15    1
    21    16    19    1
    22    19    20    2
    23    19    22    1
    24    23    22    1
    25    22    24    1
    26    30    24    2
    27    30    29    1
    28    24    25    1
    29    31    29    1
    30    29    27    2
    31    25    26    2
    32    27    26    1
    33    27    28    1
