@<TRIPOS>MOLECULE
40552_out_ligand_01.pdbqt
 36 38 0 0 0
SMALL
GASTEIGER

@<TRIPOS>ATOM
      1  C         22.3180  -23.3180   -8.7050 C.2     1  UNL1        0.0320
      2  C         21.7520  -22.2240   -8.0350 C.2     1  UNL1        0.0180
      3  C         20.4240  -22.2790   -7.6040 C.2     1  UNL1        0.0260
      4  C         19.6650  -23.4290   -7.8470 C.2     1  UNL1        0.0740
      5  C         20.2100  -24.5140   -8.5390 C.2     1  UNL1        0.0260
      6  C         21.5380  -24.4550   -8.9670 C.2     1  UNL1        0.0180
      7  C         23.7310  -23.3080   -9.1780 C.2     1  UNL1        0.2510
      8  N         24.0910  -22.2620  -10.0020 N.am    1  UNL1       -0.3530
      9  H         23.4810  -21.4610  -10.0650 H       1  UNL1        0.1630
     10  O         24.5080  -24.1790   -8.8040 O.2     1  UNL1       -0.2680
     11  C         25.4670  -22.0570  -10.3960 C.3     1  UNL1        0.1610
     12  C         25.5440  -21.2260  -11.6520 C.2     1  UNL1       -0.0380
     13  C         26.4410  -20.1580  -11.7530 C.2     1  UNL1        0.0120
     14  C         26.5260  -19.4140  -12.9320 C.2     1  UNL1        0.0400
     15  C         25.7210  -19.7290  -14.0310 C.2     1  UNL1        0.1010
     16  C         24.8210  -20.8100  -13.9440 C.2     1  UNL1        0.1020
     17  C         24.7410  -21.5480  -12.7580 C.2     1  UNL1        0.0480
     18  O         25.7410  -19.0540  -15.2270 O.2     1  UNL1       -0.3530
     19  C         26.5810  -17.9140  -15.3270 C.3     1  UNL1        0.2100
     20  O         24.0740  -21.0660  -15.0680 O.2     1  UNL1       -0.3530
     21  C         24.4010  -22.2240  -15.8230 C.3     1  UNL1        0.2100
     22  S         17.9730  -23.4790   -7.3000 S.O2    1  UNL1        0.2450
     23  O         17.6270  -22.1730   -6.7810 O.2     1  UNL1       -0.2060
     24  O         17.8050  -24.6890   -6.5270 O.2     1  UNL1       -0.2060
     25  N         17.1750  -23.6260   -8.8040 N.pl3   1  UNL1       -0.1810
     26  H         17.4200  -24.5480   -9.1720 H       1  UNL1        0.1460
     27  C         17.5270  -22.6050   -9.7460 C.2     1  UNL1        0.0230
     28  C         16.5590  -21.7240  -10.2260 C.2     1  UNL1        0.0240
     29  C         16.9060  -20.7670  -11.1790 C.2     1  UNL1        0.0030
     30  C         18.2150  -20.7030  -11.6610 C.2     1  UNL1        0.0160
     31  C         19.1910  -21.6020  -11.2000 C.2     1  UNL1        0.0490
     32  C         18.8300  -22.5600  -10.2410 C.2     1  UNL1        0.0400
     33  C         20.5970  -21.5330  -11.7380 C.3     1  UNL1        0.4170
     34  F         20.6510  -21.0280  -13.0010 F       1  UNL1       -0.1660
     35  F         21.4010  -20.7340  -10.9820 F       1  UNL1       -0.1660
     36  F         21.2220  -22.7420  -11.7910 F       1  UNL1       -0.1660
@<TRIPOS>BOND
     1    21    20    1
     2    19    18    1
     3    18    15    1
     4    20    16    1
     5    15    16    2
     6    15    14    1
     7    16    17    1
     8    34    33    1
     9    14    13    2
    10    17    12    2
    11    36    33    1
    12    13    12    1
    13    33    31    1
    14    33    35    1
    15    30    31    2
    16    30    29    1
    17    12    11    1
    18    31    32    1
    19    29    28    2
    20    11     8    1
    21    32    27    2
    22    28    27    1
    23     9     8    1
    24     8     7   am
    25    27    25    1
    26     7    10    2
    27     7     1    1
    28    26    25    1
    29     6     1    2
    30     6     5    1
    31    25    22    1
    32     1     2    1
    33     5     4    2
    34     2     3    2
    35     4     3    1
    36     4    22    1
    37    22    23    2
    38    22    24    2
