@<TRIPOS>MOLECULE
40550_out_ligand_01.pdbqt
 34 38 0 0 0
SMALL
GASTEIGER

@<TRIPOS>ATOM
      1  C         21.5740  -23.3310   -8.9990 C.2     1  UNL1        0.0320
      2  C         21.2030  -22.2610   -8.1710 C.2     1  UNL1        0.0180
      3  C         20.0610  -22.3530   -7.3700 C.2     1  UNL1        0.0260
      4  C         19.2970  -23.5220   -7.4010 C.2     1  UNL1        0.0790
      5  C         19.6850  -24.6140   -8.1880 C.2     1  UNL1        0.0260
      6  C         20.8270  -24.5180   -8.9880 C.2     1  UNL1        0.0180
      7  C         22.7620  -23.1710   -9.8830 C.2     1  UNL1        0.2560
      8  O         23.8730  -23.3250   -9.3980 O.2     1  UNL1       -0.2670
      9  N         22.4600  -22.8020  -11.1820 N.am    1  UNL1       -0.3230
     10  H         21.4900  -22.6000  -11.3860 H       1  UNL1        0.1690
     11  C         23.3640  -22.5590  -12.2380 C.2     1  UNL1        0.0370
     12  C         24.5810  -23.2810  -12.2070 C.2     1  UNL1        0.0320
     13  C         25.5410  -23.1260  -13.2120 C.2     1  UNL1        0.0420
     14  C         25.2590  -22.2450  -14.2300 C.2     1  UNL1        0.1060
     15  C         24.0840  -21.5320  -14.2640 C.2     1  UNL1        0.1080
     16  O         26.0640  -21.9730  -15.2900 O.2     1  UNL1       -0.3110
     17  C         23.1180  -21.6650  -13.2850 C.2     1  UNL1        0.0690
     18  O         24.0090  -20.7150  -15.3520 O.2     1  UNL1       -0.3110
     19  C         25.2530  -21.0160  -16.0110 C.3     1  UNL1        0.1760
     20  C         25.0060  -21.5220  -17.4320 C.3     1  UNL1        0.0690
     21  C         26.0660  -19.7440  -16.2550 C.3     1  UNL1        0.0690
     22  C         26.3470  -21.3000  -18.1270 C.3     1  UNL1        0.0060
     23  C         26.9680  -20.0800  -17.4450 C.3     1  UNL1        0.0060
     24  S         17.8210  -23.6520   -6.4210 S.O2    1  UNL1        0.2580
     25  O         17.7770  -22.5530   -5.4840 O.2     1  UNL1       -0.2010
     26  O         17.6950  -25.0290   -5.9990 O.2     1  UNL1       -0.2010
     27  N         16.6370  -23.4050   -7.5710 N.3     1  UNL1       -0.3130
     28  H         15.8460  -24.0490   -7.5510 H       1  UNL1        0.1720
     29  C         16.5790  -22.1520   -8.3250 C.3     1  UNL1        0.1640
     30  C         16.4730  -22.4010   -9.8390 C.3     1  UNL1        0.1400
     31  C         17.6650  -23.1620  -10.4140 C.3     1  UNL1        0.0350
     32  C         18.5590  -22.0580  -10.9280 C.3     1  UNL1        0.0290
     33  C         17.5530  -21.0370  -11.4090 C.3     1  UNL1        0.1680
     34  O         16.4420  -21.1210  -10.5100 O.3     1  UNL1       -0.3840
@<TRIPOS>BOND
     1    22    23    1
     2    22    20    1
     3    23    21    1
     4    20    19    1
     5    21    19    1
     6    19    18    1
     7    19    16    1
     8    18    15    1
     9    16    14    1
    10    15    14    2
    11    15    17    1
    12    14    13    1
    13    17    11    2
    14    13    12    2
    15    11    12    1
    16    11     9    1
    17    33    32    1
    18    33    34    1
    19    10     9    1
    20     9     7   am
    21    32    31    1
    22    34    30    1
    23    31    30    1
    24     7     8    2
    25     7     1    1
    26    30    29    1
    27     1     6    2
    28     1     2    1
    29     6     5    1
    30    29    27    1
    31     5     4    2
    32     2     3    2
    33    27    28    1
    34    27    24    1
    35     4     3    1
    36     4    24    1
    37    24    26    2
    38    24    25    2
