@<TRIPOS>MOLECULE
40553_out_ligand_01.pdbqt
 29 32 0 0 0
SMALL
GASTEIGER

@<TRIPOS>ATOM
      1  C         20.2070  -22.2680   -7.8140 C.2     1  UNL1        0.2560
      2  O         21.2360  -21.8430   -7.3020 O.2     1  UNL1       -0.2670
      3  N         20.0010  -22.5590   -9.1500 N.am    1  UNL1       -0.3230
      4  H         19.1420  -23.0350   -9.3900 H       1  UNL1        0.1690
      5  C         20.9000  -22.3530  -10.2190 C.2     1  UNL1        0.0370
      6  C         20.5780  -21.6280  -11.3830 C.2     1  UNL1        0.0320
      7  C         21.5120  -21.4640  -12.4150 C.2     1  UNL1        0.0420
      8  C         22.7530  -22.0360  -12.2560 C.2     1  UNL1        0.1060
      9  C         23.0740  -22.7490  -11.1270 C.2     1  UNL1        0.1080
     10  O         23.7790  -21.9830  -13.1450 O.2     1  UNL1       -0.3110
     11  C         22.1750  -22.9260  -10.0960 C.2     1  UNL1        0.0690
     12  O         24.3450  -23.2340  -11.1640 O.2     1  UNL1       -0.3110
     13  C         24.7890  -22.7450  -12.4440 C.3     1  UNL1        0.1760
     14  C         26.0550  -21.9040  -12.2930 C.3     1  UNL1        0.0690
     15  C         25.2680  -23.8970  -13.3260 C.3     1  UNL1        0.0690
     16  C         26.7080  -21.9540  -13.6720 C.3     1  UNL1        0.0060
     17  C         26.2020  -23.2360  -14.3360 C.3     1  UNL1        0.0060
     18  C         19.0460  -22.5560   -6.9220 C.2     1  UNL1        0.0320
     19  C         18.2940  -23.7150   -7.1600 C.2     1  UNL1        0.0180
     20  C         17.2020  -24.0240   -6.3460 C.2     1  UNL1        0.0260
     21  C         16.8650  -23.1700   -5.2930 C.2     1  UNL1        0.0740
     22  C         17.6260  -22.0270   -5.0280 C.2     1  UNL1        0.0260
     23  C         18.7200  -21.7210   -5.8440 C.2     1  UNL1        0.0180
     24  S         15.5000  -23.5780   -4.2410 S.O2    1  UNL1        0.2390
     25  O         15.9700  -24.4030   -3.1530 O.2     1  UNL1       -0.2060
     26  O         14.3630  -23.9370   -5.0570 O.2     1  UNL1       -0.2060
     27  N         15.1330  -22.0870   -3.5620 N.3     1  UNL1       -0.2250
     28  H         15.1650  -22.1560   -2.5440 H       1  UNL1        0.1360
     29  H         15.7550  -21.3740   -3.9420 H       1  UNL1        0.1360
@<TRIPOS>BOND
     1    17    16    1
     2    17    15    1
     3    16    14    1
     4    15    13    1
     5    10    13    1
     6    10     8    1
     7    13    14    1
     8    13    12    1
     9     7     8    2
    10     7     6    1
    11     8     9    1
    12     6     5    2
    13    12     9    1
    14     9    11    2
    15     5    11    1
    16     5     3    1
    17     4     3    1
    18     3     1   am
    19     1     2    2
    20     1    18    1
    21    19    18    2
    22    19    20    1
    23    18    23    1
    24    20    21    2
    25    23    22    2
    26    21    22    1
    27    21    24    1
    28    26    24    2
    29    24    27    1
    30    24    25    2
    31    29    27    1
    32    27    28    1
