@<TRIPOS>MOLECULE
40557_out_ligand_01.pdbqt
 34 37 0 0 0
SMALL
GASTEIGER

@<TRIPOS>ATOM
      1  C         21.7770  -22.4290  -11.3230 C.2     1  UNL1        0.0340
      2  C         20.9400  -21.5390  -12.0040 C.2     1  UNL1        0.0300
      3  C         19.5820  -21.4390  -11.6840 C.2     1  UNL1        0.0190
      4  C         19.0510  -22.2470  -10.6770 C.2     1  UNL1        0.0320
      5  C         19.8800  -23.1260   -9.9770 C.2     1  UNL1        0.0190
      6  C         21.2360  -23.2240  -10.3090 C.2     1  UNL1        0.0300
      7  C         17.6120  -22.1950  -10.3260 C.2     1  UNL1        0.2510
      8  O         16.9300  -21.2270  -10.6410 O.2     1  UNL1       -0.2680
      9  N         17.1460  -23.2590   -9.5850 N.am    1  UNL1       -0.3570
     10  H         17.8080  -23.9520   -9.2490 H       1  UNL1        0.1620
     11  C         15.7890  -23.3130   -9.0790 C.3     1  UNL1        0.1240
     12  C         15.5830  -24.3970   -8.0240 C.3     1  UNL1        0.0400
     13  C         16.8190  -24.6200   -7.1530 C.3     1  UNL1        0.1300
     14  N         16.8730  -23.6990   -6.0270 N.pl3   1  UNL1       -0.3560
     15  C         16.0040  -23.7370   -4.9630 C.2     1  UNL1        0.0920
     16  C         16.3890  -22.7680   -4.0680 C.2     1  UNL1        0.0310
     17  C         17.5260  -22.1050   -4.6110 C.2     1  UNL1       -0.0080
     18  C         18.3440  -21.0490   -4.1620 C.2     1  UNL1        0.0140
     19  C         17.8100  -22.7020   -5.8430 C.2     1  UNL1        0.0440
     20  C         19.4130  -20.6180   -4.9530 C.2     1  UNL1        0.0010
     21  C         19.6750  -21.2280   -6.1770 C.2     1  UNL1        0.0020
     22  C         18.8820  -22.2760   -6.6450 C.2     1  UNL1        0.0300
     23  N         23.1320  -22.4550  -11.7130 N.am    1  UNL1       -0.3270
     24  C         24.1990  -21.8470  -11.0850 C.2     1  UNL1        0.2310
     25  O         24.1430  -21.1840  -10.0540 O.2     1  UNL1       -0.2720
     26  H         23.3390  -22.9560  -12.5700 H       1  UNL1        0.1690
     27  C         25.5140  -21.9720  -11.8400 C.3     1  UNL1        0.1850
     28  S         25.3170  -21.6580  -13.6200 S.3     1  UNL1       -0.0800
     29  C         25.3890  -23.2780  -14.1990 C.ar    1  UNL1        0.1980
     30  N         25.2500  -24.3650  -13.4750 N.ar    1  UNL1       -0.1350
     31  N         25.2500  -25.4130  -14.3690 N.ar    1  UNL1        0.0180
     32  N         25.3750  -24.9730  -15.6140 N.ar    1  UNL1       -0.0030
     33  N         25.4960  -23.6380  -15.5170 N.ar    1  UNL1       -0.2590
     34  C         25.6640  -22.8270  -16.6920 C.3     1  UNL1        0.1770
@<TRIPOS>BOND
     1    34    33    1
     2    32    33   ar
     3    32    31   ar
     4    33    29   ar
     5    31    30   ar
     6    29    28    1
     7    29    30   ar
     8    28    27    1
     9    26    23    1
    10     2     3    1
    11     2     1    2
    12    27    24    1
    13    23     1    1
    14    23    24   am
    15     3     4    2
    16     1     6    1
    17    24    25    2
    18     4     7    1
    19     4     5    1
    20     8     7    2
    21     7     9   am
    22     6     5    2
    23     9    10    1
    24     9    11    1
    25    11    12    1
    26    12    13    1
    27    13    14    1
    28    22    21    2
    29    22    19    1
    30    21    20    1
    31    14    19    1
    32    14    15    1
    33    19    17    2
    34    15    16    2
    35    20    18    2
    36    17    18    1
    37    17    16    1
