@<TRIPOS>MOLECULE
40566_out_ligand_01.pdbqt
 34 37 0 0 0
SMALL
GASTEIGER

@<TRIPOS>ATOM
      1  C         20.6390  -21.1010  -11.4620 C.3     1  UNL1        0.0490
      2  C         19.7550  -21.8470  -10.4990 C.2     1  UNL1       -0.0460
      3  C         18.3720  -21.8930  -10.7440 C.2     1  UNL1        0.0090
      4  C         17.5090  -22.5400   -9.8550 C.2     1  UNL1        0.0250
      5  C         18.0270  -23.1480   -8.7120 C.2     1  UNL1        0.0750
      6  C         19.3980  -23.1230   -8.4470 C.2     1  UNL1        0.0420
      7  C         20.2600  -22.4960   -9.3540 C.2     1  UNL1        0.0390
      8  C         21.7070  -22.5440   -9.0370 C.2     1  UNL1        0.2520
      9  O         22.1470  -21.9070   -8.0900 O.2     1  UNL1       -0.2680
     10  N         22.4510  -23.3720   -9.8430 N.am    1  UNL1       -0.3530
     11  H         22.0030  -23.8650  -10.6010 H       1  UNL1        0.1630
     12  C         23.8910  -23.4380   -9.7510 C.3     1  UNL1        0.1610
     13  C         24.5160  -22.6840  -10.8970 C.2     1  UNL1       -0.0380
     14  C         24.4430  -23.1790  -12.2080 C.2     1  UNL1        0.0120
     15  C         24.9880  -22.4530  -13.2700 C.2     1  UNL1        0.0400
     16  C         25.6000  -21.2250  -13.0310 C.2     1  UNL1        0.1020
     17  C         25.6930  -20.7310  -11.7270 C.2     1  UNL1        0.1020
     18  O         26.0880  -20.5580  -14.1260 O.2     1  UNL1       -0.3460
     19  C         25.1400  -21.4480  -10.6680 C.2     1  UNL1        0.0480
     20  O         26.3030  -19.5420  -11.4160 O.2     1  UNL1       -0.3460
     21  C         27.1210  -19.0800  -12.4980 C.3     1  UNL1        0.2020
     22  C         26.3750  -19.1890  -13.8170 C.3     1  UNL1        0.2020
     23  S         16.9400  -23.9630   -7.5680 S.O2    1  UNL1        0.2460
     24  O         17.7350  -24.7730   -6.6730 O.2     1  UNL1       -0.2060
     25  O         15.8600  -24.5310   -8.3470 O.2     1  UNL1       -0.2060
     26  N         16.2770  -22.6550   -6.7130 N.pl3   1  UNL1       -0.1780
     27  H         15.2900  -22.8570   -6.5330 H       1  UNL1        0.1460
     28  C         17.0180  -22.1920   -5.5810 C.2     1  UNL1        0.0610
     29  C         18.1650  -21.4180   -5.7520 C.2     1  UNL1        0.0270
     30  C         18.9110  -21.0280   -4.6360 C.2     1  UNL1        0.0020
     31  C         18.5170  -21.4200   -3.3530 C.2     1  UNL1        0.0030
     32  C         17.3760  -22.2010   -3.1810 C.2     1  UNL1        0.0440
     33  C         16.6360  -22.5860   -4.2950 C.2     1  UNL1        0.1380
     34  F         15.5350  -23.3330   -4.1270 F       1  UNL1       -0.2040
@<TRIPOS>BOND
     1    18    22    1
     2    18    16    1
     3    22    21    1
     4    15    16    2
     5    15    14    1
     6    16    17    1
     7    21    20    1
     8    14    13    2
     9    17    20    1
    10    17    19    2
    11     1     2    1
    12    13    19    1
    13    13    12    1
    14     3     2    2
    15     3     4    1
    16    11    10    1
    17     2     7    1
    18     4     5    2
    19    10    12    1
    20    10     8   am
    21     7     8    1
    22     7     6    2
    23     8     9    2
    24     5     6    1
    25     5    23    1
    26    25    23    2
    27    23    26    1
    28    23    24    2
    29    26    27    1
    30    26    28    1
    31    29    28    2
    32    29    30    1
    33    28    33    1
    34    30    31    2
    35    33    34    1
    36    33    32    2
    37    31    32    1
