@<TRIPOS>MOLECULE
40563_out_ligand_01.pdbqt
 33 36 0 0 0
SMALL
GASTEIGER

@<TRIPOS>ATOM
      1  N         14.0110  -24.3680   -5.0500 N.1     1  UNL1       -0.1910
      2  C         15.0110  -23.7770   -5.0580 C.1     1  UNL1        0.0990
      3  C         16.2480  -23.0510   -5.0450 C.2     1  UNL1        0.0460
      4  C         16.5550  -22.2160   -3.9660 C.2     1  UNL1        0.0230
      5  C         17.7670  -21.5280   -3.9450 C.2     1  UNL1        0.0040
      6  C         18.6690  -21.6720   -5.0020 C.2     1  UNL1        0.0290
      7  C         18.3690  -22.4990   -6.0930 C.2     1  UNL1        0.0360
      8  C         17.1540  -23.1900   -6.1050 C.2     1  UNL1        0.0520
      9  N         19.3360  -22.5920   -7.1160 N.am    1  UNL1       -0.3230
     10  C         19.1150  -22.5520   -8.4810 C.2     1  UNL1        0.2560
     11  O         18.0480  -22.3660   -9.0520 O.2     1  UNL1       -0.2670
     12  H         20.3020  -22.6060   -6.8110 H       1  UNL1        0.1690
     13  C         20.3380  -22.7200   -9.3110 C.2     1  UNL1        0.0320
     14  C         21.4180  -23.4330   -8.7740 C.2     1  UNL1        0.0190
     15  C         22.5800  -23.6100   -9.5280 C.2     1  UNL1        0.0250
     16  C         22.6710  -23.0510  -10.8010 C.2     1  UNL1        0.0220
     17  C         21.5990  -22.3360  -11.3410 C.2     1  UNL1        0.0250
     18  C         20.4320  -22.1640  -10.5930 C.2     1  UNL1        0.0190
     19  N         23.8510  -23.2900  -11.5780 N.pl3   1  UNL1       -0.1810
     20  H         24.2500  -24.2030  -11.3490 H       1  UNL1        0.1460
     21  S         25.0890  -22.1440  -11.3060 S.O2    1  UNL1        0.2450
     22  O         26.2850  -22.9040  -11.0090 O.2     1  UNL1       -0.2060
     23  O         24.6110  -21.0980  -10.4300 O.2     1  UNL1       -0.2060
     24  C         25.2550  -21.4540  -12.9320 C.2     1  UNL1        0.0770
     25  C         25.9730  -20.2620  -13.1010 C.2     1  UNL1        0.0280
     26  C         26.1220  -19.7250  -14.3810 C.2     1  UNL1        0.0410
     27  C         25.5570  -20.3780  -15.4770 C.2     1  UNL1        0.1020
     28  C         24.8690  -21.5850  -15.3030 C.2     1  UNL1        0.1030
     29  O         25.7230  -19.7780  -16.6990 O.2     1  UNL1       -0.3460
     30  C         24.7090  -22.1260  -14.0290 C.2     1  UNL1        0.0640
     31  O         24.3130  -22.2890  -16.3400 O.2     1  UNL1       -0.3460
     32  C         24.8120  -21.8400  -17.6060 C.3     1  UNL1        0.2020
     33  C         24.8230  -20.3210  -17.6740 C.3     1  UNL1        0.2020
@<TRIPOS>BOND
     1    33    32    1
     2    33    29    1
     3    32    31    1
     4    29    27    1
     5    31    28    1
     6    27    28    2
     7    27    26    1
     8    28    30    1
     9    26    25    2
    10    30    24    2
    11    25    24    1
    12    24    21    1
    13    19    20    1
    14    19    21    1
    15    19    16    1
    16    17    16    2
    17    17    18    1
    18    21    22    2
    19    21    23    2
    20    16    15    1
    21    18    13    2
    22    15    14    2
    23    13    14    1
    24    13    10    1
    25    11    10    2
    26    10     9   am
    27     9    12    1
    28     9     7    1
    29     8     7    1
    30     8     3    2
    31     7     6    2
    32     2     1    3
    33     2     3    1
    34     3     4    1
    35     6     5    1
    36     4     5    2
