@<TRIPOS>MOLECULE
40562_out_ligand_01.pdbqt
 35 38 0 0 0
SMALL
GASTEIGER

@<TRIPOS>ATOM
      1  C         24.2610  -22.1850  -11.0310 C.2     1  UNL1        0.0360
      2  C         25.2610  -21.2590  -10.7200 C.2     1  UNL1        0.0290
      3  C         26.3910  -21.1210  -11.5340 C.2     1  UNL1        0.0040
      4  C         26.5310  -21.9050  -12.6750 C.2     1  UNL1        0.0250
      5  C         25.5310  -22.8230  -12.9940 C.2     1  UNL1        0.0770
      6  C         24.4070  -22.9770  -12.1750 C.2     1  UNL1        0.0540
      7  N         23.1040  -22.3890  -10.2510 N.am    1  UNL1       -0.3230
      8  C         22.9310  -23.3100   -9.2330 C.2     1  UNL1        0.2560
      9  O         23.7860  -24.0540   -8.7670 O.2     1  UNL1       -0.2670
     10  H         22.3420  -21.7430  -10.4180 H       1  UNL1        0.1690
     11  C         21.5680  -23.3360   -8.6290 C.2     1  UNL1        0.0320
     12  C         20.7110  -24.4280   -8.7790 C.2     1  UNL1        0.0190
     13  C         19.4400  -24.4030   -8.1920 C.2     1  UNL1        0.0320
     14  C         19.0020  -23.2930   -7.4430 C.2     1  UNL1        0.0580
     15  C         19.8810  -22.2190   -7.2720 C.2     1  UNL1        0.0320
     16  C         21.1550  -22.2430   -7.8600 C.2     1  UNL1        0.0190
     17  N         17.6870  -23.3300   -6.8700 N.pl3   1  UNL1       -0.2380
     18  C         16.4270  -23.1220   -7.4310 C.2     1  UNL1        0.0350
     19  C         15.5210  -23.2030   -6.3910 C.2     1  UNL1        0.0550
     20  C         16.1130  -22.8970   -8.8630 C.3     1  UNL1        0.0700
     21  C         16.2760  -23.5140   -5.2530 C.2     1  UNL1        0.0530
     22  C         15.8000  -23.7360   -3.8670 C.3     1  UNL1        0.0720
     23  N         17.5720  -23.6210   -5.5420 N.2     1  UNL1       -0.1720
     24  S         25.6990  -23.8210  -14.4510 S.O2    1  UNL1        0.2460
     25  O         27.0590  -23.6610  -14.9180 O.2     1  UNL1       -0.2060
     26  O         25.1450  -25.1300  -14.1790 O.2     1  UNL1       -0.2060
     27  N         24.7120  -23.0050  -15.5650 N.pl3   1  UNL1       -0.1780
     28  H         23.8460  -22.7380  -15.0930 H       1  UNL1        0.1460
     29  C         25.3340  -21.9670  -16.3260 C.2     1  UNL1        0.0610
     30  C         26.0910  -22.2780  -17.4550 C.2     1  UNL1        0.0270
     31  C         26.7460  -21.2590  -18.1530 C.2     1  UNL1        0.0020
     32  C         26.6510  -19.9340  -17.7180 C.2     1  UNL1        0.0030
     33  C         25.9000  -19.6230  -16.5840 C.2     1  UNL1        0.0440
     34  C         25.2500  -20.6410  -15.8940 C.2     1  UNL1        0.1380
     35  F         24.5240  -20.3380  -14.8070 F       1  UNL1       -0.2040
@<TRIPOS>BOND
     1    31    32    2
     2    31    30    1
     3    32    33    1
     4    30    29    2
     5    33    34    2
     6    29    34    1
     7    29    27    1
     8    34    35    1
     9    27    28    1
    10    27    24    1
    11    25    24    2
    12    24    26    2
    13    24     5    1
    14     5     4    2
    15     5     6    1
    16     4     3    1
    17     6     1    2
    18     3     2    2
    19     1     2    1
    20     1     7    1
    21    10     7    1
    22     7     8   am
    23     8     9    2
    24     8    11    1
    25    20    18    1
    26    12    11    2
    27    12    13    1
    28    11    16    1
    29    13    14    2
    30    16    15    2
    31    14    15    1
    32    14    17    1
    33    18    17    1
    34    18    19    2
    35    17    23    1
    36    19    21    1
    37    23    21    2
    38    21    22    1
