@<TRIPOS>MOLECULE
40586_out_ligand_01.pdbqt
 34 37 0 0 0
SMALL
GASTEIGER

@<TRIPOS>ATOM
      1  C         18.9980  -22.1110  -10.6460 C.2     1  UNL1        0.0360
      2  C         18.1850  -21.2650  -11.4070 C.2     1  UNL1        0.0290
      3  C         16.8250  -21.1180  -11.1080 C.2     1  UNL1        0.0040
      4  C         16.2630  -21.8080  -10.0390 C.2     1  UNL1        0.0250
      5  C         17.0760  -22.6380   -9.2670 C.2     1  UNL1        0.0770
      6  C         18.4330  -22.8020   -9.5690 C.2     1  UNL1        0.0540
      7  N         20.3730  -22.3130  -10.8870 N.am    1  UNL1       -0.3230
      8  C         21.3900  -22.3760   -9.9500 C.2     1  UNL1        0.2560
      9  O         21.2840  -22.2230   -8.7400 O.2     1  UNL1       -0.2670
     10  H         20.6490  -22.3450  -11.8610 H       1  UNL1        0.1690
     11  C         22.7440  -22.6230  -10.5190 C.2     1  UNL1        0.0330
     12  C         23.7980  -23.0850   -9.7220 C.2     1  UNL1        0.0190
     13  C         25.0640  -23.3180  -10.2700 C.2     1  UNL1        0.0310
     14  C         25.2370  -23.0640  -11.6360 C.ar    1  UNL1        0.0430
     15  N         26.3530  -23.1980  -12.4270 N.ar    1  UNL1       -0.3590
     16  C         24.2140  -22.5850  -12.4540 C.ar    1  UNL1       -0.0010
     17  C         26.0800  -22.8220  -13.7190 C.ar    1  UNL1        0.0120
     18  H         27.2500  -23.5240  -12.0950 H       1  UNL1        0.1660
     19  C         27.1210  -22.8690  -14.7780 C.3     1  UNL1        0.0680
     20  C         24.7500  -22.4350  -13.7720 C.ar    1  UNL1       -0.0270
     21  C         24.0050  -21.9460  -14.9650 C.3     1  UNL1        0.0510
     22  C         22.9480  -22.3540  -11.8810 C.2     1  UNL1        0.0310
     23  S         16.3720  -23.5040   -7.8890 S.O2    1  UNL1        0.2460
     24  O         15.8310  -24.7610   -8.3590 O.2     1  UNL1       -0.2060
     25  O         15.5520  -22.5540   -7.1660 O.2     1  UNL1       -0.2060
     26  N         17.7300  -23.8020   -6.9160 N.pl3   1  UNL1       -0.1780
     27  H         18.5230  -24.0170   -7.5240 H       1  UNL1        0.1460
     28  C         17.9970  -22.8500   -5.8840 C.2     1  UNL1        0.0610
     29  C         18.8030  -21.7410   -6.1390 C.2     1  UNL1        0.0270
     30  C         19.1050  -20.8520   -5.1030 C.2     1  UNL1        0.0020
     31  C         18.6130  -21.0770   -3.8150 C.2     1  UNL1        0.0030
     32  C         17.8150  -22.1900   -3.5560 C.2     1  UNL1        0.0440
     33  C         17.5140  -23.0720   -4.5900 C.2     1  UNL1        0.1380
     34  F         16.7400  -24.1390   -4.3400 F       1  UNL1       -0.2040
@<TRIPOS>BOND
     1    21    20    1
     2    19    17    1
     3    20    17   ar
     4    20    16   ar
     5    17    15   ar
     6    16    22    1
     7    16    14   ar
     8    15    18    1
     9    15    14   ar
    10    22    11    2
    11    10     7    1
    12    14    13    1
    13     2     3    1
    14     2     1    2
    15     3     4    2
    16     7     1    1
    17     7     8   am
    18     1     6    1
    19    11     8    1
    20    11    12    1
    21    13    12    2
    22     4     5    1
    23     8     9    2
    24     6     5    2
    25     5    23    1
    26    24    23    2
    27    23    25    2
    28    23    26    1
    29    27    26    1
    30    26    28    1
    31    29    28    2
    32    29    30    1
    33    28    33    1
    34    30    31    2
    35    33    34    1
    36    33    32    2
    37    31    32    1
