@<TRIPOS>MOLECULE
40598_out_ligand_01.pdbqt
 31 34 0 0 0
SMALL
GASTEIGER

@<TRIPOS>ATOM
      1  C         19.7390  -22.2500  -10.4460 C.2     1  UNL1        0.0320
      2  C         18.3590  -22.0280  -10.5630 C.2     1  UNL1        0.0180
      3  C         17.4690  -22.6230   -9.6660 C.2     1  UNL1        0.0260
      4  C         17.9630  -23.4470   -8.6510 C.2     1  UNL1        0.0790
      5  C         19.3400  -23.6480   -8.5020 C.2     1  UNL1        0.0260
      6  C         20.2270  -23.0480   -9.4010 C.2     1  UNL1        0.0180
      7  C         20.6480  -21.5920  -11.4310 C.2     1  UNL1        0.2560
      8  O         20.2940  -20.5320  -11.9320 O.2     1  UNL1       -0.2670
      9  N         21.8070  -22.2820  -11.7050 N.am    1  UNL1       -0.3210
     10  H         21.9400  -23.2120  -11.3160 H       1  UNL1        0.1690
     11  C         22.8730  -21.9100  -12.5620 C.2     1  UNL1        0.0640
     12  C         22.6870  -21.2610  -13.7860 C.2     1  UNL1        0.0320
     13  C         23.7860  -20.9240  -14.5730 C.2     1  UNL1        0.0030
     14  C         25.0710  -21.2310  -14.1390 C.2     1  UNL1        0.0140
     15  C         25.2670  -21.8790  -12.9090 C.2     1  UNL1       -0.0050
     16  C         26.5520  -22.1960  -12.4490 C.2     1  UNL1        0.0150
     17  C         24.1620  -22.2260  -12.1020 C.2     1  UNL1        0.0930
     18  C         26.7120  -22.8360  -11.2260 C.2     1  UNL1        0.0200
     19  C         25.5780  -23.1390  -10.4990 C.2     1  UNL1        0.1170
     20  N         24.3210  -22.8510  -10.9060 N.2     1  UNL1       -0.2580
     21  S         16.8370  -24.2040   -7.4970 S.O2    1  UNL1        0.2630
     22  O         17.6030  -25.0570   -6.6140 O.2     1  UNL1       -0.2000
     23  O         15.7230  -24.7250   -8.2620 O.2     1  UNL1       -0.2000
     24  N         16.2320  -22.8850   -6.6350 N.pl3   1  UNL1       -0.2810
     25  H         15.7370  -22.2290   -7.2340 H       1  UNL1        0.1790
     26  C         16.9730  -22.3650   -5.5380 C.2     1  UNL1        0.0420
     27  C         18.0870  -21.5630   -5.7960 C.2     1  UNL1        0.0300
     28  C         18.8510  -21.0710   -4.7360 C.2     1  UNL1        0.0020
     29  C         18.5000  -21.3790   -3.4210 C.2     1  UNL1        0.0000
     30  C         17.3840  -22.1750   -3.1650 C.2     1  UNL1        0.0020
     31  C         16.6200  -22.6680   -4.2240 C.2     1  UNL1        0.0300
@<TRIPOS>BOND
     1    13    14    2
     2    13    12    1
     3    14    15    1
     4    12    11    2
     5    15    16    2
     6    15    17    1
     7    11    17    1
     8    11     9    1
     9    16    18    1
    10    17    20    2
    11     8     7    2
    12     9     7   am
    13     9    10    1
    14     7     1    1
    15    18    19    2
    16    20    19    1
    17     2     1    2
    18     2     3    1
    19     1     6    1
    20     3     4    2
    21     6     5    2
    22     4     5    1
    23     4    21    1
    24    23    21    2
    25    21    24    1
    26    21    22    2
    27    25    24    1
    28    24    26    1
    29    27    26    2
    30    27    28    1
    31    26    31    1
    32    28    29    2
    33    31    30    2
    34    29    30    1
