@<TRIPOS>MOLECULE
40593_out_ligand_01.pdbqt
 33 36 0 0 0
SMALL
GASTEIGER

@<TRIPOS>ATOM
      1  C         18.5500  -22.0690  -10.2970 C.2     1  UNL1        0.0330
      2  C         18.7270  -21.1170  -11.3120 C.2     1  UNL1        0.0170
      3  C         20.0100  -20.7990  -11.7650 C.2     1  UNL1        0.0030
      4  C         21.1240  -21.4290  -11.2100 C.2     1  UNL1        0.0250
      5  C         20.9440  -22.3680  -10.1900 C.2     1  UNL1        0.0800
      6  C         19.6670  -22.6830   -9.7190 C.2     1  UNL1        0.0420
      7  C         17.1990  -22.4540   -9.8000 C.2     1  UNL1        0.2520
      8  N         17.1500  -23.0400   -8.5560 N.am    1  UNL1       -0.3490
      9  H         17.9770  -23.0680   -7.9770 H       1  UNL1        0.1630
     10  O         16.2030  -22.2010  -10.4680 O.2     1  UNL1       -0.2680
     11  C         15.8870  -23.3820   -7.9150 C.3     1  UNL1        0.1140
     12  C         15.5340  -24.8470   -8.2000 C.3     1  UNL1        0.0370
     13  C         15.9700  -22.9960   -6.4370 C.2     1  UNL1       -0.0250
     14  C         14.9310  -23.3480   -5.5530 C.2     1  UNL1        0.0100
     15  C         14.9980  -23.0330   -4.2000 C.2     1  UNL1        0.0020
     16  C         16.1120  -22.3700   -3.6960 C.2     1  UNL1        0.0120
     17  C         17.1770  -22.0180   -4.5340 C.2     1  UNL1       -0.0250
     18  C         18.2950  -21.3590   -3.9950 C.2     1  UNL1        0.0120
     19  C         17.1270  -22.3290   -5.9180 C.2     1  UNL1       -0.0180
     20  C         19.3760  -21.0000   -4.7960 C.2     1  UNL1        0.0010
     21  C         19.3530  -21.2980   -6.1490 C.2     1  UNL1        0.0010
     22  C         18.2500  -21.9550   -6.7010 C.2     1  UNL1        0.0130
     23  S         22.3500  -23.1890   -9.4810 S.O2    1  UNL1        0.2580
     24  O         21.9200  -24.5070   -9.0700 O.2     1  UNL1       -0.2010
     25  O         22.9910  -22.2690   -8.5670 O.2     1  UNL1       -0.2010
     26  N         23.3690  -23.3830  -10.7940 N.3     1  UNL1       -0.3130
     27  H         22.9020  -23.3380  -11.7040 H       1  UNL1        0.1720
     28  C         24.7290  -22.8270  -10.7430 C.3     1  UNL1        0.1640
     29  C         24.7450  -21.4950  -11.5100 C.3     1  UNL1        0.1400
     30  C         25.3740  -21.6150  -12.8920 C.3     1  UNL1        0.0350
     31  C         26.8100  -21.2220  -12.6460 C.3     1  UNL1        0.0290
     32  C         26.6620  -20.1540  -11.5870 C.3     1  UNL1        0.1680
     33  O         25.5550  -20.5510  -10.7670 O.3     1  UNL1       -0.3840
@<TRIPOS>BOND
     1    30    31    1
     2    30    29    1
     3    31    32    1
     4     3     2    1
     5     3     4    2
     6    27    26    1
     7    32    33    1
     8    29    33    1
     9    29    28    1
    10     2     1    2
    11     4     5    1
    12    26    28    1
    13    26    23    1
    14    10     7    2
    15     1     7    1
    16     1     6    1
    17     5     6    2
    18     5    23    1
    19     7     8   am
    20    23    24    2
    21    23    25    2
    22     8     9    1
    23     8    11    1
    24    12    11    1
    25    11    13    1
    26    22    21    2
    27    22    19    1
    28    13    19    2
    29    13    14    1
    30    21    20    1
    31    19    17    1
    32    14    15    2
    33    20    18    2
    34    17    18    1
    35    17    16    2
    36    15    16    1
