@<TRIPOS>MOLECULE
40594_out_ligand_01.pdbqt
 31 33 0 0 0
SMALL
GASTEIGER

@<TRIPOS>ATOM
      1  C         18.5850  -21.8840   -6.2560 C.2     1  UNL1        0.0360
      2  C         19.0700  -21.0220   -5.2620 C.2     1  UNL1        0.0290
      3  C         18.5150  -21.0260   -3.9800 C.2     1  UNL1        0.0040
      4  C         17.4690  -21.8950   -3.6790 C.2     1  UNL1        0.0230
      5  C         16.9790  -22.7620   -4.6590 C.2     1  UNL1        0.0460
      6  C         15.9050  -23.6600   -4.3480 C.1     1  UNL1        0.0990
      7  N         15.0380  -24.3820   -4.0770 N.1     1  UNL1       -0.1910
      8  C         17.5380  -22.7550   -5.9450 C.2     1  UNL1        0.0520
      9  N         19.2040  -21.8190   -7.5200 N.am    1  UNL1       -0.3230
     10  C         18.8750  -22.5390   -8.6500 C.2     1  UNL1        0.2560
     11  O         17.9520  -23.3280   -8.7980 O.2     1  UNL1       -0.2670
     12  H         19.9470  -21.1360   -7.6190 H       1  UNL1        0.1690
     13  C         19.7380  -22.2540   -9.8210 C.2     1  UNL1        0.0390
     14  C         19.2310  -21.7150  -11.0220 C.2     1  UNL1       -0.0460
     15  C         20.1210  -21.4980  -12.0870 C.2     1  UNL1        0.0090
     16  C         17.7790  -21.3670  -11.2010 C.3     1  UNL1        0.0490
     17  C         21.4840  -21.7680  -11.9480 C.2     1  UNL1        0.0260
     18  C         21.9700  -22.2550  -10.7330 C.2     1  UNL1        0.0800
     19  C         21.1040  -22.5150   -9.6710 C.2     1  UNL1        0.0420
     20  S         23.7070  -22.5790  -10.5300 S.O2    1  UNL1        0.2630
     21  O         23.8690  -23.4650   -9.3970 O.2     1  UNL1       -0.2000
     22  O         24.3840  -21.3000  -10.5830 O.2     1  UNL1       -0.2000
     23  N         24.1090  -23.3950  -11.9520 N.pl3   1  UNL1       -0.2810
     24  H         24.3140  -24.3790  -11.7840 H       1  UNL1        0.1790
     25  C         24.8760  -22.7210  -12.9440 C.2     1  UNL1        0.0420
     26  C         24.2160  -21.9370  -13.8900 C.2     1  UNL1        0.0300
     27  C         24.9440  -21.3000  -14.8970 C.2     1  UNL1        0.0090
     28  C         26.3340  -21.4480  -14.9710 C.2     1  UNL1       -0.0620
     29  C         27.1210  -20.7350  -16.0320 C.3     1  UNL1        0.0480
     30  C         26.9880  -22.2220  -14.0050 C.2     1  UNL1        0.0090
     31  C         26.2610  -22.8610  -12.9990 C.2     1  UNL1        0.0300
@<TRIPOS>BOND
     1    29    28    1
     2    28    27    2
     3    28    30    1
     4    27    26    1
     5    30    31    2
     6    26    25    2
     7    31    25    1
     8    25    23    1
     9    15    17    2
    10    15    14    1
    11    23    24    1
    12    23    20    1
    13    17    18    1
    14    16    14    1
    15    14    13    2
    16    18    20    1
    17    18    19    2
    18    22    20    2
    19    20    21    2
    20    13    19    1
    21    13    10    1
    22    11    10    2
    23    10     9   am
    24    12     9    1
    25     9     1    1
    26     1     8    2
    27     1     2    1
    28     8     5    1
    29     2     3    2
    30     5     6    1
    31     5     4    2
    32     6     7    3
    33     3     4    1
