@<TRIPOS>MOLECULE
40606_out_ligand_01.pdbqt
 35 38 0 0 0
SMALL
GASTEIGER

@<TRIPOS>ATOM
      1  C         16.0140  -22.5050   -9.3890 C.3     1  UNL1        0.0500
      2  C         17.3670  -22.2180   -9.9780 C.2     1  UNL1       -0.0390
      3  C         17.4290  -21.7820  -11.3100 C.2     1  UNL1        0.0100
      4  C         18.6540  -21.5200  -11.9370 C.2     1  UNL1        0.0300
      5  C         19.8540  -21.7050  -11.2540 C.2     1  UNL1        0.0360
      6  C         19.8080  -22.1470   -9.9290 C.2     1  UNL1        0.0550
      7  C         18.5790  -22.3930   -9.2890 C.2     1  UNL1        0.0870
      8  N         21.1280  -21.4670  -11.8110 N.am    1  UNL1       -0.3230
      9  C         22.2620  -22.2480  -11.6700 C.2     1  UNL1        0.2560
     10  O         22.3810  -23.2580  -10.9880 O.2     1  UNL1       -0.2670
     11  H         21.2290  -20.5930  -12.3100 H       1  UNL1        0.1690
     12  C         23.4600  -21.7600  -12.4100 C.2     1  UNL1        0.0340
     13  C         24.6970  -21.5800  -11.7820 C.2     1  UNL1        0.0180
     14  C         25.7870  -21.1030  -12.5160 C.2     1  UNL1        0.0220
     15  C         25.6540  -20.8060  -13.8780 C.2     1  UNL1        0.0270
     16  C         24.4120  -20.9780  -14.5040 C.2     1  UNL1        0.0520
     17  S         27.0490  -20.1060  -14.7310 S.3     1  UNL1       -0.1180
     18  C         23.3160  -21.4380  -13.7670 C.2     1  UNL1        0.0480
     19  N         24.2060  -20.6580  -15.8530 N.am    1  UNL1       -0.3250
     20  C         25.1710  -20.3520  -16.7710 C.2     1  UNL1        0.2310
     21  H         23.2590  -20.6170  -16.2130 H       1  UNL1        0.1690
     22  O         24.8350  -20.0060  -17.9060 O.2     1  UNL1       -0.2720
     23  C         26.6220  -20.5880  -16.4170 C.3     1  UNL1        0.1820
     24  S         18.6500  -22.9500   -7.5900 S.O2    1  UNL1        0.2630
     25  O         18.2080  -24.3260   -7.5340 O.2     1  UNL1       -0.2000
     26  O         19.9430  -22.5750   -7.0550 O.2     1  UNL1       -0.2000
     27  N         17.4560  -22.0200   -6.8300 N.pl3   1  UNL1       -0.2790
     28  H         17.7020  -21.0280   -6.8380 H       1  UNL1        0.1790
     29  C         16.8740  -22.5070   -5.6140 C.2     1  UNL1        0.0640
     30  C         15.7570  -23.3440   -5.6630 C.2     1  UNL1        0.0320
     31  C         15.2030  -23.8490   -4.4840 C.2     1  UNL1        0.0020
     32  C         15.7610  -23.5190   -3.2500 C.2     1  UNL1        0.0020
     33  C         16.8710  -22.6740   -3.1900 C.2     1  UNL1        0.0260
     34  C         17.4220  -22.1650   -4.3680 C.2     1  UNL1        0.0610
     35 CL         18.7830  -21.1080   -4.2490 Cl      1  UNL1       -0.0820
@<TRIPOS>BOND
     1    22    20    2
     2    20    23    1
     3    20    19   am
     4    23    17    1
     5    21    19    1
     6    19    16    1
     7    17    15    1
     8    16    15    2
     9    16    18    1
    10    15    14    1
    11    18    12    2
    12    14    13    2
    13    12    13    1
    14    12     9    1
    15    11     8    1
    16     4     3    1
    17     4     5    2
    18     8     9   am
    19     8     5    1
    20     9    10    2
    21     3     2    2
    22     5     6    1
    23     2     1    1
    24     2     7    1
    25     6     7    2
    26     7    24    1
    27    24    25    2
    28    24    26    2
    29    24    27    1
    30    28    27    1
    31    27    29    1
    32    30    29    2
    33    30    31    1
    34    29    34    1
    35    31    32    2
    36    34    35    1
    37    34    33    2
    38    32    33    1
