@<TRIPOS>MOLECULE
40609_out_ligand_01.pdbqt
 35 39 0 0 0
SMALL
GASTEIGER

@<TRIPOS>ATOM
      1  C         19.4080  -22.1690  -10.6970 C.2     1  UNL1        0.0320
      2  C         18.0920  -21.6870  -10.7380 C.2     1  UNL1        0.0180
      3  C         17.1530  -22.1370   -9.8050 C.2     1  UNL1        0.0260
      4  C         17.5350  -23.0660   -8.8320 C.2     1  UNL1        0.0790
      5  C         18.8540  -23.5240   -8.7590 C.2     1  UNL1        0.0260
      6  C         19.7880  -23.0750   -9.6950 C.2     1  UNL1        0.0180
      7  C         20.4420  -21.7190  -11.6720 C.2     1  UNL1        0.2560
      8  O         20.1620  -20.7950  -12.4250 O.2     1  UNL1       -0.2670
      9  N         21.6520  -22.3860  -11.5900 N.am    1  UNL1       -0.3230
     10  H         21.7690  -23.0350  -10.8240 H       1  UNL1        0.1690
     11  C         22.7890  -22.1960  -12.4070 C.2     1  UNL1        0.0370
     12  C         24.0060  -22.7420  -11.9390 C.2     1  UNL1        0.0320
     13  C         25.1890  -22.6160  -12.6760 C.2     1  UNL1        0.0420
     14  C         25.1240  -21.9430  -13.8730 C.2     1  UNL1        0.1060
     15  C         23.9460  -21.4110  -14.3370 C.2     1  UNL1        0.1080
     16  O         26.1650  -21.7230  -14.7200 O.2     1  UNL1       -0.3110
     17  C         22.7630  -21.5210  -13.6310 C.2     1  UNL1        0.0690
     18  O         24.0980  -20.7910  -15.5390 O.2     1  UNL1       -0.3110
     19  C         25.5100  -20.9920  -15.7750 C.3     1  UNL1        0.1760
     20  C         26.1920  -19.6430  -16.0010 C.3     1  UNL1        0.0690
     21  C         25.7130  -21.6870  -17.1210 C.3     1  UNL1        0.0690
     22  C         25.8170  -19.2660  -17.4310 C.3     1  UNL1        0.0060
     23  C         25.5060  -20.5800  -18.1510 C.3     1  UNL1        0.0060
     24  S         16.3450  -23.6410   -7.6370 S.O2    1  UNL1        0.2630
     25  O         15.5800  -22.4930   -7.2020 O.2     1  UNL1       -0.2000
     26  O         15.6980  -24.8140   -8.1840 O.2     1  UNL1       -0.2000
     27  N         17.3090  -24.1000   -6.3270 N.pl3   1  UNL1       -0.2780
     28  H         16.9780  -24.9780   -5.9210 H       1  UNL1        0.1790
     29  C         17.7030  -23.0970   -5.3890 C.2     1  UNL1        0.0810
     30  C         18.5440  -22.0500   -5.7620 C.2     1  UNL1        0.0330
     31  C         18.8810  -21.0630   -4.8320 C.2     1  UNL1        0.0020
     32  C         18.3750  -21.1180   -3.5310 C.2     1  UNL1        0.0030
     33  C         17.5320  -22.1630   -3.1540 C.2     1  UNL1        0.0440
     34  C         17.2020  -23.1430   -4.0840 C.2     1  UNL1        0.1430
     35  F         16.3820  -24.1420   -3.7220 F       1  UNL1       -0.2040
@<TRIPOS>BOND
     1    23    22    1
     2    23    21    1
     3    22    20    1
     4    21    19    1
     5    20    19    1
     6    19    18    1
     7    19    16    1
     8    18    15    1
     9    16    14    1
    10    15    14    2
    11    15    17    1
    12    14    13    1
    13    17    11    2
    14    13    12    2
    15     8     7    2
    16    11    12    1
    17    11     9    1
    18     7     9   am
    19     7     1    1
    20     9    10    1
    21     2     1    2
    22     2     3    1
    23     1     6    1
    24     3     4    2
    25     6     5    2
    26     4     5    1
    27     4    24    1
    28    26    24    2
    29    24    25    2
    30    24    27    1
    31    27    28    1
    32    27    29    1
    33    30    29    2
    34    30    31    1
    35    29    34    1
    36    31    32    2
    37    34    35    1
    38    34    33    2
    39    32    33    1
