@<TRIPOS>MOLECULE
40608_out_ligand_01.pdbqt
 30 32 0 0 0
SMALL
GASTEIGER

@<TRIPOS>ATOM
      1  N         26.6170  -25.1670  -13.7780 N.1     1  UNL1       -0.1910
      2  C         26.1330  -24.3360  -13.1280 C.1     1  UNL1        0.0990
      3  C         25.5530  -23.3000  -12.3230 C.2     1  UNL1        0.0460
      4  C         26.3800  -22.4130  -11.6280 C.2     1  UNL1        0.0230
      5  C         25.8160  -21.4040  -10.8520 C.2     1  UNL1        0.0040
      6  C         24.4270  -21.2820  -10.7670 C.2     1  UNL1        0.0290
      7  C         23.5870  -22.1680  -11.4560 C.2     1  UNL1        0.0360
      8  C         24.1590  -23.1750  -12.2370 C.2     1  UNL1        0.0520
      9  N         22.1960  -21.9710  -11.3200 N.am    1  UNL1       -0.3230
     10  C         21.3180  -22.7180  -10.5590 C.2     1  UNL1        0.2560
     11  O         21.5900  -23.6520   -9.8150 O.2     1  UNL1       -0.2670
     12  H         21.8220  -21.1490  -11.7780 H       1  UNL1        0.1690
     13  C         19.8940  -22.2970  -10.6470 C.2     1  UNL1        0.0330
     14  C         19.4570  -21.3790  -11.6120 C.2     1  UNL1        0.0170
     15  C         18.1040  -21.0320  -11.6850 C.2     1  UNL1        0.0030
     16  C         17.1850  -21.6100  -10.8090 C.2     1  UNL1        0.0250
     17  C         17.6240  -22.5420   -9.8650 C.2     1  UNL1        0.0800
     18  C         18.9760  -22.8820   -9.7700 C.2     1  UNL1        0.0420
     19  S         16.4630  -23.3130   -8.7610 S.O2    1  UNL1        0.2630
     20  O         15.8130  -24.3910   -9.4740 O.2     1  UNL1       -0.2000
     21  O         15.6980  -22.2510   -8.1420 O.2     1  UNL1       -0.2000
     22  N         17.4570  -23.9570   -7.5560 N.pl3   1  UNL1       -0.2810
     23  H         17.2750  -24.9470   -7.3990 H       1  UNL1        0.1790
     24  C         17.8030  -23.1550   -6.4330 C.2     1  UNL1        0.0420
     25  C         17.3160  -23.5160   -5.1730 C.2     1  UNL1        0.0330
     26  C         17.6140  -22.7250   -4.0620 C.2     1  UNL1        0.0440
     27  C         18.3960  -21.5860   -4.2200 C.2     1  UNL1        0.1160
     28  F         18.6790  -20.8270   -3.1530 F       1  UNL1       -0.2060
     29  C         18.8880  -21.2240   -5.4680 C.2     1  UNL1        0.0440
     30  C         18.5910  -22.0120   -6.5810 C.2     1  UNL1        0.0330
@<TRIPOS>BOND
     1     1     2    3
     2     2     3    1
     3     3     8    2
     4     3     4    1
     5     8     7    1
     6    12     9    1
     7    15    14    1
     8    15    16    2
     9     4     5    2
    10    14    13    2
    11     7     9    1
    12     7     6    2
    13     9    10   am
    14     5     6    1
    15    16    17    1
    16    13    10    1
    17    13    18    1
    18    10    11    2
    19    17    18    2
    20    17    19    1
    21    20    19    2
    22    19    21    2
    23    19    22    1
    24    22    23    1
    25    22    24    1
    26    30    24    2
    27    30    29    1
    28    24    25    1
    29    29    27    2
    30    25    26    2
    31    27    26    1
    32    27    28    1
