@<TRIPOS>MOLECULE
40617_out_ligand_01.pdbqt
 30 32 0 0 0
SMALL
GASTEIGER

@<TRIPOS>ATOM
      1  C         18.2400  -22.8650   -9.5880 C.2     1  UNL1        0.2520
      2  O         17.6900  -23.4350  -10.5240 O.2     1  UNL1       -0.2680
      3  N         19.3970  -22.1320   -9.7240 N.am    1  UNL1       -0.3490
      4  H         19.9010  -21.8200   -8.9060 H       1  UNL1        0.1630
      5  C         17.6850  -22.9850   -8.2100 C.2     1  UNL1        0.0320
      6  C         16.6510  -22.1140   -7.8350 C.2     1  UNL1        0.0180
      7  C         16.0950  -22.1840   -6.5550 C.2     1  UNL1        0.0260
      8  C         16.5760  -23.1330   -5.6500 C.2     1  UNL1        0.0790
      9  C         17.6270  -23.9860   -6.0000 C.2     1  UNL1        0.0260
     10  C         18.1830  -23.9110   -7.2800 C.2     1  UNL1        0.0180
     11  S         15.8890  -23.2230   -4.0110 S.O2    1  UNL1        0.2590
     12  O         16.2230  -24.5150   -3.4550 O.2     1  UNL1       -0.2010
     13  O         14.5260  -22.7490   -4.0840 O.2     1  UNL1       -0.2010
     14  N         16.7560  -22.0550   -3.1920 N.3     1  UNL1       -0.3120
     15  H         16.2430  -21.2050   -2.9790 H       1  UNL1        0.1720
     16  C         18.2010  -22.0160   -3.3100 C.3     1  UNL1        0.1580
     17  C         18.5460  -20.7720   -4.0670 C.2     1  UNL1       -0.0170
     18  C         19.2570  -20.7510   -5.2040 C.2     1  UNL1        0.0080
     19  C         20.0670  -21.9800  -11.0090 C.3     1  UNL1        0.1140
     20  C         19.7370  -20.6080  -11.6120 C.3     1  UNL1        0.0370
     21  C         21.5560  -22.2810  -10.8280 C.2     1  UNL1       -0.0250
     22  C         22.0200  -22.8780   -9.6400 C.2     1  UNL1        0.0100
     23  C         23.3680  -23.1760   -9.4610 C.2     1  UNL1        0.0020
     24  C         24.2790  -22.8950  -10.4720 C.2     1  UNL1        0.0120
     25  C         23.8610  -22.3210  -11.6780 C.2     1  UNL1       -0.0250
     26  C         24.8030  -22.0620  -12.6860 C.2     1  UNL1        0.0120
     27  C         22.4900  -22.0100  -11.8800 C.2     1  UNL1       -0.0180
     28  C         24.4210  -21.5020  -13.9030 C.2     1  UNL1        0.0010
     29  C         23.0870  -21.1970  -14.1260 C.2     1  UNL1        0.0010
     30  C         22.1380  -21.4470  -13.1310 C.2     1  UNL1        0.0130
@<TRIPOS>BOND
     1    29    28    1
     2    29    30    2
     3    28    26    2
     4    30    27    1
     5    26    25    1
     6    27    25    1
     7    27    21    2
     8    25    24    2
     9    20    19    1
    10    19    21    1
    11    19     3    1
    12    21    22    1
    13     2     1    2
    14    24    23    1
    15     3     1   am
    16     3     4    1
    17    22    23    2
    18     1     5    1
    19     5     6    2
    20     5    10    1
    21     6     7    1
    22    10     9    2
    23     7     8    2
    24     9     8    1
    25     8    11    1
    26    18    17    2
    27    13    11    2
    28    17    16    1
    29    11    12    2
    30    11    14    1
    31    16    14    1
    32    14    15    1
