@<TRIPOS>MOLECULE
40613_out_ligand_01.pdbqt
 34 36 0 0 0
SMALL
GASTEIGER

@<TRIPOS>ATOM
      1  C         18.7720  -22.1180  -10.5270 C.2     1  UNL1        0.0830
      2  C         20.0480  -22.7150  -10.5270 C.2     1  UNL1        0.0540
      3  C         21.0710  -22.2000  -11.3220 C.2     1  UNL1        0.0360
      4  C         20.8010  -21.0900  -12.1290 C.2     1  UNL1        0.0300
      5  C         19.5370  -20.4950  -12.1310 C.2     1  UNL1        0.0100
      6  C         18.5030  -20.9880  -11.3210 C.2     1  UNL1       -0.0390
      7  C         17.1660  -20.3050  -11.3800 C.3     1  UNL1        0.0500
      8  N         22.3820  -22.7250  -11.3750 N.am    1  UNL1       -0.3220
      9  C         23.4830  -22.2940  -10.6680 C.2     1  UNL1        0.2730
     10  O         23.5120  -21.4010   -9.8280 O.2     1  UNL1       -0.2660
     11  H         22.4920  -23.5330  -11.9710 H       1  UNL1        0.1690
     12  C         24.7560  -23.0550  -10.9310 C.2     1  UNL1        0.1100
     13  C         25.3220  -23.1570  -12.1400 C.2     1  UNL1        0.1090
     14  C         26.5870  -23.9070  -12.2640 C.2     1  UNL1        0.2510
     15  O         27.1200  -24.0390  -13.3580 O.2     1  UNL1       -0.2680
     16  N         27.1000  -24.4280  -11.1130 N.am    1  UNL1       -0.2750
     17  C         26.5470  -24.2870   -9.8720 C.2     1  UNL1        0.3270
     18  H         27.9720  -24.9320  -11.1710 H       1  UNL1        0.1730
     19  O         27.0760  -24.7470   -8.8660 O.2     1  UNL1       -0.2470
     20  N         25.3720  -23.6000   -9.8300 N.am    1  UNL1       -0.3040
     21  H         24.9480  -23.4490   -8.9180 H       1  UNL1        0.1710
     22  S         17.5100  -22.8660   -9.4950 S.O2    1  UNL1        0.2460
     23  O         16.7410  -21.8010   -8.8890 O.2     1  UNL1       -0.2060
     24  O         16.8710  -23.9140  -10.2610 O.2     1  UNL1       -0.2060
     25  N         18.4940  -23.6340   -8.3300 N.pl3   1  UNL1       -0.1810
     26  H         18.2290  -24.6180   -8.3020 H       1  UNL1        0.1460
     27  C         18.4570  -23.0320   -7.0250 C.2     1  UNL1        0.0280
     28  C         19.3220  -21.9660   -6.7680 C.2     1  UNL1        0.0250
     29  C         19.3080  -21.3240   -5.5290 C.2     1  UNL1        0.0080
     30  C         18.4290  -21.7440   -4.5290 C.2     1  UNL1       -0.0610
     31  C         18.3810  -21.0380   -3.2070 C.3     1  UNL1        0.0480
     32  C         17.5460  -22.7990   -4.7980 C.2     1  UNL1        0.0150
     33  C         17.5500  -23.4580   -6.0400 C.2     1  UNL1       -0.0390
     34  C         16.5590  -24.5640   -6.2750 C.3     1  UNL1        0.0500
@<TRIPOS>BOND
     1    15    14    2
     2    14    13    1
     3    14    16   am
     4    13    12    2
     5     5     4    2
     6     5     6    1
     7     4     3    1
     8    11     8    1
     9     7     6    1
    10     8     3    1
    11     8     9   am
    12     3     2    2
    13     6     1    2
    14    18    16    1
    15    16    17   am
    16    12     9    1
    17    12    20    1
    18     9    10    2
    19     2     1    1
    20     1    22    1
    21    24    22    2
    22    17    20   am
    23    17    19    2
    24    20    21    1
    25    22    23    2
    26    22    25    1
    27    25    26    1
    28    25    27    1
    29    27    28    2
    30    27    33    1
    31    28    29    1
    32    34    33    1
    33    33    32    2
    34    29    30    2
    35    32    30    1
    36    30    31    1
