@<TRIPOS>MOLECULE
40614_out_ligand_01.pdbqt
 32 35 0 0 0
SMALL
GASTEIGER

@<TRIPOS>ATOM
      1  C         19.4080  -22.2550  -10.4690 C.2     1  UNL1        0.0360
      2  C         18.7650  -21.4330  -11.4050 C.2     1  UNL1        0.0290
      3  C         17.3910  -21.1860  -11.3240 C.2     1  UNL1        0.0040
      4  C         16.6410  -21.7620  -10.3030 C.2     1  UNL1        0.0250
      5  C         17.2780  -22.5810   -9.3700 C.2     1  UNL1        0.0770
      6  C         18.6580  -22.8220   -9.4390 C.2     1  UNL1        0.0540
      7  N         20.7900  -22.4620  -10.6430 N.am    1  UNL1       -0.3220
      8  C         21.7870  -22.4260   -9.6760 C.2     1  UNL1        0.2770
      9  O         21.6170  -22.1610   -8.4910 O.2     1  UNL1       -0.2660
     10  H         21.1030  -22.6120  -11.5940 H       1  UNL1        0.1690
     11  C         23.1240  -22.7380  -10.2220 C.ar    1  UNL1        0.1570
     12  N         24.0570  -23.3560   -9.4740 N.ar    1  UNL1       -0.1680
     13  N         25.1200  -23.4560  -10.2830 N.ar    1  UNL1       -0.2770
     14  C         24.9350  -22.9180  -11.5260 C.ar    1  UNL1        0.0620
     15  H         25.9530  -23.9080   -9.9220 H       1  UNL1        0.1890
     16  C         25.7900  -22.8200  -12.6280 C.2     1  UNL1        0.0320
     17  C         23.6260  -22.4510  -11.5310 C.ar    1  UNL1        0.0280
     18  C         25.2740  -22.2230  -13.7830 C.2     1  UNL1        0.0020
     19  C         23.9610  -21.7600  -13.8300 C.2     1  UNL1        0.0010
     20  C         23.1220  -21.8690  -12.7140 C.2     1  UNL1        0.0160
     21  S         16.3400  -23.3300   -8.0580 S.O2    1  UNL1        0.2460
     22  O         15.5730  -22.2820   -7.4210 O.2     1  UNL1       -0.2060
     23  O         15.6930  -24.5110   -8.5890 O.2     1  UNL1       -0.2060
     24  N         17.5320  -23.8060   -6.9560 N.pl3   1  UNL1       -0.1780
     25  H         17.3870  -24.7770   -6.6680 H       1  UNL1        0.1460
     26  C         17.8820  -22.9010   -5.9040 C.2     1  UNL1        0.0610
     27  C         18.7670  -21.8460   -6.1230 C.2     1  UNL1        0.0270
     28  C         19.0660  -20.9610   -5.0840 C.2     1  UNL1        0.0020
     29  C         18.4840  -21.1290   -3.8260 C.2     1  UNL1        0.0030
     30  C         17.6030  -22.1850   -3.6010 C.2     1  UNL1        0.0440
     31  C         17.3080  -23.0620   -4.6400 C.2     1  UNL1        0.1380
     32  F         16.4550  -24.0740   -4.4200 F       1  UNL1       -0.2040
@<TRIPOS>BOND
     1    19    18    2
     2    19    20    1
     3    18    16    1
     4    20    17    2
     5    16    14    2
     6    10     7    1
     7    17    14   ar
     8    17    11   ar
     9    14    13   ar
    10     2     3    1
    11     2     1    2
    12     3     4    2
    13     7     1    1
    14     7     8   am
    15     1     6    1
    16     4     5    1
    17    13    15    1
    18    13    12   ar
    19    11     8    1
    20    11    12   ar
    21     8     9    2
    22     6     5    2
    23     5    21    1
    24    23    21    2
    25    21    22    2
    26    21    24    1
    27    24    25    1
    28    24    26    1
    29    27    26    2
    30    27    28    1
    31    26    31    1
    32    28    29    2
    33    31    32    1
    34    31    30    2
    35    29    30    1
