@<TRIPOS>MOLECULE
40620_out_ligand_01.pdbqt
 35 38 0 0 0
SMALL
GASTEIGER

@<TRIPOS>ATOM
      1  C         18.6820  -22.5300  -10.6930 C.2     1  UNL1        0.0360
      2  C         18.5460  -21.4570  -11.5790 C.2     1  UNL1        0.0290
      3  C         19.6570  -20.6960  -11.9610 C.2     1  UNL1        0.0040
      4  C         20.9190  -20.9960  -11.4560 C.2     1  UNL1        0.0250
      5  C         21.0560  -22.0540  -10.5570 C.2     1  UNL1        0.0820
      6  C         19.9500  -22.8290  -10.1850 C.2     1  UNL1        0.0540
      7  N         17.6140  -23.3500  -10.2760 N.am    1  UNL1       -0.3270
      8  C         16.5260  -22.9910   -9.4970 C.2     1  UNL1        0.2220
      9  O         16.3270  -21.8940   -8.9850 O.2     1  UNL1       -0.2730
     10  H         17.6320  -24.3070  -10.6070 H       1  UNL1        0.1690
     11  C         15.5750  -24.1580   -9.2790 C.3     1  UNL1        0.1030
     12  C         15.4610  -24.5740   -7.8120 C.3     1  UNL1        0.0140
     13  C         16.8050  -24.7170   -7.0870 C.3     1  UNL1        0.0410
     14  C         17.0430  -23.6700   -6.0440 C.2     1  UNL1       -0.0300
     15  C         16.2790  -23.4620   -4.9120 C.2     1  UNL1        0.0960
     16  N         16.8170  -22.4160   -4.2130 N.pl3   1  UNL1       -0.3650
     17  C         17.9290  -21.9340   -4.8620 C.2     1  UNL1        0.0420
     18  H         16.4520  -22.0430   -3.3490 H       1  UNL1        0.1650
     19  C         18.7920  -20.8860   -4.5160 C.2     1  UNL1        0.0300
     20  C         18.0920  -22.6940   -6.0210 C.2     1  UNL1       -0.0020
     21  C         19.8520  -20.6060   -5.3830 C.2     1  UNL1        0.0020
     22  C         20.0390  -21.3430   -6.5490 C.2     1  UNL1        0.0010
     23  C         19.1670  -22.3870   -6.8800 C.2     1  UNL1        0.0140
     24  S         22.6590  -22.4640   -9.9070 S.O2    1  UNL1        0.2630
     25  O         22.4780  -23.4060   -8.8230 O.2     1  UNL1       -0.2000
     26  O         23.3700  -21.2180   -9.7080 O.2     1  UNL1       -0.2000
     27  N         23.4180  -23.2430  -11.2010 N.pl3   1  UNL1       -0.2780
     28  H         23.4650  -24.2510  -11.0450 H       1  UNL1        0.1790
     29  C         24.5930  -22.6490  -11.7540 C.2     1  UNL1        0.0810
     30  C         25.8370  -22.8130  -11.1470 C.2     1  UNL1        0.0330
     31  C         26.9750  -22.2560  -11.7370 C.2     1  UNL1        0.0020
     32  C         26.8710  -21.5390  -12.9340 C.2     1  UNL1        0.0030
     33  C         25.6270  -21.3750  -13.5430 C.2     1  UNL1        0.0440
     34  C         24.4990  -21.9290  -12.9490 C.2     1  UNL1        0.1430
     35  F         23.3030  -21.7790  -13.5400 F       1  UNL1       -0.2040
@<TRIPOS>BOND
     1    33    34    1
     2    33    32    2
     3    35    34    1
     4    34    29    2
     5    32    31    1
     6     3     2    1
     7     3     4    2
     8    29    27    1
     9    29    30    1
    10    31    30    2
    11     2     1    2
    12     4     5    1
    13    27    28    1
    14    27    24    1
    15     1     7    1
    16     1     6    1
    17    10     7    1
    18     5     6    2
    19     5    24    1
    20     7     8   am
    21    24    26    2
    22    24    25    2
    23     8    11    1
    24     8     9    2
    25    11    12    1
    26    12    13    1
    27    13    14    1
    28    23    22    2
    29    23    20    1
    30    22    21    1
    31    14    20    1
    32    14    15    2
    33    20    17    2
    34    21    19    2
    35    15    16    1
    36    17    19    1
    37    17    16    1
    38    16    18    1
