@<TRIPOS>MOLECULE
40625_out_ligand_01.pdbqt
 36 40 0 0 0
SMALL
GASTEIGER

@<TRIPOS>ATOM
      1  C         18.4700  -22.0830  -10.2520 C.2     1  UNL1        0.0330
      2  C         18.5230  -21.2360  -11.3690 C.2     1  UNL1        0.0170
      3  C         19.7570  -20.8070  -11.8660 C.2     1  UNL1        0.0030
      4  C         20.9400  -21.2070  -11.2440 C.2     1  UNL1        0.0250
      5  C         20.8800  -22.0350  -10.1190 C.2     1  UNL1        0.0800
      6  C         19.6530  -22.4850   -9.6250 C.2     1  UNL1        0.0420
      7  C         17.1800  -22.5430   -9.6730 C.2     1  UNL1        0.2520
      8  N         17.2260  -23.0320   -8.3890 N.am    1  UNL1       -0.3490
      9  H         18.0690  -22.9230   -7.8400 H       1  UNL1        0.1630
     10  O         16.1510  -22.4460  -10.3320 O.2     1  UNL1       -0.2680
     11  C         16.0230  -23.4510   -7.6800 C.3     1  UNL1        0.1140
     12  C         15.7320  -24.9290   -7.9700 C.3     1  UNL1        0.0370
     13  C         16.1660  -23.0840   -6.2020 C.2     1  UNL1       -0.0250
     14  C         15.2220  -23.5410   -5.2620 C.2     1  UNL1        0.0100
     15  C         15.3410  -23.2310   -3.9110 C.2     1  UNL1        0.0020
     16  C         16.4150  -22.4690   -3.4660 C.2     1  UNL1        0.0120
     17  C         17.3890  -22.0110   -4.3610 C.2     1  UNL1       -0.0250
     18  C         18.4710  -21.2550   -3.8800 C.2     1  UNL1        0.0120
     19  C         17.2840  -22.3150   -5.7440 C.2     1  UNL1       -0.0180
     20  C         19.4650  -20.7940   -4.7380 C.2     1  UNL1        0.0010
     21  C         19.3900  -21.0850   -6.0930 C.2     1  UNL1        0.0010
     22  C         18.3180  -21.8330   -6.5870 C.2     1  UNL1        0.0130
     23  S         22.3740  -22.5330   -9.2950 S.O2    1  UNL1        0.2630
     24  O         22.5020  -23.9690   -9.4220 O.2     1  UNL1       -0.2000
     25  O         22.3810  -21.8900   -7.9990 O.2     1  UNL1       -0.2000
     26  N         23.5790  -21.7810  -10.2090 N.pl3   1  UNL1       -0.2810
     27  H         23.2700  -20.8840  -10.5790 H       1  UNL1        0.1790
     28  C         24.4440  -22.5750  -11.0150 C.2     1  UNL1        0.0450
     29  C         25.6450  -23.0420  -10.4470 C.2     1  UNL1        0.0330
     30  C         26.5440  -23.7980  -11.2070 C.2     1  UNL1        0.0420
     31  C         26.2070  -24.0660  -12.5150 C.2     1  UNL1        0.1050
     32  C         25.0300  -23.6140  -13.0670 C.2     1  UNL1        0.1070
     33  O         26.9530  -24.7800  -13.3980 O.2     1  UNL1       -0.3230
     34  C         24.1260  -22.8650  -12.3430 C.2     1  UNL1        0.0690
     35  O         24.8910  -23.9890  -14.3670 O.2     1  UNL1       -0.3230
     36  C         26.1080  -24.7370  -14.5670 C.3     1  UNL1        0.3520
@<TRIPOS>BOND
     1    36    35    1
     2    36    33    1
     3    35    32    1
     4    33    31    1
     5    32    31    2
     6    32    34    1
     7    31    30    1
     8    34    28    2
     9     3     2    1
    10     3     4    2
    11     2     1    2
    12     4     5    1
    13    30    29    2
    14    28    29    1
    15    28    26    1
    16    27    26    1
    17    10     7    2
    18     1     7    1
    19     1     6    1
    20    26    23    1
    21     5     6    2
    22     5    23    1
    23     7     8   am
    24    24    23    2
    25    23    25    2
    26     8     9    1
    27     8    11    1
    28    12    11    1
    29    11    13    1
    30    22    21    2
    31    22    19    1
    32    13    19    2
    33    13    14    1
    34    21    20    1
    35    19    17    1
    36    14    15    2
    37    20    18    2
    38    17    18    1
    39    17    16    2
    40    15    16    1
