@<TRIPOS>MOLECULE
40623_out_ligand_01.pdbqt
 33 36 0 0 0
SMALL
GASTEIGER

@<TRIPOS>ATOM
      1  C         18.2970  -22.5250   -5.9990 C.2     1  UNL1        0.0800
      2  C         18.2760  -21.3630   -5.2220 C.2     1  UNL1        0.0250
      3  C         19.3500  -20.4740   -5.2870 C.2     1  UNL1        0.0030
      4  C         20.4320  -20.7410   -6.1300 C.2     1  UNL1        0.0170
      5  C         20.4370  -21.8930   -6.9290 C.2     1  UNL1        0.0330
      6  C         19.3620  -22.7860   -6.8670 C.2     1  UNL1        0.0420
      7  C         21.5810  -22.2320   -7.8200 C.2     1  UNL1        0.2510
      8  O         22.6090  -21.5680   -7.7700 O.2     1  UNL1       -0.2680
      9  N         21.4120  -23.3150   -8.6530 N.am    1  UNL1       -0.3530
     10  H         20.6290  -23.9370   -8.5170 H       1  UNL1        0.1630
     11  C         22.4790  -23.7830   -9.5160 C.3     1  UNL1        0.1610
     12  C         22.5590  -22.9670  -10.7810 C.2     1  UNL1       -0.0380
     13  C         21.4380  -22.2600  -11.2480 C.2     1  UNL1        0.0120
     14  C         21.5070  -21.5170  -12.4300 C.2     1  UNL1        0.0400
     15  C         22.6950  -21.4790  -13.1580 C.2     1  UNL1        0.1020
     16  C         23.8070  -22.2030  -12.7190 C.2     1  UNL1        0.1020
     17  O         22.6950  -20.7240  -14.3040 O.2     1  UNL1       -0.3460
     18  C         23.7440  -22.9320  -11.5300 C.2     1  UNL1        0.0480
     19  O         24.9980  -22.2450  -13.4060 O.2     1  UNL1       -0.3460
     20  C         24.8400  -21.7750  -14.7510 C.3     1  UNL1        0.2020
     21  C         24.0280  -20.4900  -14.7770 C.3     1  UNL1        0.2020
     22  S         16.9310  -23.6640   -5.9120 S.O2    1  UNL1        0.2630
     23  O         15.7220  -22.8950   -5.7310 O.2     1  UNL1       -0.2000
     24  O         17.2990  -24.7050   -4.9780 O.2     1  UNL1       -0.2000
     25  N         16.9290  -24.3920   -7.4390 N.pl3   1  UNL1       -0.2810
     26  H         17.4140  -25.2860   -7.4360 H       1  UNL1        0.1790
     27  C         17.0590  -23.5720   -8.5930 C.2     1  UNL1        0.0420
     28  C         16.1320  -22.5650   -8.8580 C.2     1  UNL1        0.0300
     29  C         16.3240  -21.7080   -9.9430 C.2     1  UNL1        0.0090
     30  C         17.4380  -21.8580  -10.7770 C.2     1  UNL1       -0.0620
     31  C         17.6820  -20.8930  -11.9000 C.3     1  UNL1        0.0480
     32  C         18.3630  -22.8750  -10.5040 C.2     1  UNL1        0.0090
     33  C         18.1720  -23.7330   -9.4190 C.2     1  UNL1        0.0300
@<TRIPOS>BOND
     1    21    20    1
     2    21    17    1
     3    20    19    1
     4    17    15    1
     5    19    16    1
     6    15    16    2
     7    15    14    1
     8    16    18    1
     9    14    13    2
    10    31    30    1
    11    18    12    2
    12    13    12    1
    13    12    11    1
    14    30    32    2
    15    30    29    1
    16    32    33    1
    17    29    28    2
    18    11     9    1
    19    33    27    2
    20    28    27    1
    21     9    10    1
    22     9     7   am
    23    27    25    1
    24     7     8    2
    25     7     5    1
    26    25    26    1
    27    25    22    1
    28     5     6    1
    29     5     4    2
    30     6     1    2
    31     4     3    1
    32     1    22    1
    33     1     2    1
    34    22    23    2
    35    22    24    2
    36     3     2    2
