@<TRIPOS>MOLECULE
40631_out_ligand_01.pdbqt
 34 36 0 0 0
SMALL
GASTEIGER

@<TRIPOS>ATOM
      1  N         26.1600  -24.8450  -14.2180 N.1     1  UNL1       -0.1910
      2  C         25.6900  -24.1260  -13.4360 C.1     1  UNL1        0.0990
      3  C         25.1330  -23.2270  -12.4690 C.2     1  UNL1        0.0460
      4  C         25.9790  -22.4550  -11.6670 C.2     1  UNL1        0.0230
      5  C         25.4380  -21.5780  -10.7300 C.2     1  UNL1        0.0040
      6  C         24.0510  -21.4740  -10.5940 C.2     1  UNL1        0.0290
      7  C         23.1920  -22.2450  -11.3870 C.2     1  UNL1        0.0360
      8  C         23.7420  -23.1200  -12.3280 C.2     1  UNL1        0.0520
      9  N         21.8050  -22.0740  -11.1870 N.am    1  UNL1       -0.3230
     10  C         20.9840  -22.8090  -10.3520 C.2     1  UNL1        0.2560
     11  O         21.3210  -23.7030   -9.5860 O.2     1  UNL1       -0.2670
     12  H         21.3890  -21.2790  -11.6550 H       1  UNL1        0.1690
     13  C         19.5490  -22.4220  -10.3840 C.2     1  UNL1        0.0330
     14  C         19.0940  -21.3560  -11.1750 C.2     1  UNL1        0.0170
     15  C         17.7350  -21.0290  -11.1950 C.2     1  UNL1        0.0030
     16  C         16.8260  -21.7670  -10.4360 C.2     1  UNL1        0.0250
     17  C         17.2830  -22.8410   -9.6680 C.2     1  UNL1        0.0750
     18  C         18.6390  -23.1740   -9.6330 C.2     1  UNL1        0.0410
     19  S         16.1360  -23.8040   -8.7140 S.O2    1  UNL1        0.2450
     20  O         16.8870  -24.7320   -7.8950 O.2     1  UNL1       -0.2060
     21  O         15.1100  -24.2550   -9.6280 O.2     1  UNL1       -0.2060
     22  N         15.4210  -22.6280   -7.7210 N.pl3   1  UNL1       -0.1800
     23  H         14.4040  -22.7410   -7.7570 H       1  UNL1        0.1460
     24  C         15.9770  -22.4710   -6.4110 C.2     1  UNL1        0.0450
     25  C         17.1620  -21.7470   -6.2610 C.2     1  UNL1        0.0420
     26  C         17.7800  -21.6420   -5.0030 C.2     1  UNL1        0.0490
     27  C         17.1810  -22.2630   -3.8960 C.2     1  UNL1        0.0180
     28  C         15.9970  -22.9890   -4.0440 C.2     1  UNL1        0.0260
     29  C         15.3980  -23.0990   -5.3000 C.2     1  UNL1        0.0560
     30 CL         13.9310  -23.9970   -5.4450 Cl      1  UNL1       -0.0820
     31  C         19.0540  -20.8440   -4.8520 C.3     1  UNL1        0.4170
     32  F         18.8440  -19.5070   -4.9840 F       1  UNL1       -0.1660
     33  F         19.6540  -21.0140   -3.6420 F       1  UNL1       -0.1660
     34  F         19.9940  -21.1730   -5.7820 F       1  UNL1       -0.1660
@<TRIPOS>BOND
     1     1     2    3
     2     2     3    1
     3     3     8    2
     4     3     4    1
     5     8     7    1
     6     4     5    2
     7    12     9    1
     8     7     9    1
     9     7     6    2
    10    15    14    1
    11    15    16    2
    12     9    10   am
    13    14    13    2
    14     5     6    1
    15    16    17    1
    16    13    10    1
    17    13    18    1
    18    10    11    2
    19    17    18    2
    20    17    19    1
    21    21    19    2
    22    19    20    2
    23    19    22    1
    24    23    22    1
    25    22    24    1
    26    24    25    2
    27    24    29    1
    28    25    26    1
    29    34    31    1
    30    30    29    1
    31    29    28    2
    32    26    31    1
    33    26    27    2
    34    32    31    1
    35    31    33    1
    36    28    27    1
