@<TRIPOS>MOLECULE
40648_out_ligand_01.pdbqt
 33 36 0 0 0
SMALL
GASTEIGER

@<TRIPOS>ATOM
      1  C         19.4480  -22.6950   -9.7300 C.2     1  UNL1        0.0320
      2  C         20.2780  -23.3010   -8.7750 C.2     1  UNL1        0.0180
      3  C         21.6640  -23.3080   -8.9460 C.2     1  UNL1        0.0260
      4  C         22.2200  -22.7040  -10.0770 C.2     1  UNL1        0.0790
      5  C         21.4060  -22.0710  -11.0210 C.2     1  UNL1        0.0260
      6  C         20.0190  -22.0670  -10.8470 C.2     1  UNL1        0.0180
      7  C         17.9770  -22.7160   -9.4980 C.2     1  UNL1        0.2520
      8  N         17.5490  -23.3010   -8.3290 N.am    1  UNL1       -0.3490
      9  H         18.2180  -23.5590   -7.6160 H       1  UNL1        0.1630
     10  O         17.2200  -22.1980  -10.3110 O.2     1  UNL1       -0.2680
     11  C         16.1390  -23.3450   -7.9600 C.3     1  UNL1        0.1140
     12  C         15.4620  -24.5480   -8.6290 C.3     1  UNL1        0.0370
     13  C         16.0220  -23.2820   -6.4370 C.2     1  UNL1       -0.0250
     14  C         15.0110  -24.0030   -5.7730 C.2     1  UNL1        0.0100
     15  C         14.8960  -23.9730   -4.3870 C.2     1  UNL1        0.0020
     16  C         15.7980  -23.2330   -3.6310 C.2     1  UNL1        0.0120
     17  C         16.8330  -22.5190   -4.2470 C.2     1  UNL1       -0.0250
     18  C         17.7370  -21.7910   -3.4560 C.2     1  UNL1        0.0120
     19  C         16.9660  -22.5360   -5.6610 C.2     1  UNL1       -0.0180
     20  C         18.7850  -21.0780   -4.0340 C.2     1  UNL1        0.0010
     21  C         18.9420  -21.0860   -5.4110 C.2     1  UNL1        0.0010
     22  C         18.0470  -21.8040   -6.2110 C.2     1  UNL1        0.0130
     23  S         23.9840  -22.6910  -10.2780 S.O2    1  UNL1        0.2580
     24  O         24.5390  -23.6600   -9.3610 O.2     1  UNL1       -0.2010
     25  O         24.4450  -21.3220  -10.3150 O.2     1  UNL1       -0.2010
     26  N         24.1600  -23.3510  -11.8120 N.3     1  UNL1       -0.3130
     27  H         23.6530  -24.2310  -11.9060 H       1  UNL1        0.1720
     28  C         25.4600  -23.2150  -12.4820 C.3     1  UNL1        0.1640
     29  C         25.3620  -22.2610  -13.6740 C.3     1  UNL1        0.1400
     30  C         25.8610  -20.8530  -13.3860 C.3     1  UNL1        0.0350
     31  C         25.0800  -20.0400  -14.3870 C.3     1  UNL1        0.0290
     32  C         23.7370  -20.7370  -14.3790 C.3     1  UNL1        0.1680
     33  O         23.9860  -22.1190  -14.0780 O.3     1  UNL1       -0.3840
@<TRIPOS>BOND
     1    31    32    1
     2    31    30    1
     3    32    33    1
     4    33    29    1
     5    29    30    1
     6    29    28    1
     7    28    26    1
     8    27    26    1
     9    26    23    1
    10     5     6    1
    11     5     4    2
    12     6     1    2
    13    25    23    2
    14    10     7    2
    15    23     4    1
    16    23    24    2
    17     4     3    1
    18     1     7    1
    19     1     2    1
    20     7     8   am
    21     3     2    2
    22    12    11    1
    23     8    11    1
    24     8     9    1
    25    11    13    1
    26    13    14    2
    27    13    19    1
    28    22    19    1
    29    22    21    2
    30    14    15    1
    31    19    17    2
    32    21    20    1
    33    15    16    2
    34    17    16    1
    35    17    18    1
    36    20    18    2
