@<TRIPOS>MOLECULE
40657_out_ligand_01.pdbqt
 33 36 0 0 0
SMALL
GASTEIGER

@<TRIPOS>ATOM
      1  C         20.4060  -22.1840  -10.8820 C.2     1  UNL1        0.0360
      2  C         19.7590  -21.3410  -11.7910 C.2     1  UNL1        0.0290
      3  C         18.3880  -21.0800  -11.6740 C.2     1  UNL1        0.0040
      4  C         17.6460  -21.6670  -10.6510 C.2     1  UNL1        0.0250
      5  C         18.2860  -22.5230   -9.7530 C.2     1  UNL1        0.0770
      6  C         19.6610  -22.7700   -9.8530 C.2     1  UNL1        0.0540
      7  N         21.7850  -22.4830  -10.9250 N.am    1  UNL1       -0.3270
      8  C         22.7940  -21.9240  -10.1530 C.2     1  UNL1        0.2260
      9  O         22.6590  -21.0300   -9.3220 O.2     1  UNL1       -0.2730
     10  H         22.0630  -23.1750  -11.6080 H       1  UNL1        0.1690
     11  C         24.1660  -22.5210  -10.4440 C.3     1  UNL1        0.1440
     12  C         24.9530  -21.6620  -11.3710 C.2     1  UNL1       -0.0140
     13  C         24.8000  -21.5270  -12.7870 C.2     1  UNL1        0.0060
     14  C         23.9620  -22.0820  -13.7710 C.2     1  UNL1        0.0150
     15  C         25.7570  -20.6020  -13.1870 C.2     1  UNL1        0.0860
     16  C         24.1280  -21.6840  -15.1080 C.2     1  UNL1        0.0070
     17  C         25.1130  -20.7560  -15.4800 C.2     1  UNL1       -0.0590
     18  C         25.2470  -20.3360  -16.9180 C.3     1  UNL1        0.0480
     19  C         25.9430  -20.1820  -14.5030 C.2     1  UNL1        0.0440
     20  O         26.4750  -20.1690  -12.1160 O.2     1  UNL1       -0.3210
     21  C         25.9940  -20.8190  -11.0280 C.2     1  UNL1        0.1510
     22  S         17.3630  -23.2800   -8.4360 S.O2    1  UNL1        0.2460
     23  O         16.1070  -23.7320   -8.9990 O.2     1  UNL1       -0.2060
     24  O         18.2420  -24.1890   -7.7340 O.2     1  UNL1       -0.2060
     25  N         16.9830  -21.9750   -7.4270 N.pl3   1  UNL1       -0.1780
     26  H         17.6330  -21.2010   -7.5750 H       1  UNL1        0.1460
     27  C         16.6670  -22.2520   -6.0590 C.2     1  UNL1        0.0610
     28  C         15.3890  -22.6670   -5.6900 C.2     1  UNL1        0.0270
     29  C         15.1190  -22.9770   -4.3540 C.2     1  UNL1        0.0020
     30  C         16.1260  -22.8770   -3.3900 C.2     1  UNL1        0.0030
     31  C         17.4080  -22.4650   -3.7570 C.2     1  UNL1        0.0440
     32  C         17.6690  -22.1560   -5.0890 C.2     1  UNL1        0.1380
     33  F         18.9040  -21.7720   -5.4460 F       1  UNL1       -0.2040
@<TRIPOS>BOND
     1    18    17    1
     2    17    16    2
     3    17    19    1
     4    16    14    1
     5    19    15    2
     6    14    13    2
     7    15    13    1
     8    15    20    1
     9    13    12    1
    10    20    21    1
    11     2     3    1
    12     2     1    2
    13     3     4    2
    14    10     7    1
    15    12    21    2
    16    12    11    1
    17     7     1    1
    18     7     8   am
    19     1     6    1
    20     4     5    1
    21    11     8    1
    22     8     9    2
    23     6     5    2
    24     5    22    1
    25    23    22    2
    26    22    24    2
    27    22    25    1
    28    26    25    1
    29    25    27    1
    30    27    28    2
    31    27    32    1
    32    28    29    1
    33    33    32    1
    34    32    31    2
    35    29    30    2
    36    31    30    1
