@<TRIPOS>MOLECULE
40650_out_ligand_01.pdbqt
 34 38 0 0 0
SMALL
GASTEIGER

@<TRIPOS>ATOM
      1  C         21.5830  -23.3180   -8.8930 C.2     1  UNL1        0.0320
      2  C         20.8090  -24.4860   -8.9150 C.2     1  UNL1        0.0180
      3  C         19.6430  -24.5710   -8.1510 C.2     1  UNL1        0.0260
      4  C         19.2490  -23.4750   -7.3780 C.2     1  UNL1        0.0790
      5  C         20.0070  -22.3000   -7.3570 C.2     1  UNL1        0.0260
      6  C         21.1740  -22.2210   -8.1210 C.2     1  UNL1        0.0180
      7  C         22.8120  -23.2670   -9.7340 C.2     1  UNL1        0.2560
      8  O         23.8680  -23.6270   -9.2290 O.2     1  UNL1       -0.2670
      9  N         22.6200  -22.7800  -11.0130 N.am    1  UNL1       -0.3230
     10  H         21.7040  -22.4100  -11.2310 H       1  UNL1        0.1690
     11  C         23.5840  -22.6540  -12.0360 C.2     1  UNL1        0.0370
     12  C         24.8510  -23.2700  -11.9980 C.2     1  UNL1        0.0320
     13  C         25.7650  -23.1100  -13.0490 C.2     1  UNL1        0.0420
     14  C         25.3850  -22.3350  -14.1190 C.2     1  UNL1        0.1060
     15  C         24.1510  -21.7340  -14.1670 C.2     1  UNL1        0.1080
     16  O         26.1340  -22.0690  -15.2210 O.2     1  UNL1       -0.3110
     17  C         23.2320  -21.8720  -13.1470 C.2     1  UNL1        0.0690
     18  O         23.9680  -21.0160  -15.3080 O.2     1  UNL1       -0.3110
     19  C         25.2270  -21.2300  -15.9730 C.3     1  UNL1        0.1760
     20  C         25.9040  -19.8980  -16.2930 C.3     1  UNL1        0.0690
     21  C         25.0100  -21.8260  -17.3630 C.3     1  UNL1        0.0690
     22  C         26.8500  -20.2210  -17.4450 C.3     1  UNL1        0.0060
     23  C         26.2790  -21.4640  -18.1310 C.3     1  UNL1        0.0060
     24  S         17.7520  -23.5840   -6.4270 S.O2    1  UNL1        0.2590
     25  O         17.3650  -24.9760   -6.4020 O.2     1  UNL1       -0.2010
     26  O         17.9150  -22.8090   -5.2170 O.2     1  UNL1       -0.2010
     27  N         16.6640  -22.7910   -7.4080 N.3     1  UNL1       -0.3090
     28  H         16.7690  -21.7770   -7.4210 H       1  UNL1        0.1720
     29  C         16.2650  -23.4360   -8.6530 C.3     1  UNL1        0.1970
     30  C         16.8880  -22.6740   -9.7650 C.2     1  UNL1        0.0700
     31  C         17.9060  -22.9550  -10.6540 C.2     1  UNL1        0.0360
     32  C         18.0250  -21.8210  -11.4930 C.2     1  UNL1        0.0270
     33  C         17.0750  -20.9240  -11.0660 C.2     1  UNL1        0.1420
     34  O         16.3760  -21.4350  -10.0190 O.2     1  UNL1       -0.3250
@<TRIPOS>BOND
     1    23    22    1
     2    23    21    1
     3    22    20    1
     4    21    19    1
     5    20    19    1
     6    19    18    1
     7    19    16    1
     8    18    15    1
     9    16    14    1
    10    15    14    2
    11    15    17    1
    12    14    13    1
    13    17    11    2
    14    13    12    2
    15    11    12    1
    16    11     9    1
    17    32    33    2
    18    32    31    1
    19    10     9    1
    20    33    34    1
    21     9     7   am
    22    31    30    2
    23    34    30    1
    24    30    29    1
    25     7     8    2
    26     7     1    1
    27     2     1    2
    28     2     3    1
    29     1     6    1
    30    29    27    1
    31     3     4    2
    32     6     5    2
    33    28    27    1
    34    27    24    1
    35     4     5    1
    36     4    24    1
    37    24    25    2
    38    24    26    2
