@<TRIPOS>MOLECULE
40655_out_ligand_01.pdbqt
 34 38 0 0 0
SMALL
GASTEIGER

@<TRIPOS>ATOM
      1  C         20.7730  -22.5480   -7.8260 C.2     1  UNL1        0.0330
      2  C         21.0210  -21.4250   -7.0220 C.2     1  UNL1        0.0170
      3  C         20.0960  -21.0390   -6.0470 C.2     1  UNL1        0.0030
      4  C         18.9230  -21.7720   -5.8690 C.2     1  UNL1        0.0250
      5  C         18.6820  -22.8960   -6.6670 C.2     1  UNL1        0.0800
      6  C         19.6090  -23.3020   -7.6310 C.2     1  UNL1        0.0420
      7  C         21.7320  -22.9820   -8.8820 C.2     1  UNL1        0.2560
      8  O         22.0050  -24.1730   -8.9580 O.2     1  UNL1       -0.2670
      9  N         22.1810  -21.9710   -9.7110 N.am    1  UNL1       -0.3230
     10  H         21.7550  -21.0590   -9.6000 H       1  UNL1        0.1690
     11  C         23.1070  -22.0790  -10.7710 C.2     1  UNL1        0.0370
     12  C         24.4560  -22.4440  -10.5980 C.2     1  UNL1        0.0320
     13  C         25.3290  -22.5280  -11.6920 C.2     1  UNL1        0.0420
     14  C         24.8250  -22.2400  -12.9400 C.2     1  UNL1        0.1060
     15  C         23.5120  -21.8820  -13.1170 C.2     1  UNL1        0.1080
     16  O         25.5180  -22.2670  -14.1080 O.2     1  UNL1       -0.3110
     17  C         22.6310  -21.7890  -12.0580 C.2     1  UNL1        0.0690
     18  O         23.2110  -21.6400  -14.4210 O.2     1  UNL1       -0.3110
     19  C         24.4870  -21.8780  -15.0460 C.3     1  UNL1        0.1760
     20  C         24.3640  -22.9350  -16.1420 C.3     1  UNL1        0.0690
     21  C         24.9410  -20.6450  -15.8280 C.3     1  UNL1        0.0690
     22  C         25.5720  -22.6780  -17.0370 C.3     1  UNL1        0.0060
     23  C         25.8880  -21.1880  -16.8970 C.3     1  UNL1        0.0060
     24  S         17.1950  -23.8370   -6.4110 S.O2    1  UNL1        0.2580
     25  O         17.5540  -25.2350   -6.3350 O.2     1  UNL1       -0.2010
     26  O         16.4420  -23.1810   -5.3660 O.2     1  UNL1       -0.2010
     27  N         16.3610  -23.5900   -7.8400 N.3     1  UNL1       -0.3130
     28  H         15.4380  -24.0280   -7.8750 H       1  UNL1        0.1720
     29  C         16.4810  -22.2980   -8.5340 C.3     1  UNL1        0.1640
     30  C         16.5820  -22.5610  -10.0460 C.3     1  UNL1        0.1400
     31  C         17.9480  -23.0830  -10.4660 C.3     1  UNL1        0.0350
     32  C         18.6910  -21.8230  -10.8350 C.3     1  UNL1        0.0290
     33  C         17.5940  -20.9820  -11.4470 C.3     1  UNL1        0.1680
     34  O         16.3900  -21.3020  -10.7370 O.3     1  UNL1       -0.3840
@<TRIPOS>BOND
     1    22    23    1
     2    22    20    1
     3    23    21    1
     4    20    19    1
     5    21    19    1
     6    19    18    1
     7    19    16    1
     8    18    15    1
     9    16    14    1
    10    15    14    2
    11    15    17    1
    12    14    13    1
    13    17    11    2
    14    13    12    2
    15    33    32    1
    16    33    34    1
    17    32    31    1
    18    11    12    1
    19    11     9    1
    20    34    30    1
    21    31    30    1
    22    30    29    1
    23     9    10    1
    24     9     7   am
    25     8     7    2
    26     7     1    1
    27    29    27    1
    28    28    27    1
    29    27    24    1
    30     1     6    2
    31     1     2    1
    32     6     5    1
    33     2     3    2
    34     5    24    1
    35     5     4    2
    36    24    25    2
    37    24    26    2
    38     3     4    1
