@<TRIPOS>MOLECULE
40668_out_ligand_01.pdbqt
 36 39 0 0 0
SMALL
GASTEIGER

@<TRIPOS>ATOM
      1  C         16.6040  -21.0180  -10.8930 C.3     1  UNL1        0.0500
      2  C         18.0310  -21.4800  -10.8520 C.2     1  UNL1       -0.0390
      3  C         18.9220  -20.9450  -11.7970 C.2     1  UNL1        0.0100
      4  C         20.2740  -21.3110  -11.8170 C.2     1  UNL1        0.0300
      5  C         20.7790  -22.2070  -10.8800 C.2     1  UNL1        0.0360
      6  C         19.9100  -22.7320   -9.9190 C.2     1  UNL1        0.0550
      7  C         18.5400  -22.4060   -9.9240 C.2     1  UNL1        0.0870
      8  N         22.1230  -22.6320  -10.8380 N.am    1  UNL1       -0.3270
      9  C         23.1510  -22.0780  -10.0940 C.2     1  UNL1        0.2270
     10  O         23.0690  -21.1210   -9.3260 O.2     1  UNL1       -0.2730
     11  H         22.3670  -23.3980  -11.4590 H       1  UNL1        0.1690
     12  C         24.4780  -22.7670  -10.3110 C.3     1  UNL1        0.1650
     13  C         24.9610  -22.6440  -11.7380 C.ar    1  UNL1        0.0740
     14  N         24.6740  -23.6310  -12.5360 N.ar    1  UNL1       -0.1750
     15  N         25.0700  -23.5420  -13.8340 N.ar    1  UNL1       -0.2430
     16  C         25.7380  -22.4890  -14.4110 C.ar    1  UNL1        0.2720
     17  H         24.8250  -24.3210  -14.4400 H       1  UNL1        0.1920
     18  O         26.0320  -22.4720  -15.6030 O.2     1  UNL1       -0.2660
     19  C         26.0850  -21.3730  -13.5160 C.ar    1  UNL1        0.0460
     20  C         26.7810  -20.2630  -14.0130 C.2     1  UNL1        0.0180
     21  C         25.7170  -21.4410  -12.1730 C.ar    1  UNL1        0.0060
     22  C         27.1210  -19.2170  -13.1550 C.2     1  UNL1        0.0010
     23  C         26.7680  -19.2860  -11.8080 C.2     1  UNL1        0.0010
     24  C         26.0670  -20.3930  -11.3140 C.2     1  UNL1        0.0140
     25  S         17.5360  -23.2470   -8.7030 S.O2    1  UNL1        0.2630
     26  O         18.3520  -24.1310   -7.9010 O.2     1  UNL1       -0.2000
     27  O         16.3630  -23.7430   -9.3910 O.2     1  UNL1       -0.2000
     28  N         16.9910  -21.9890   -7.7130 N.pl3   1  UNL1       -0.2790
     29  H         17.4650  -21.1140   -7.9340 H       1  UNL1        0.1790
     30  C         16.7070  -22.2340   -6.3320 C.2     1  UNL1        0.0640
     31  C         15.4470  -22.6870   -5.9370 C.2     1  UNL1        0.0320
     32  C         15.1810  -22.9430   -4.5890 C.2     1  UNL1        0.0020
     33  C         16.1720  -22.7370   -3.6280 C.2     1  UNL1        0.0020
     34  C         17.4280  -22.2680   -4.0090 C.2     1  UNL1        0.0260
     35  C         17.6930  -22.0130   -5.3560 C.2     1  UNL1        0.0610
     36 CL         19.2610  -21.4240   -5.7880 Cl      1  UNL1       -0.0820
@<TRIPOS>BOND
     1    18    16    2
     2    17    15    1
     3    16    15   ar
     4    16    19   ar
     5    20    19    2
     6    20    22    1
     7    15    14   ar
     8    19    21   ar
     9    22    23    2
    10    14    13   ar
    11    21    13   ar
    12    21    24    2
    13     4     3    1
    14     4     5    2
    15    23    24    1
    16     3     2    2
    17    13    12    1
    18    11     8    1
    19     1     2    1
    20     5     8    1
    21     5     6    1
    22     2     7    1
    23     8     9   am
    24    12     9    1
    25     9    10    2
    26     7     6    2
    27     7    25    1
    28    27    25    2
    29    25    26    2
    30    25    28    1
    31    29    28    1
    32    28    30    1
    33    30    31    2
    34    30    35    1
    35    31    32    1
    36    36    35    1
    37    35    34    2
    38    32    33    2
    39    34    33    1
