@<TRIPOS>MOLECULE
40673_out_ligand_01.pdbqt
 37 42 0 0 0
SMALL
GASTEIGER

@<TRIPOS>ATOM
      1  C         24.7110  -22.6810  -11.3950 C.2     1  UNL1        0.0330
      2  C         25.9390  -22.5250  -10.7350 C.2     1  UNL1        0.0170
      3  C         27.1190  -22.9620  -11.3420 C.2     1  UNL1        0.0030
      4  C         27.0830  -23.5400  -12.6110 C.2     1  UNL1        0.0250
      5  C         25.8590  -23.6700  -13.2730 C.2     1  UNL1        0.0800
      6  C         24.6690  -23.2550  -12.6700 C.2     1  UNL1        0.0420
      7  C         23.4360  -22.2010  -10.7960 C.2     1  UNL1        0.2560
      8  O         23.5070  -21.3850   -9.8860 O.2     1  UNL1       -0.2670
      9  N         22.2920  -22.7200  -11.3710 N.am    1  UNL1       -0.3230
     10  H         22.4080  -23.2760  -12.2070 H       1  UNL1        0.1690
     11  C         20.9570  -22.4870  -10.9730 C.2     1  UNL1        0.0370
     12  C         20.2430  -21.4960  -11.6840 C.2     1  UNL1        0.0320
     13  C         18.9110  -21.1980  -11.3750 C.2     1  UNL1        0.0420
     14  C         18.3200  -21.9080  -10.3570 C.2     1  UNL1        0.1060
     15  C         19.0050  -22.8750   -9.6620 C.2     1  UNL1        0.1080
     16  O         17.0400  -21.7600   -9.9220 O.2     1  UNL1       -0.3110
     17  C         20.3200  -23.1880   -9.9440 C.2     1  UNL1        0.0690
     18  O         18.2380  -23.4580   -8.7000 O.2     1  UNL1       -0.3110
     19  C         16.9920  -22.7430   -8.8710 C.3     1  UNL1        0.1760
     20  C         16.5800  -22.1010   -7.5480 C.3     1  UNL1        0.0690
     21  C         15.8590  -23.7390   -9.1150 C.3     1  UNL1        0.0690
     22  C         16.0050  -23.2530   -6.7270 C.3     1  UNL1        0.0060
     23  C         15.5630  -24.3160   -7.7350 C.3     1  UNL1        0.0060
     24  S         25.7960  -24.3740  -14.9050 S.O2    1  UNL1        0.2630
     25  O         27.1040  -24.2250  -15.5080 O.2     1  UNL1       -0.2000
     26  O         25.1700  -25.6730  -14.7840 O.2     1  UNL1       -0.2000
     27  N         24.6920  -23.3760  -15.7060 N.pl3   1  UNL1       -0.2810
     28  H         23.7720  -23.4000  -15.2660 H       1  UNL1        0.1790
     29  C         25.1400  -22.1350  -16.2420 C.2     1  UNL1        0.0450
     30  C         25.4120  -22.0050  -17.6160 C.2     1  UNL1        0.0330
     31  C         25.8860  -20.7970  -18.1350 C.2     1  UNL1        0.0420
     32  C         26.0730  -19.7530  -17.2560 C.2     1  UNL1        0.1050
     33  C         25.8030  -19.8810  -15.9130 C.2     1  UNL1        0.1070
     34  O         26.5290  -18.5140  -17.5780 O.2     1  UNL1       -0.3230
     35  C         25.3330  -21.0580  -15.3720 C.2     1  UNL1        0.0690
     36  O         26.0570  -18.7360  -15.2230 O.2     1  UNL1       -0.3230
     37  C         26.5110  -17.8710  -16.2860 C.3     1  UNL1        0.3520
@<TRIPOS>BOND
     1    31    30    1
     2    31    32    2
     3    30    29    2
     4    34    32    1
     5    34    37    1
     6    32    33    1
     7    37    36    1
     8    29    27    1
     9    29    35    1
    10    33    35    2
    11    33    36    1
    12    27    28    1
    13    27    24    1
    14    25    24    2
    15    24    26    2
    16    24     5    1
    17     5     6    1
    18     5     4    2
    19     6     1    2
    20     4     3    1
    21    10     9    1
    22    12    13    1
    23    12    11    2
    24     1     7    1
    25     1     2    1
    26    13    14    2
    27     9    11    1
    28     9     7   am
    29     3     2    2
    30    11    17    1
    31     7     8    2
    32    14    16    1
    33    14    15    1
    34    17    15    2
    35    16    19    1
    36    15    18    1
    37    21    19    1
    38    21    23    1
    39    19    18    1
    40    19    20    1
    41    23    22    1
    42    20    22    1
