@<TRIPOS>MOLECULE
40678_out_ligand_01.pdbqt
 36 40 0 0 0
SMALL
GASTEIGER

@<TRIPOS>ATOM
      1  C         17.2920  -22.5850   -9.4560 C.2     1  UNL1        0.0750
      2  C         16.5620  -21.7550  -10.3120 C.2     1  UNL1        0.0250
      3  C         17.2120  -21.0990  -11.3560 C.2     1  UNL1        0.0030
      4  C         18.5890  -21.2630  -11.5380 C.2     1  UNL1        0.0170
      5  C         19.3250  -22.0770  -10.6630 C.2     1  UNL1        0.0350
      6  C         18.6710  -22.7460   -9.6200 C.2     1  UNL1        0.0410
      7  C         20.7890  -22.2940  -10.8190 C.2     1  UNL1        0.2700
      8  O         21.3510  -23.2130  -10.2250 O.2     1  UNL1       -0.2660
      9  N         21.4700  -21.4210  -11.6430 N.am    1  UNL1       -0.2630
     10  H         21.0190  -20.7360  -12.2440 H       1  UNL1        0.1900
     11  N         22.7790  -21.7710  -12.0110 N.am    1  UNL1       -0.2670
     12  C         23.1370  -21.5230  -13.3240 C.2     1  UNL1        0.2440
     13  O         22.4340  -20.8250  -14.0550 O.2     1  UNL1       -0.2710
     14  H         23.1640  -22.5660  -11.5000 H       1  UNL1        0.1900
     15  C         24.4440  -22.1820  -13.7850 C.3     1  UNL1        0.0430
     16  C         24.4270  -22.4320  -15.3120 C.3     1  UNL1        0.0240
     17  C         25.7350  -23.1060  -15.7620 C.3     1  UNL1       -0.0130
     18  C         26.9210  -22.1940  -15.4050 C.3     1  UNL1        0.0090
     19  C         25.8910  -24.4510  -15.0340 C.3     1  UNL1        0.0090
     20  C         26.9690  -21.9590  -13.8850 C.3     1  UNL1       -0.0130
     21  C         27.1200  -23.3100  -13.1690 C.3     1  UNL1        0.0090
     22  C         25.6590  -21.2880  -13.4350 C.3     1  UNL1        0.0240
     23  C         25.9330  -24.2240  -13.5140 C.3     1  UNL1       -0.0130
     24  C         24.6280  -23.5450  -13.0680 C.3     1  UNL1        0.0240
     25  S         16.4500  -23.4170   -8.1300 S.O2    1  UNL1        0.2450
     26  O         15.7730  -24.5580   -8.7060 O.2     1  UNL1       -0.2060
     27  O         15.7500  -22.4190   -7.3500 O.2     1  UNL1       -0.2060
     28  N         17.7880  -23.9220   -7.2010 N.pl3   1  UNL1       -0.1810
     29  H         18.6050  -23.8840   -7.8140 H       1  UNL1        0.1460
     30  C         18.0120  -23.1310   -6.0250 C.2     1  UNL1        0.0230
     31  C         17.5270  -23.5780   -4.7970 C.2     1  UNL1        0.0240
     32  C         17.7080  -22.7990   -3.6550 C.2     1  UNL1        0.0020
     33  C         18.3650  -21.5690   -3.7450 C.2     1  UNL1        0.0070
     34  C         18.8400  -21.1050   -4.9790 C.2     1  UNL1       -0.0600
     35  C         19.5230  -19.7710   -5.0650 C.3     1  UNL1        0.0480
     36  C         18.6490  -21.8910   -6.1240 C.2     1  UNL1        0.0310
@<TRIPOS>BOND
     1    17    18    1
     2    17    16    1
     3    17    19    1
     4    18    20    1
     5    16    15    1
     6    19    23    1
     7    13    12    2
     8    20    22    1
     9    20    21    1
    10    15    22    1
    11    15    12    1
    12    15    24    1
    13    23    21    1
    14    23    24    1
    15    12    11   am
    16    10     9    1
    17    11     9    1
    18    11    14    1
    19     9     7   am
    20     4     3    2
    21     4     5    1
    22     3     2    1
    23     7     5    1
    24     7     8    2
    25     5     6    2
    26     2     1    2
    27     6     1    1
    28     1    25    1
    29    26    25    2
    30    25    27    2
    31    25    28    1
    32    29    28    1
    33    28    30    1
    34    36    30    2
    35    36    34    1
    36    30    31    1
    37    35    34    1
    38    34    33    2
    39    31    32    2
    40    33    32    1
