@<TRIPOS>MOLECULE
40700_out_ligand_01.pdbqt
 31 33 0 0 0
SMALL
GASTEIGER

@<TRIPOS>ATOM
      1  C         23.9930  -22.5790  -11.8270 C.2     1  UNL1        0.0360
      2  C         24.7870  -21.5570  -11.2900 C.2     1  UNL1        0.0290
      3  C         26.0930  -21.3520  -11.7440 C.2     1  UNL1        0.0040
      4  C         26.6160  -22.1690  -12.7430 C.2     1  UNL1        0.0230
      5  C         25.8320  -23.1900  -13.2910 C.2     1  UNL1        0.0460
      6  C         26.3710  -24.0280  -14.3220 C.1     1  UNL1        0.0990
      7  N         26.8250  -24.6940  -15.1560 N.1     1  UNL1       -0.1910
      8  C         24.5220  -23.3910  -12.8320 C.2     1  UNL1        0.0520
      9  N         22.6840  -22.7110  -11.3130 N.am    1  UNL1       -0.3230
     10  C         21.5710  -21.9660  -11.6580 C.2     1  UNL1        0.2560
     11  O         21.5100  -21.1010  -12.5240 O.2     1  UNL1       -0.2670
     12  H         22.5410  -23.4820  -10.6750 H       1  UNL1        0.1690
     13  C         20.3240  -22.3060  -10.9110 C.2     1  UNL1        0.0320
     14  C         19.0760  -21.7770  -11.2730 C.2     1  UNL1        0.0180
     15  C         17.9330  -22.1240  -10.5470 C.2     1  UNL1        0.0260
     16  C         18.0410  -23.0010   -9.4630 C.2     1  UNL1        0.0790
     17  C         19.2750  -23.5590   -9.1170 C.2     1  UNL1        0.0260
     18  C         20.4150  -23.2090   -9.8420 C.2     1  UNL1        0.0180
     19  S         16.5800  -23.4630   -8.5610 S.O2    1  UNL1        0.2630
     20  O         16.9040  -24.5720   -7.6910 O.2     1  UNL1       -0.2000
     21  O         15.5000  -23.5610   -9.5210 O.2     1  UNL1       -0.2000
     22  N         16.2590  -22.0800   -7.6470 N.pl3   1  UNL1       -0.2800
     23  H         15.5320  -21.5110   -8.0770 H       1  UNL1        0.1790
     24  C         16.2520  -22.1940   -6.2270 C.2     1  UNL1        0.0490
     25  C         15.0300  -22.4870   -5.6170 C.2     1  UNL1        0.0310
     26  C         14.9410  -22.5770   -4.2320 C.2     1  UNL1        0.0030
     27  C         16.0740  -22.3640   -3.4520 C.2     1  UNL1        0.0070
     28  C         17.3100  -22.0610   -4.0460 C.2     1  UNL1       -0.0540
     29  C         18.5010  -21.8280   -3.1540 C.3     1  UNL1        0.0490
     30  C         17.4130  -21.9920   -5.4560 C.2     1  UNL1       -0.0290
     31  C         18.7350  -21.6470   -6.0940 C.3     1  UNL1        0.0510
@<TRIPOS>BOND
     1     7     6    3
     2     6     5    1
     3     5     8    1
     4     5     4    2
     5     8     1    2
     6     4     3    1
     7    11    10    2
     8     1     9    1
     9     1     2    1
    10     3     2    2
    11    10     9   am
    12    10    13    1
    13     9    12    1
    14    14    13    2
    15    14    15    1
    16    13    18    1
    17    15    16    2
    18    18    17    2
    19    21    19    2
    20    16    17    1
    21    16    19    1
    22    19    20    2
    23    19    22    1
    24    23    22    1
    25    22    24    1
    26    24    25    2
    27    24    30    1
    28    31    30    1
    29    25    26    1
    30    30    28    2
    31    26    27    2
    32    28    27    1
    33    28    29    1
