@<TRIPOS>MOLECULE
40712_out_ligand_01.pdbqt
 32 35 0 0 0
SMALL
GASTEIGER

@<TRIPOS>ATOM
      1  C         17.5500  -22.6560   -9.5690 C.2     1  UNL1        0.0820
      2  C         16.7080  -21.7620  -10.2310 C.2     1  UNL1        0.0250
      3  C         17.2320  -20.9590  -11.2390 C.2     1  UNL1        0.0040
      4  C         18.5890  -21.0400  -11.5720 C.2     1  UNL1        0.0290
      5  C         19.4400  -21.9210  -10.8960 C.2     1  UNL1        0.0360
      6  C         18.9130  -22.7240   -9.8800 C.2     1  UNL1        0.0540
      7  S         16.9000  -23.6930   -8.2800 S.O2    1  UNL1        0.2630
      8  O         18.0070  -24.3970   -7.6680 O.2     1  UNL1       -0.2000
      9  O         15.7710  -24.4120   -8.8330 O.2     1  UNL1       -0.2000
     10  N         16.2550  -22.5870   -7.1750 N.pl3   1  UNL1       -0.2790
     11  H         15.7740  -21.8250   -7.6540 H       1  UNL1        0.1790
     12  C         17.0330  -22.2150   -6.0330 C.2     1  UNL1        0.0600
     13  C         16.6540  -22.6130   -4.7440 C.2     1  UNL1        0.0380
     14  C         17.3930  -22.2010   -3.6350 C.2     1  UNL1        0.0220
     15 BR         15.1330  -23.7120   -4.4550 Br      1  UNL1       -0.0490
     16  C         18.5200  -21.3940   -3.8090 C.2     1  UNL1        0.0080
     17  C         18.9250  -21.0100   -5.0920 C.2     1  UNL1       -0.0600
     18  C         20.1200  -20.1200   -5.2790 C.3     1  UNL1        0.0480
     19  C         18.1690  -21.4160   -6.2000 C.2     1  UNL1        0.0380
     20  N         20.8200  -22.0450  -11.1650 N.am    1  UNL1       -0.3230
     21  C         21.8490  -22.1070  -10.2420 C.2     1  UNL1        0.2560
     22  O         21.7550  -21.9860   -9.0270 O.2     1  UNL1       -0.2670
     23  H         21.0800  -22.0180  -12.1420 H       1  UNL1        0.1690
     24  C         23.2080  -22.2940  -10.8280 C.2     1  UNL1        0.0350
     25  C         24.2540  -21.4640  -10.3660 C.2     1  UNL1        0.0200
     26  C         25.5490  -21.5950  -10.8770 C.2     1  UNL1        0.0410
     27  C         25.7630  -22.5660  -11.8310 C.2     1  UNL1        0.1050
     28  C         24.7490  -23.3870  -12.2710 C.2     1  UNL1        0.1060
     29  O         26.9500  -22.8390  -12.4340 O.2     1  UNL1       -0.3230
     30  C         23.4610  -23.2840  -11.7890 C.2     1  UNL1        0.0560
     31  O         25.1750  -24.2810  -13.2020 O.2     1  UNL1       -0.3230
     32  C         26.5730  -23.9350  -13.2950 C.3     1  UNL1        0.3520
@<TRIPOS>BOND
     1    32    31    1
     2    32    29    1
     3    31    28    1
     4    29    27    1
     5    28    27    2
     6    28    30    1
     7    23    20    1
     8    27    26    1
     9    30    24    2
    10     4     3    2
    11     4     5    1
    12     3     2    1
    13    20     5    1
    14    20    21   am
    15     5     6    2
    16    26    25    2
    17    24    25    1
    18    24    21    1
    19    21    22    2
    20     2     1    2
    21     6     1    1
    22     1     7    1
    23     9     7    2
    24     7     8    2
    25     7    10    1
    26    11    10    1
    27    10    12    1
    28    19    12    2
    29    19    17    1
    30    12    13    1
    31    18    17    1
    32    17    16    2
    33    13    15    1
    34    13    14    2
    35    16    14    1
