@<TRIPOS>MOLECULE
40722_out_ligand_01.pdbqt
 33 35 0 0 0
SMALL
GASTEIGER

@<TRIPOS>ATOM
      1  C         22.1710  -23.2910   -8.6550 C.2     1  UNL1        0.0320
      2  C         21.5720  -22.2270   -7.9660 C.2     1  UNL1        0.0180
      3  C         20.2490  -22.3330   -7.5290 C.2     1  UNL1        0.0260
      4  C         19.5270  -23.5030   -7.7850 C.2     1  UNL1        0.0740
      5  C         20.1040  -24.5590   -8.4960 C.2     1  UNL1        0.0260
      6  C         21.4260  -24.4490   -8.9300 C.2     1  UNL1        0.0180
      7  S         17.8390  -23.6130   -7.2360 S.O2    1  UNL1        0.2450
      8  O         17.4400  -22.3120   -6.7440 O.2     1  UNL1       -0.2060
      9  O         17.7240  -24.8120   -6.4350 O.2     1  UNL1       -0.2060
     10  N         17.0460  -23.8280   -8.7330 N.pl3   1  UNL1       -0.1810
     11  H         17.3120  -24.7510   -9.0800 H       1  UNL1        0.1460
     12  C         17.3570  -22.8140   -9.6990 C.2     1  UNL1        0.0230
     13  C         16.3780  -21.8890  -10.0580 C.2     1  UNL1        0.0240
     14  C         16.6820  -20.8690  -10.9570 C.2     1  UNL1        0.0030
     15  C         17.9680  -20.7670  -11.4890 C.2     1  UNL1        0.0160
     16  C         18.9650  -21.6860  -11.1250 C.2     1  UNL1        0.0490
     17  C         18.6510  -22.7050  -10.2100 C.2     1  UNL1        0.0400
     18  C         20.3660  -21.5550  -11.6700 C.3     1  UNL1        0.4170
     19  F         20.3990  -21.0500  -12.9340 F       1  UNL1       -0.1660
     20  F         21.1440  -20.7330  -10.9150 F       1  UNL1       -0.1660
     21  F         21.0250  -22.7460  -11.7310 F       1  UNL1       -0.1660
     22  C         23.5750  -23.2250   -9.1490 C.2     1  UNL1        0.2510
     23  O         24.3730  -24.1020   -8.8370 O.2     1  UNL1       -0.2680
     24  N         23.9010  -22.1380   -9.9270 N.am    1  UNL1       -0.3530
     25  H         23.2210  -21.4170  -10.1160 H       1  UNL1        0.1630
     26  C         25.2040  -21.9950  -10.5350 C.3     1  UNL1        0.1610
     27  C         25.0630  -21.5700  -11.9750 C.2     1  UNL1       -0.0400
     28  C         23.9140  -21.9250  -12.7020 C.2     1  UNL1        0.0120
     29  C         23.7620  -21.5200  -14.0280 C.2     1  UNL1        0.0430
     30  C         24.7570  -20.7570  -14.6270 C.2     1  UNL1        0.1160
     31  F         24.6120  -20.3670  -15.9000 F       1  UNL1       -0.2060
     32  C         25.8990  -20.3900  -13.9260 C.2     1  UNL1        0.0430
     33  C         26.0520  -20.7930  -12.5980 C.2     1  UNL1        0.0120
@<TRIPOS>BOND
     1    31    30    1
     2    30    29    2
     3    30    32    1
     4    29    28    1
     5    32    33    2
     6    19    18    1
     7    28    27    2
     8    33    27    1
     9    27    26    1
    10    21    18    1
    11    18    16    1
    12    18    20    1
    13    15    16    2
    14    15    14    1
    15    16    17    1
    16    14    13    2
    17    26    24    1
    18    17    12    2
    19    25    24    1
    20    13    12    1
    21    24    22   am
    22    12    10    1
    23    22    23    2
    24    22     1    1
    25    11    10    1
    26     6     1    2
    27     6     5    1
    28    10     7    1
    29     1     2    1
    30     5     4    2
    31     2     3    2
    32     4     3    1
    33     4     7    1
    34     7     8    2
    35     7     9    2
