@<TRIPOS>MOLECULE
40723_out_ligand_01.pdbqt
 31 33 0 0 0
SMALL
GASTEIGER

@<TRIPOS>ATOM
      1  C         18.1800  -22.4340   -9.7190 C.2     1  UNL1        0.1140
      2  C         19.4840  -22.9420   -9.6790 C.2     1  UNL1        0.0450
      3  C         20.4210  -22.5170  -10.6310 C.2     1  UNL1        0.0330
      4  C         20.0380  -21.6110  -11.6320 C.2     1  UNL1        0.0200
      5  C         18.7320  -21.1150  -11.6620 C.2     1  UNL1        0.0450
      6  C         17.8070  -21.5270  -10.7030 C.2     1  UNL1        0.1390
      7  F         16.5680  -21.0230  -10.7580 F       1  UNL1       -0.2040
      8  S         16.9790  -22.9500   -8.5370 S.O2    1  UNL1        0.2490
      9  O         16.3230  -21.7610   -8.0430 O.2     1  UNL1       -0.2050
     10  O         16.2280  -24.0400   -9.1260 O.2     1  UNL1       -0.2050
     11  N         17.9770  -23.6600   -7.3470 N.pl3   1  UNL1       -0.1790
     12  H         17.4680  -24.4940   -7.0320 H       1  UNL1        0.1460
     13  C         18.1780  -22.8280   -6.1850 C.2     1  UNL1        0.0560
     14  C         19.0560  -21.7480   -6.2520 C.2     1  UNL1        0.0270
     15  C         19.2130  -20.9180   -5.1430 C.2     1  UNL1        0.0020
     16  C         18.4900  -21.1690   -3.9770 C.2     1  UNL1        0.0030
     17  C         17.6010  -22.2470   -3.9130 C.2     1  UNL1        0.0380
     18  C         17.4310  -23.0780   -5.0210 C.2     1  UNL1        0.0900
     19  O         16.6060  -24.1740   -5.0710 O.2     1  UNL1       -0.3540
     20  C         15.2110  -23.9120   -4.9570 C.3     1  UNL1        0.2100
     21  C         21.7980  -23.0770  -10.5630 C.2     1  UNL1        0.2520
     22  O         22.0910  -23.8570   -9.6650 O.2     1  UNL1       -0.2680
     23  N         22.6840  -22.6480  -11.5280 N.am    1  UNL1       -0.3520
     24  H         22.3900  -21.9750  -12.2200 H       1  UNL1        0.1630
     25  C         24.0420  -23.1840  -11.6180 C.3     1  UNL1        0.0880
     26  C         24.9490  -22.5150  -10.5740 C.3     1  UNL1        0.0250
     27  C         25.2990  -21.0690  -10.9240 C.3     1  UNL1        0.0020
     28  C         25.8690  -20.9420  -12.3310 C.3     1  UNL1        0.0010
     29  C         24.9490  -21.5720  -13.3740 C.3     1  UNL1        0.0060
     30  C         24.5910  -23.0340  -13.0570 C.3     1  UNL1        0.0040
     31  C         25.7860  -23.9640  -13.2950 C.3     1  UNL1        0.0120
@<TRIPOS>BOND
     1    29    30    1
     2    29    28    1
     3    31    30    1
     4    30    25    1
     5    28    27    1
     6    24    23    1
     7     5     4    2
     8     5     6    1
     9     4     3    1
    10    25    23    1
    11    25    26    1
    12    23    21   am
    13    27    26    1
    14     7     6    1
    15     6     1    2
    16     3    21    1
    17     3     2    2
    18    21    22    2
    19     1     2    1
    20     1     8    1
    21    10     8    2
    22     8     9    2
    23     8    11    1
    24    11    12    1
    25    11    13    1
    26    14    13    2
    27    14    15    1
    28    13    18    1
    29    15    16    2
    30    19    18    1
    31    19    20    1
    32    18    17    2
    33    16    17    1
