@<TRIPOS>MOLECULE
40739_out_ligand_01.pdbqt
 31 33 0 0 0
SMALL
GASTEIGER

@<TRIPOS>ATOM
      1  C         18.7510  -23.1600   -9.0560 C.2     1  UNL1        0.0790
      2  C         19.7490  -23.8870   -8.3990 C.2     1  UNL1        0.0260
      3  C         21.0930  -23.6510   -8.7070 C.2     1  UNL1        0.0180
      4  C         21.4350  -22.6890   -9.6680 C.2     1  UNL1        0.0320
      5  C         20.4270  -21.9380  -10.2890 C.2     1  UNL1        0.0180
      6  C         19.0850  -22.1670   -9.9810 C.2     1  UNL1        0.0260
      7  S         17.0390  -23.4590   -8.6630 S.O2    1  UNL1        0.2630
      8  O         16.9740  -24.6350   -7.8220 O.2     1  UNL1       -0.2000
      9  O         16.2920  -23.3830   -9.9020 O.2     1  UNL1       -0.2000
     10  N         16.5970  -22.0950   -7.7740 N.pl3   1  UNL1       -0.2800
     11  H         16.9180  -21.2240   -8.1900 H       1  UNL1        0.1790
     12  C         16.4810  -22.1790   -6.3580 C.2     1  UNL1        0.0490
     13  C         15.2640  -22.6060   -5.8160 C.2     1  UNL1        0.0310
     14  C         15.1130  -22.7380   -4.4410 C.2     1  UNL1        0.0030
     15  C         16.1760  -22.4330   -3.5960 C.2     1  UNL1        0.0070
     16  C         17.4030  -21.9900   -4.1160 C.2     1  UNL1       -0.0540
     17  C         18.5190  -21.6770   -3.1530 C.3     1  UNL1        0.0490
     18  C         17.5730  -21.8770   -5.5180 C.2     1  UNL1       -0.0290
     19  C         18.8910  -21.3990   -6.0710 C.3     1  UNL1        0.0510
     20  C         22.8520  -22.4120  -10.0430 C.2     1  UNL1        0.2510
     21  O         23.4000  -21.3900   -9.6490 O.2     1  UNL1       -0.2680
     22  N         23.4580  -23.3350  -10.8680 N.am    1  UNL1       -0.3530
     23  H         22.8870  -24.0180  -11.3420 H       1  UNL1        0.1630
     24  C         24.7700  -23.0910  -11.4290 C.3     1  UNL1        0.1610
     25  C         24.6880  -22.9390  -12.9270 C.2     1  UNL1       -0.0400
     26  C         24.0750  -21.8150  -13.5030 C.2     1  UNL1        0.0120
     27  C         24.0260  -21.6720  -14.8900 C.2     1  UNL1        0.0430
     28  C         24.5970  -22.6470  -15.7010 C.2     1  UNL1        0.1160
     29  F         24.5530  -22.5030  -17.0320 F       1  UNL1       -0.2060
     30  C         25.2150  -23.7630  -15.1520 C.2     1  UNL1        0.0430
     31  C         25.2630  -23.9090  -13.7650 C.2     1  UNL1        0.0120
@<TRIPOS>BOND
     1    29    28    1
     2    28    30    2
     3    28    27    1
     4    30    31    1
     5    27    26    2
     6    31    25    2
     7    26    25    1
     8    25    24    1
     9    24    22    1
    10    23    22    1
    11    22    20   am
    12     5     6    1
    13     5     4    2
    14    20     4    1
    15    20    21    2
    16     6     1    2
    17     9     7    2
    18     4     3    1
    19     1     7    1
    20     1     2    1
    21     3     2    2
    22     7     8    2
    23     7    10    1
    24    11    10    1
    25    10    12    1
    26    12    13    2
    27    12    18    1
    28    19    18    1
    29    13    14    1
    30    18    16    2
    31    14    15    2
    32    16    15    1
    33    16    17    1
