@<TRIPOS>MOLECULE
40741_out_ligand_01.pdbqt
 30 32 0 0 0
SMALL
GASTEIGER

@<TRIPOS>ATOM
      1  C         18.7310  -23.0480   -8.8560 C.2     1  UNL1        0.0790
      2  C         19.7850  -23.5090   -8.0630 C.2     1  UNL1        0.0260
      3  C         21.1010  -23.2470   -8.4520 C.2     1  UNL1        0.0180
      4  C         21.3650  -22.5340   -9.6300 C.2     1  UNL1        0.0320
      5  C         20.3000  -22.1150  -10.4410 C.2     1  UNL1        0.0180
      6  C         18.9810  -22.3750  -10.0560 C.2     1  UNL1        0.0260
      7  S         17.0510  -23.3800   -8.3650 S.O2    1  UNL1        0.2630
      8  O         16.2220  -23.3200   -9.5490 O.2     1  UNL1       -0.2000
      9  O         17.0700  -24.5600   -7.5250 O.2     1  UNL1       -0.2000
     10  N         16.6850  -22.0900   -7.3440 N.pl3   1  UNL1       -0.2800
     11  H         16.0880  -21.3970   -7.7900 H       1  UNL1        0.1790
     12  C         16.5520  -22.3000   -5.9390 C.2     1  UNL1        0.0480
     13  C         15.3710  -22.8520   -5.4340 C.2     1  UNL1        0.0300
     14  C         15.2090  -23.0410   -4.0620 C.2     1  UNL1        0.0020
     15  C         16.2320  -22.6850   -3.1890 C.2     1  UNL1        0.0010
     16  C         17.4180  -22.1450   -3.6870 C.2     1  UNL1        0.0090
     17  C         17.5960  -21.9470   -5.0660 C.2     1  UNL1       -0.0350
     18  C         18.8970  -21.3810   -5.5610 C.3     1  UNL1        0.0500
     19  C         22.7860  -22.2690   -9.9920 C.2     1  UNL1        0.2510
     20  O         23.3170  -21.2170   -9.6550 O.2     1  UNL1       -0.2680
     21  N         23.4170  -23.2380  -10.7420 N.am    1  UNL1       -0.3530
     22  H         22.8600  -23.9560  -11.1830 H       1  UNL1        0.1630
     23  C         24.7420  -23.0240  -11.2830 C.3     1  UNL1        0.1610
     24  C         24.6940  -22.9380  -12.7880 C.2     1  UNL1       -0.0400
     25  C         24.0760  -21.8510  -13.4260 C.2     1  UNL1        0.0120
     26  C         24.0600  -21.7690  -14.8190 C.2     1  UNL1        0.0430
     27  C         24.6660  -22.7670  -15.5730 C.2     1  UNL1        0.1160
     28  F         24.6520  -22.6830  -16.9110 F       1  UNL1       -0.2060
     29  C         25.2900  -23.8470  -14.9620 C.2     1  UNL1        0.0430
     30  C         25.3070  -23.9330  -13.5700 C.2     1  UNL1        0.0120
@<TRIPOS>BOND
     1    28    27    1
     2    27    29    2
     3    27    26    1
     4    29    30    1
     5    26    25    2
     6    30    24    2
     7    25    24    1
     8    24    23    1
     9    23    21    1
    10    22    21    1
    11    21    19   am
    12     5     6    1
    13     5     4    2
    14     6     1    2
    15    19    20    2
    16    19     4    1
    17     4     3    1
    18     8     7    2
    19     1     7    1
    20     1     2    1
    21     3     2    2
    22     7     9    2
    23     7    10    1
    24    11    10    1
    25    10    12    1
    26    12    13    2
    27    12    17    1
    28    18    17    1
    29    13    14    1
    30    17    16    2
    31    14    15    2
    32    16    15    1
