@<TRIPOS>MOLECULE
40750_out_ligand_01.pdbqt
 32 35 0 0 0
SMALL
GASTEIGER

@<TRIPOS>ATOM
      1  C         19.4190  -22.2280   -9.5100 C.2     1  UNL1        0.0330
      2  C         18.8970  -21.8010  -10.7390 C.2     1  UNL1        0.0170
      3  C         19.7520  -21.5840  -11.8250 C.2     1  UNL1        0.0030
      4  C         21.1230  -21.8030  -11.6900 C.2     1  UNL1        0.0250
      5  C         21.6320  -22.2520  -10.4680 C.2     1  UNL1        0.0800
      6  C         20.7900  -22.4640   -9.3740 C.2     1  UNL1        0.0420
      7  S         23.3730  -22.5400  -10.2860 S.O2    1  UNL1        0.2630
      8  O         23.5340  -23.4700   -9.1880 O.2     1  UNL1       -0.2000
      9  O         24.0600  -21.2670  -10.2920 O.2     1  UNL1       -0.2000
     10  N         23.7580  -23.3940  -11.6930 N.pl3   1  UNL1       -0.2810
     11  H         24.0000  -24.3610  -11.4760 H       1  UNL1        0.1790
     12  C         24.5260  -22.7300  -12.6870 C.2     1  UNL1        0.0450
     13  C         25.9300  -22.7750  -12.6170 C.2     1  UNL1        0.0330
     14  C         26.7080  -22.1630  -13.6050 C.2     1  UNL1        0.0420
     15  C         26.0480  -21.5310  -14.6370 C.2     1  UNL1        0.1050
     16  C         24.6740  -21.4950  -14.7050 C.2     1  UNL1        0.1070
     17  O         26.6370  -20.8880  -15.6800 O.2     1  UNL1       -0.3230
     18  C         23.8810  -22.0890  -13.7470 C.2     1  UNL1        0.0690
     19  O         24.2280  -20.8260  -15.8020 O.2     1  UNL1       -0.3230
     20  C         25.4780  -20.4500  -16.4190 C.3     1  UNL1        0.3520
     21  C         18.5350  -22.4860   -8.3400 C.2     1  UNL1        0.2560
     22  N         19.0240  -22.0230   -7.1330 N.am    1  UNL1       -0.3230
     23  H         19.9660  -21.6550   -7.1300 H       1  UNL1        0.1690
     24  O         17.4900  -23.0950   -8.5380 O.2     1  UNL1       -0.2670
     25  C         18.3930  -22.0860   -5.8730 C.2     1  UNL1        0.0350
     26  C         18.8970  -21.2540   -4.8650 C.2     1  UNL1        0.0290
     27  C         18.3230  -21.2480   -3.5920 C.2     1  UNL1        0.0030
     28  C         17.2370  -22.0760   -3.3140 C.2     1  UNL1        0.0070
     29  C         16.7220  -22.9180   -4.3040 C.2     1  UNL1       -0.0560
     30  C         17.3030  -22.9090   -5.5850 C.2     1  UNL1        0.0360
     31  C         15.5360  -23.8030   -4.0150 C.3     1  UNL1        0.0340
     32  C         14.6190  -23.9320   -5.2230 C.3     1  UNL1        0.0100
@<TRIPOS>BOND
     1    20    19    1
     2    20    17    1
     3    19    16    1
     4    17    15    1
     5    16    15    2
     6    16    18    1
     7    15    14    1
     8    18    12    2
     9    14    13    2
    10    12    13    1
    11    12    10    1
    12     3     4    2
    13     3     2    1
    14    10    11    1
    15    10     7    1
    16     4     5    1
    17     2     1    2
    18     5     7    1
    19     5     6    2
    20     9     7    2
    21     7     8    2
    22     1     6    1
    23     1    21    1
    24    24    21    2
    25    21    22   am
    26    22    23    1
    27    22    25    1
    28    25    30    2
    29    25    26    1
    30    30    29    1
    31    32    31    1
    32    26    27    2
    33    29    31    1
    34    29    28    2
    35    27    28    1
