@<TRIPOS>MOLECULE
40755_out_ligand_01.pdbqt
 31 34 0 0 0
SMALL
GASTEIGER

@<TRIPOS>ATOM
      1  C         21.2190  -22.3790   -9.4450 C.2     1  UNL1        0.0320
      2  C         20.9400  -22.9110   -8.1760 C.2     1  UNL1        0.0180
      3  C         19.6290  -23.2520   -7.8330 C.2     1  UNL1        0.0260
      4  C         18.5990  -23.0590   -8.7620 C.2     1  UNL1        0.0790
      5  C         18.8630  -22.4950  -10.0130 C.2     1  UNL1        0.0260
      6  C         20.1740  -22.1580  -10.3530 C.2     1  UNL1        0.0180
      7  C         22.6040  -21.9980   -9.8490 C.2     1  UNL1        0.2560
      8  O         23.1060  -21.0150   -9.3200 O.2     1  UNL1       -0.2670
      9  N         23.1610  -22.7960  -10.8330 N.am    1  UNL1       -0.3220
     10  H         22.5410  -23.4640  -11.2600 H       1  UNL1        0.1690
     11  C         24.4700  -22.7190  -11.3810 C.2     1  UNL1        0.0470
     12  C         25.5720  -23.2500  -10.7010 C.2     1  UNL1        0.0300
     13  C         26.8460  -23.1820  -11.2540 C.2     1  UNL1        0.0050
     14  C         27.0310  -22.5850  -12.4970 C.2     1  UNL1        0.0320
     15  C         25.9720  -22.0500  -13.2110 C.2     1  UNL1        0.0690
     16  N         26.2550  -21.4980  -14.4030 N.2     1  UNL1       -0.2600
     17  C         24.6670  -22.1090  -12.6640 C.2     1  UNL1        0.0190
     18  C         25.2470  -20.9680  -15.1210 C.2     1  UNL1        0.1170
     19  C         23.9370  -20.9590  -14.6990 C.2     1  UNL1        0.0200
     20  C         23.6470  -21.5320  -13.4630 C.2     1  UNL1        0.0170
     21  S         16.9240  -23.4680   -8.3100 S.O2    1  UNL1        0.2630
     22  O         16.1240  -23.3850   -9.5150 O.2     1  UNL1       -0.2000
     23  O         16.9540  -24.6730   -7.5120 O.2     1  UNL1       -0.2000
     24  N         16.4580  -22.1600   -7.3540 N.pl3   1  UNL1       -0.2810
     25  H         16.7130  -21.2640   -7.7650 H       1  UNL1        0.1790
     26  C         16.4520  -22.2770   -5.9380 C.2     1  UNL1        0.0420
     27  C         15.2400  -22.5200   -5.2890 C.2     1  UNL1        0.0300
     28  C         15.2010  -22.6110   -3.8960 C.2     1  UNL1        0.0020
     29  C         16.3730  -22.4610   -3.1540 C.2     1  UNL1        0.0000
     30  C         17.5840  -22.2270   -3.8040 C.2     1  UNL1        0.0020
     31  C         17.6250  -22.1360   -5.1960 C.2     1  UNL1        0.0300
@<TRIPOS>BOND
     1    18    19    1
     2    18    16    2
     3    19    20    2
     4    16    15    1
     5    20    17    1
     6    15    17    1
     7    15    14    2
     8    17    11    2
     9    14    13    1
    10    11     9    1
    11    11    12    1
    12    10     9    1
    13    13    12    2
    14     9     7   am
    15     6     5    1
    16     6     1    2
    17     5     4    2
    18     7     1    1
    19     7     8    2
    20    22    21    2
    21     1     2    1
    22     4    21    1
    23     4     3    1
    24    21    23    2
    25    21    24    1
    26     2     3    2
    27    25    24    1
    28    24    26    1
    29    26    27    2
    30    26    31    1
    31    27    28    1
    32    31    30    2
    33    28    29    2
    34    30    29    1
