@<TRIPOS>MOLECULE
40758_out_ligand_01.pdbqt
 38 40 0 0 0
SMALL
GASTEIGER

@<TRIPOS>ATOM
      1  N         21.3540  -22.1400  -12.0120 N.am    1  UNL1       -0.3230
      2  C         20.8680  -22.0180  -10.7220 C.2     1  UNL1        0.2560
      3  O         21.5270  -22.0070   -9.6880 O.2     1  UNL1       -0.2670
      4  H         20.6740  -22.2880  -12.7480 H       1  UNL1        0.1690
      5  C         19.3850  -21.9230  -10.6140 C.2     1  UNL1        0.0330
      6  C         18.6270  -21.1830  -11.5340 C.2     1  UNL1        0.0170
      7  C         17.2400  -21.0970  -11.3920 C.2     1  UNL1        0.0030
      8  C         16.6040  -21.7320  -10.3240 C.2     1  UNL1        0.0250
      9  C         17.3670  -22.4420   -9.3920 C.2     1  UNL1        0.0750
     10  C         18.7530  -22.5550   -9.5380 C.2     1  UNL1        0.0410
     11  S         16.5550  -23.2380   -8.0220 S.O2    1  UNL1        0.2460
     12  O         15.9170  -24.4370   -8.5190 O.2     1  UNL1       -0.2060
     13  O         15.8000  -22.2210   -7.3220 O.2     1  UNL1       -0.2060
     14  N         17.8390  -23.6640   -7.0040 N.pl3   1  UNL1       -0.1780
     15  H         17.8170  -24.6630   -6.7940 H       1  UNL1        0.1460
     16  C         18.1240  -22.8100   -5.8920 C.2     1  UNL1        0.0610
     17  C         18.9150  -21.6740   -6.0470 C.2     1  UNL1        0.0270
     18  C         19.1210  -20.8190   -4.9620 C.2     1  UNL1        0.0020
     19  C         18.5330  -21.0970   -3.7240 C.2     1  UNL1        0.0030
     20  C         17.7370  -22.2310   -3.5690 C.2     1  UNL1        0.0440
     21  C         17.5380  -23.0790   -4.6520 C.2     1  UNL1        0.1380
     22  F         16.7520  -24.1560   -4.5110 F       1  UNL1       -0.2040
     23  C         22.7080  -22.1860  -12.4120 C.2     1  UNL1        0.0360
     24  C         23.6900  -22.9250  -11.7470 C.2     1  UNL1        0.0460
     25  C         25.0160  -22.9160  -12.2010 C.2     1  UNL1        0.0350
     26  C         25.3680  -22.1410  -13.3150 C.2     1  UNL1        0.0340
     27  C         24.3930  -21.3980  -13.9860 C.2     1  UNL1        0.0350
     28  C         23.0680  -21.4210  -13.5270 C.2     1  UNL1        0.0460
     29  C         26.0970  -23.6860  -11.5230 C.2     1  UNL1        0.2490
     30  N         26.3420  -23.4370  -10.2030 N.am    1  UNL1       -0.3660
     31  H         25.7270  -22.9000   -9.6080 H       1  UNL1        0.1590
     32  H         27.0270  -24.0280   -9.7490 H       1  UNL1        0.1590
     33  O         26.7350  -24.5420  -12.1240 O.2     1  UNL1       -0.2680
     34  C         24.7070  -20.5430  -15.1630 C.2     1  UNL1        0.2490
     35  N         25.2970  -19.3320  -14.9400 N.am    1  UNL1       -0.3660
     36  H         25.6820  -19.0450  -14.0510 H       1  UNL1        0.1590
     37  H         25.5610  -18.7970  -15.7590 H       1  UNL1        0.1590
     38  O         24.4600  -20.9190  -16.3030 O.2     1  UNL1       -0.2680
@<TRIPOS>BOND
     1    38    34    2
     2    37    35    1
     3    34    35   am
     4    34    27    1
     5    35    36    1
     6    27    28    1
     7    27    26    2
     8    28    23    2
     9    26    25    1
    10     4     1    1
    11    23     1    1
    12    23    24    1
    13    25    24    2
    14    25    29    1
    15    33    29    2
    16     1     2   am
    17     6     7    1
    18     6     5    2
    19    29    30   am
    20     7     8    2
    21     2     5    1
    22     2     3    2
    23     5    10    1
    24     8     9    1
    25    30    32    1
    26    30    31    1
    27    10     9    2
    28     9    11    1
    29    12    11    2
    30    11    13    2
    31    11    14    1
    32    14    15    1
    33    14    16    1
    34    17    16    2
    35    17    18    1
    36    16    21    1
    37    18    19    2
    38    21    22    1
    39    21    20    2
    40    19    20    1
