@<TRIPOS>MOLECULE
40756_out_ligand_01.pdbqt
 25 27 0 0 0
SMALL
GASTEIGER

@<TRIPOS>ATOM
      1  N         18.1660  -22.9680   -9.2810 N.pl3   1  UNL1       -0.2880
      2  H         17.3950  -23.4270   -9.7600 H       1  UNL1        0.1280
      3  C         19.1630  -22.5760  -10.1880 C.2     1  UNL1        0.0150
      4  C         20.4900  -23.0200  -10.0870 C.2     1  UNL1        0.0410
      5  C         21.4880  -22.5610  -10.9590 C.2     1  UNL1        0.0330
      6  C         21.1690  -21.6390  -11.9560 C.2     1  UNL1        0.0170
      7  C         19.8660  -21.1530  -12.0490 C.2     1  UNL1        0.0090
      8  C         18.8680  -21.5920  -11.1620 C.2     1  UNL1       -0.0410
      9  C         17.4860  -21.0050  -11.2940 C.3     1  UNL1        0.0500
     10  C         22.8670  -23.0950  -10.7960 C.2     1  UNL1        0.2490
     11  N         23.1730  -23.6920   -9.6040 N.am    1  UNL1       -0.3660
     12  H         22.4530  -24.0220   -8.9780 H       1  UNL1        0.1590
     13  H         24.0650  -24.1700   -9.5750 H       1  UNL1        0.1590
     14  O         23.6930  -23.0410  -11.6980 O.2     1  UNL1       -0.2680
     15  C         18.5270  -23.7150   -8.0700 C.3     1  UNL1        0.1330
     16  C         18.5010  -22.7920   -6.8670 C.2     1  UNL1       -0.0150
     17  C         19.5260  -21.8360   -6.7070 C.2     1  UNL1        0.0110
     18  C         19.5490  -20.9950   -5.6010 C.2     1  UNL1        0.0020
     19  C         18.5560  -21.1090   -4.6360 C.2     1  UNL1        0.0140
     20  C         17.5410  -22.0710   -4.7700 C.2     1  UNL1       -0.0070
     21  C         16.5450  -22.2000   -3.7940 C.2     1  UNL1        0.0150
     22  C         17.5050  -22.9340   -5.8920 C.2     1  UNL1        0.0740
     23  C         15.5550  -23.1620   -3.9360 C.2     1  UNL1        0.0200
     24  C         15.5950  -23.9650   -5.0560 C.2     1  UNL1        0.1170
     25  N         16.5380  -23.8670   -6.0180 N.2     1  UNL1       -0.2600
@<TRIPOS>BOND
     1     7     6    2
     2     7     8    1
     3     6     5    1
     4    14    10    2
     5     9     8    1
     6     8     3    2
     7     5    10    1
     8     5     4    2
     9    10    11   am
    10     3     4    1
    11     3     1    1
    12     2     1    1
    13    11    13    1
    14    11    12    1
    15     1    15    1
    16    15    16    1
    17    16    17    2
    18    16    22    1
    19    17    18    1
    20    25    22    1
    21    25    24    2
    22    22    20    2
    23    18    19    2
    24    24    23    1
    25    20    19    1
    26    20    21    1
    27    23    21    2
