@<TRIPOS>MOLECULE
40766_out_ligand_01.pdbqt
 33 36 0 0 0
SMALL
GASTEIGER

@<TRIPOS>ATOM
      1  C         15.4180  -22.1160   -9.8290 C.3     1  UNL1        0.0500
      2  C         16.8980  -22.2510  -10.0490 C.2     1  UNL1       -0.0390
      3  C         17.4670  -21.5800  -11.1430 C.2     1  UNL1        0.0100
      4  C         18.8370  -21.6610  -11.4070 C.2     1  UNL1        0.0300
      5  C         19.6820  -22.4090  -10.5830 C.2     1  UNL1        0.0360
      6  C         19.1370  -23.0610   -9.4800 C.2     1  UNL1        0.0550
      7  C         17.7550  -22.9890   -9.2120 C.2     1  UNL1        0.0870
      8  N         21.0470  -22.4550  -10.9400 N.am    1  UNL1       -0.3230
      9  C         22.1350  -22.1300  -10.1500 C.2     1  UNL1        0.2560
     10  O         22.1110  -21.7070   -9.0010 O.2     1  UNL1       -0.2670
     11  H         21.2380  -22.7260  -11.8960 H       1  UNL1        0.1690
     12  C         23.4620  -22.2950  -10.8070 C.2     1  UNL1        0.0340
     13  C         24.5100  -21.4520  -10.4050 C.2     1  UNL1        0.0190
     14  C         25.7840  -21.5430  -10.9780 C.2     1  UNL1        0.0330
     15  C         25.9540  -22.5200  -11.9590 C.2     1  UNL1        0.0620
     16  N         27.0370  -22.8920  -12.7150 N.pl3   1  UNL1       -0.3490
     17  C         24.9410  -23.3800  -12.3670 C.2     1  UNL1        0.0850
     18  C         26.6520  -23.9250  -13.5230 C.2     1  UNL1        0.2080
     19  H         27.9580  -22.4800  -12.6790 H       1  UNL1        0.1670
     20  N         25.3900  -24.2420  -13.3360 N.2     1  UNL1       -0.2420
     21  C         23.6710  -23.2820  -11.7840 C.2     1  UNL1        0.0510
     22  S         17.1570  -23.8610   -7.7660 S.O2    1  UNL1        0.2630
     23  O         16.1150  -24.7790   -8.1790 O.2     1  UNL1       -0.2000
     24  O         18.2980  -24.3470   -7.0190 O.2     1  UNL1       -0.2000
     25  N         16.4590  -22.6340   -6.8320 N.pl3   1  UNL1       -0.2780
     26  H         15.4600  -22.7960   -6.7010 H       1  UNL1        0.1790
     27  C         17.1660  -22.1770   -5.6760 C.2     1  UNL1        0.0810
     28  C         18.3050  -21.3820   -5.7890 C.2     1  UNL1        0.0330
     29  C         19.0000  -20.9960   -4.6400 C.2     1  UNL1        0.0020
     30  C         18.5550  -21.3980   -3.3780 C.2     1  UNL1        0.0030
     31  C         17.4120  -22.1870   -3.2610 C.2     1  UNL1        0.0440
     32  C         16.7290  -22.5720   -4.4090 C.2     1  UNL1        0.1430
     33  F         15.6380  -23.3470   -4.2950 F       1  UNL1       -0.2040
@<TRIPOS>BOND
     1    18    20    2
     2    18    16    1
     3    20    17    1
     4    16    19    1
     5    16    15    1
     6    17    15    2
     7    17    21    1
     8    15    14    1
     9    11     8    1
    10    21    12    2
    11     4     3    1
    12     4     5    2
    13     3     2    2
    14    14    13    2
    15     8     5    1
    16     8     9   am
    17    12    13    1
    18    12     9    1
    19     5     6    1
    20     9    10    2
    21     2     1    1
    22     2     7    1
    23     6     7    2
    24     7    22    1
    25    23    22    2
    26    22    24    2
    27    22    25    1
    28    25    26    1
    29    25    27    1
    30    28    27    2
    31    28    29    1
    32    27    32    1
    33    29    30    2
    34    32    33    1
    35    32    31    2
    36    30    31    1
