@<TRIPOS>MOLECULE
40764_out_ligand_01.pdbqt
 38 41 0 0 0
SMALL
GASTEIGER

@<TRIPOS>ATOM
      1  N         21.3520  -22.2540  -11.7390 N.am    1  UNL1       -0.3230
      2  C         20.9150  -22.1980  -10.4280 C.2     1  UNL1        0.2560
      3  O         21.6090  -22.1700   -9.4190 O.2     1  UNL1       -0.2670
      4  H         20.6440  -22.3510  -12.4560 H       1  UNL1        0.1690
      5  C         19.4370  -22.1930  -10.2610 C.2     1  UNL1        0.0330
      6  C         18.6090  -21.4070  -11.0770 C.2     1  UNL1        0.0170
      7  C         17.2240  -21.4150  -10.8860 C.2     1  UNL1        0.0030
      8  C         16.6610  -22.1970   -9.8780 C.2     1  UNL1        0.0250
      9  C         17.4930  -22.9640   -9.0570 C.2     1  UNL1        0.0760
     10  C         18.8790  -22.9680   -9.2390 C.2     1  UNL1        0.0410
     11  S         16.7960  -23.9620   -7.7570 S.O2    1  UNL1        0.2480
     12  O         15.6860  -24.7040   -8.3230 O.2     1  UNL1       -0.2050
     13  O         17.9140  -24.6360   -7.1320 O.2     1  UNL1       -0.2050
     14  N         16.1590  -22.7770   -6.7060 N.pl3   1  UNL1       -0.1710
     15  C         14.9180  -23.1680   -5.9490 C.3     1  UNL1        0.1180
     16  C         15.2570  -23.0970   -4.4520 C.3     1  UNL1        0.0560
     17  C         16.5630  -22.3780   -4.4470 C.2     1  UNL1       -0.0350
     18  C         17.2710  -21.9110   -3.3500 C.2     1  UNL1        0.0090
     19  C         17.0750  -22.2610   -5.7340 C.2     1  UNL1        0.0310
     20  C         18.5050  -21.2950   -3.5720 C.2     1  UNL1        0.0010
     21  C         19.0100  -21.1580   -4.8740 C.2     1  UNL1        0.0020
     22  C         18.2890  -21.6400   -5.9700 C.2     1  UNL1        0.0250
     23  C         22.6880  -22.2490  -12.1960 C.2     1  UNL1        0.0360
     24  C         23.7240  -22.9580  -11.5860 C.2     1  UNL1        0.0460
     25  C         25.0330  -22.8790  -12.0830 C.2     1  UNL1        0.0350
     26  C         25.3010  -22.1050  -13.2200 C.2     1  UNL1        0.0340
     27  C         24.2670  -21.4130  -13.8530 C.2     1  UNL1        0.0350
     28  C         22.9680  -21.4780  -13.3300 C.2     1  UNL1        0.0460
     29  C         26.1700  -23.6100  -11.4600 C.2     1  UNL1        0.2490
     30  N         26.6110  -23.2000  -10.2330 N.am    1  UNL1       -0.3660
     31  H         26.3090  -22.3530   -9.7740 H       1  UNL1        0.1590
     32  H         27.4290  -23.6670   -9.8620 H       1  UNL1        0.1590
     33  O         26.7170  -24.5410  -12.0420 O.2     1  UNL1       -0.2680
     34  C         24.4910  -20.5780  -15.0620 C.2     1  UNL1        0.2490
     35  N         25.1400  -19.3860  -14.9040 N.am    1  UNL1       -0.3660
     36  H         25.3740  -18.8860  -15.7520 H       1  UNL1        0.1590
     37  H         25.6480  -19.1380  -14.0660 H       1  UNL1        0.1590
     38  O         24.1340  -20.9570  -16.1700 O.2     1  UNL1       -0.2680
@<TRIPOS>BOND
     1    38    34    2
     2    36    35    1
     3    34    35   am
     4    34    27    1
     5    35    37    1
     6    27    28    1
     7    27    26    2
     8    28    23    2
     9    26    25    1
    10     4     1    1
    11    23     1    1
    12    23    24    1
    13    25    24    2
    14    25    29    1
    15    33    29    2
    16     1     2   am
    17    29    30   am
    18     6     7    1
    19     6     5    2
    20     7     8    2
    21     2     5    1
    22     2     3    2
    23     5    10    1
    24    30    32    1
    25    30    31    1
    26     8     9    1
    27    10     9    2
    28     9    11    1
    29    12    11    2
    30    11    13    2
    31    11    14    1
    32    14    15    1
    33    14    19    1
    34    22    19    1
    35    22    21    2
    36    15    16    1
    37    19    17    2
    38    21    20    1
    39    16    17    1
    40    17    18    1
    41    20    18    2
