@<TRIPOS>MOLECULE
40778_out_ligand_01.pdbqt
 38 40 0 0 0
SMALL
GASTEIGER

@<TRIPOS>ATOM
      1  N         21.6210  -21.7780  -12.2690 N.am    1  UNL1       -0.3230
      2  C         21.1490  -21.9420  -10.9800 C.2     1  UNL1        0.2560
      3  O         21.8170  -22.1280   -9.9710 O.2     1  UNL1       -0.2670
      4  H         20.9570  -21.4510  -12.9610 H       1  UNL1        0.1690
      5  C         19.6720  -21.8250  -10.8330 C.2     1  UNL1        0.0330
      6  C         18.9070  -21.0420  -11.7110 C.2     1  UNL1        0.0170
      7  C         17.5210  -20.9640  -11.5540 C.2     1  UNL1        0.0030
      8  C         16.8920  -21.6740  -10.5310 C.2     1  UNL1        0.0250
      9  C         17.6560  -22.4700   -9.6730 C.2     1  UNL1        0.0750
     10  C         19.0440  -22.5500   -9.8150 C.2     1  UNL1        0.0410
     11  S         16.8700  -23.3840   -8.3710 S.O2    1  UNL1        0.2450
     12  O         15.6700  -23.9600   -8.9380 O.2     1  UNL1       -0.2060
     13  O         17.8660  -24.2050   -7.7190 O.2     1  UNL1       -0.2060
     14  N         16.3660  -22.1560   -7.3170 N.pl3   1  UNL1       -0.1800
     15  H         15.4830  -21.7690   -7.6580 H       1  UNL1        0.1460
     16  C         16.4040  -22.4540   -5.9160 C.2     1  UNL1        0.0440
     17  C         15.2720  -23.0030   -5.3070 C.2     1  UNL1        0.0260
     18  C         15.2680  -23.2430   -3.9320 C.2     1  UNL1        0.0020
     19  C         16.3860  -22.9280   -3.1600 C.2     1  UNL1        0.0020
     20  C         17.5170  -22.3730   -3.7630 C.2     1  UNL1        0.0260
     21  C         17.5260  -22.1330   -5.1380 C.2     1  UNL1        0.0560
     22 CL         18.9480  -21.4630   -5.8540 Cl      1  UNL1       -0.0820
     23  C         22.9560  -21.9030  -12.7070 C.2     1  UNL1        0.0360
     24  C         23.9340  -22.6360  -12.0340 C.2     1  UNL1        0.0460
     25  C         25.2380  -22.7100  -12.5430 C.2     1  UNL1        0.0350
     26  C         25.5730  -22.0660  -13.7390 C.2     1  UNL1        0.0340
     27  C         24.5980  -21.3320  -14.4190 C.2     1  UNL1        0.0350
     28  C         23.2950  -21.2620  -13.9050 C.2     1  UNL1        0.0460
     29  C         26.2400  -23.5260  -11.8120 C.2     1  UNL1        0.2490
     30  N         26.6390  -23.0620  -10.5890 N.am    1  UNL1       -0.3660
     31  H         26.0670  -22.4180  -10.0630 H       1  UNL1        0.1590
     32  H         27.2040  -23.7120  -10.0530 H       1  UNL1        0.1590
     33  O         26.6730  -24.5760  -12.2640 O.2     1  UNL1       -0.2680
     34  C         24.8740  -20.6400  -15.7060 C.2     1  UNL1        0.2490
     35  N         25.6000  -19.4830  -15.6680 N.am    1  UNL1       -0.3660
     36  H         25.7600  -18.9550  -14.8230 H       1  UNL1        0.1590
     37  H         25.6800  -18.9830  -16.5460 H       1  UNL1        0.1590
     38  O         24.4400  -21.0710  -16.7670 O.2     1  UNL1       -0.2680
@<TRIPOS>BOND
     1    38    34    2
     2    37    35    1
     3    34    35   am
     4    34    27    1
     5    35    36    1
     6    27    28    1
     7    27    26    2
     8    28    23    2
     9    26    25    1
    10     4     1    1
    11    23     1    1
    12    23    24    1
    13    25    24    2
    14    25    29    1
    15     1     2   am
    16    33    29    2
    17    29    30   am
    18     6     7    1
    19     6     5    2
    20     7     8    2
    21     2     5    1
    22     2     3    2
    23     5    10    1
    24    30    31    1
    25    30    32    1
    26     8     9    1
    27    10     9    2
    28     9    11    1
    29    12    11    2
    30    11    13    2
    31    11    14    1
    32    15    14    1
    33    14    16    1
    34    16    17    2
    35    16    21    1
    36    22    21    1
    37    17    18    1
    38    21    20    2
    39    18    19    2
    40    20    19    1
