@<TRIPOS>MOLECULE
40770_out_ligand_01.pdbqt
 39 41 0 0 0
SMALL
GASTEIGER

@<TRIPOS>ATOM
      1  C         20.8890  -22.5130  -10.8240 C.2     1  UNL1        0.2560
      2  O         21.4940  -23.1670   -9.9840 O.2     1  UNL1       -0.2670
      3  N         21.4240  -21.9440  -11.9680 N.am    1  UNL1       -0.3230
      4  H         20.8340  -21.3030  -12.4830 H       1  UNL1        0.1690
      5  C         19.4430  -22.2230  -10.5980 C.2     1  UNL1        0.0330
      6  C         18.7500  -21.4660  -11.5540 C.2     1  UNL1        0.0170
      7  C         17.3830  -21.2180  -11.4060 C.2     1  UNL1        0.0030
      8  C         16.6950  -21.7330  -10.3080 C.2     1  UNL1        0.0260
      9  C         17.3890  -22.4810   -9.3540 C.2     1  UNL1        0.0870
     10  C         18.7680  -22.6960   -9.4700 C.2     1  UNL1        0.0420
     11  S         16.5230  -23.1800   -7.9580 S.3     1  UNL1        0.3030
     12  O         15.7430  -22.1030   -7.3700 O.3     1  UNL1       -0.1930
     13  O         15.8580  -24.3780   -8.4360 O.3     1  UNL1       -0.1930
     14  O         17.6960  -23.6340   -6.9120 O.2     1  UNL1       -0.2260
     15  C         18.0050  -22.8120   -5.8550 C.2     1  UNL1        0.1220
     16  C         18.8180  -21.6980   -6.0710 C.2     1  UNL1        0.0410
     17  C         19.1140  -20.8480   -5.0090 C.2     1  UNL1        0.0030
     18  C         18.5840  -21.1040   -3.7450 C.2     1  UNL1        0.0030
     19  C         17.7560  -22.2130   -3.5370 C.2     1  UNL1        0.0400
     20  C         17.4550  -23.0760   -4.5920 C.2     1  UNL1        0.1030
     21  O         16.6620  -24.1870   -4.5140 O.2     1  UNL1       -0.3490
     22  C         15.3510  -24.0800   -3.9630 C.3     1  UNL1        0.1710
     23  C         14.2990  -24.1080   -5.0580 C.3     1  UNL1        0.0340
     24  C         22.7500  -22.0600  -12.4390 C.2     1  UNL1        0.0360
     25  C         23.0650  -21.3780  -13.6210 C.2     1  UNL1        0.0460
     26  C         24.3620  -21.4300  -14.1460 C.2     1  UNL1        0.0350
     27  C         25.3590  -22.1480  -13.4830 C.2     1  UNL1        0.0340
     28  C         25.0500  -22.8420  -12.3080 C.2     1  UNL1        0.0350
     29  C         23.7410  -22.8090  -11.8010 C.2     1  UNL1        0.0460
     30  C         24.7120  -20.7000  -15.3880 C.2     1  UNL1        0.2490
     31  N         25.2640  -19.4570  -15.2390 N.am    1  UNL1       -0.3660
     32  H         25.1100  -18.9260  -14.3920 H       1  UNL1        0.1590
     33  H         25.3310  -18.9230  -16.0970 H       1  UNL1        0.1590
     34  O         24.4930  -21.1690  -16.4940 O.2     1  UNL1       -0.2680
     35  C         26.1320  -23.6200  -11.6470 C.2     1  UNL1        0.2490
     36  N         26.5160  -23.2410  -10.3920 N.am    1  UNL1       -0.3660
     37  H         27.3110  -23.7270   -9.9980 H       1  UNL1        0.1590
     38  H         26.2350  -22.3740   -9.9570 H       1  UNL1        0.1590
     39  O         26.6800  -24.5560  -12.2140 O.2     1  UNL1       -0.2680
@<TRIPOS>BOND
     1    34    30    2
     2    33    31    1
     3    30    31   am
     4    30    26    1
     5    31    32    1
     6    26    25    1
     7    26    27    2
     8    25    24    2
     9    27    28    1
    10     4     3    1
    11    24     3    1
    12    24    29    1
    13    28    29    2
    14    28    35    1
    15    39    35    2
    16     3     1   am
    17    35    36   am
    18     6     7    1
    19     6     5    2
    20     7     8    2
    21     1     5    1
    22     1     2    2
    23     5    10    1
    24    36    37    1
    25    36    38    1
    26     8     9    1
    27    10     9    2
    28     9    11    1
    29    13    11    1
    30    11    12    1
    31    11    14    1
    32    14    15    1
    33    16    15    2
    34    16    17    1
    35    15    20    1
    36    23    22    1
    37    17    18    2
    38    20    21    1
    39    20    19    2
    40    21    22    1
    41    18    19    1
