@<TRIPOS>MOLECULE
40773_out_ligand_01.pdbqt
 34 36 0 0 0
SMALL
GASTEIGER

@<TRIPOS>ATOM
      1  C         19.4020  -22.6010  -10.4610 C.2     1  UNL1        0.0360
      2  C         18.5550  -21.8830  -11.3030 C.2     1  UNL1        0.0300
      3  C         17.1870  -21.7870  -11.0220 C.2     1  UNL1        0.0100
      4  C         16.6280  -22.4060   -9.8930 C.2     1  UNL1       -0.0390
      5  C         15.1500  -22.2650   -9.6580 C.3     1  UNL1        0.0500
      6  C         17.4840  -23.1410   -9.0560 C.2     1  UNL1        0.0830
      7  C         18.8590  -23.2280   -9.3370 C.2     1  UNL1        0.0540
      8  N         20.7900  -22.7310  -10.6670 N.am    1  UNL1       -0.3230
      9  C         21.5770  -22.0110  -11.5430 C.2     1  UNL1        0.2560
     10  O         21.2270  -21.1710  -12.3600 O.2     1  UNL1       -0.2670
     11  H         21.2550  -23.4560  -10.1350 H       1  UNL1        0.1690
     12  C         23.0150  -22.3690  -11.4920 C.2     1  UNL1        0.0390
     13  C         23.5830  -22.8580  -12.6750 C.2     1  UNL1        0.0410
     14  C         24.9310  -23.2180  -12.6880 C.2     1  UNL1        0.0590
     15  C         25.7080  -23.1170  -11.5330 C.2     1  UNL1        0.0240
     16  C         25.1380  -22.6130  -10.3600 C.2     1  UNL1        0.0090
     17  C         23.7920  -22.2120  -10.3280 C.2     1  UNL1       -0.0460
     18  C         23.2320  -21.6420   -9.0530 C.3     1  UNL1        0.0490
     19  S         25.6390  -23.8590  -14.1850 S.O2    1  UNL1        0.1710
     20  C         24.8240  -22.9330  -15.4600 C.3     1  UNL1        0.1670
     21  O         25.2290  -25.2460  -14.2870 O.2     1  UNL1       -0.2230
     22  O         27.0430  -23.4960  -14.1950 O.2     1  UNL1       -0.2230
     23  S         16.8900  -23.9950   -7.6040 S.O2    1  UNL1        0.2460
     24  O         15.7650  -24.8150   -8.0060 O.2     1  UNL1       -0.2060
     25  O         18.0300  -24.5670   -6.9250 O.2     1  UNL1       -0.2060
     26  N         16.2090  -22.7200   -6.6990 N.pl3   1  UNL1       -0.1780
     27  H         15.2930  -23.0370   -6.3770 H       1  UNL1        0.1460
     28  C         17.0310  -22.3150   -5.5870 C.2     1  UNL1        0.0610
     29  C         18.1360  -21.4890   -5.8060 C.2     1  UNL1        0.0270
     30  C         18.8970  -21.0420   -4.7210 C.2     1  UNL1        0.0020
     31  C         18.5470  -21.4070   -3.4190 C.2     1  UNL1        0.0030
     32  C         17.4320  -22.2160   -3.1980 C.2     1  UNL1        0.0440
     33  C         16.6760  -22.6580   -4.2790 C.2     1  UNL1        0.1380
     34  F         15.6120  -23.4410   -4.0470 F       1  UNL1       -0.2040
@<TRIPOS>BOND
     1    20    19    1
     2    21    19    2
     3    22    19    2
     4    19    14    1
     5    14    13    1
     6    14    15    2
     7    13    12    2
     8    10     9    2
     9     9    12    1
    10     9     8   am
    11    15    16    1
    12    12    17    1
    13     2     3    1
    14     2     1    2
    15     3     4    2
    16     8     1    1
    17     8    11    1
    18     1     7    1
    19    16    17    2
    20    17    18    1
    21     4     5    1
    22     4     6    1
    23     7     6    2
    24     6    23    1
    25    24    23    2
    26    23    25    2
    27    23    26    1
    28    26    27    1
    29    26    28    1
    30    29    28    2
    31    29    30    1
    32    28    33    1
    33    30    31    2
    34    33    34    1
    35    33    32    2
    36    31    32    1
