@<TRIPOS>MOLECULE
40783_out_ligand_01.pdbqt
 36 39 0 0 0
SMALL
GASTEIGER

@<TRIPOS>ATOM
      1  C         19.0020  -22.5750   -9.7030 C.2     1  UNL1        0.0830
      2  C         20.3910  -22.6260   -9.9270 C.2     1  UNL1        0.0540
      3  C         20.9650  -21.9000  -10.9710 C.2     1  UNL1        0.0360
      4  C         20.1370  -21.1470  -11.8050 C.2     1  UNL1        0.0300
      5  C         18.7580  -21.0910  -11.5840 C.2     1  UNL1        0.0100
      6  C         18.1680  -21.7910  -10.5220 C.2     1  UNL1       -0.0390
      7  C         16.6780  -21.6940  -10.3440 C.3     1  UNL1        0.0500
      8  N         22.3430  -21.8970  -11.2620 N.am    1  UNL1       -0.3270
      9  C         23.3860  -21.6120  -10.4100 C.2     1  UNL1        0.2270
     10  O         23.2680  -21.2440   -9.2410 O.2     1  UNL1       -0.2730
     11  H         22.5970  -21.9770  -12.2460 H       1  UNL1        0.1690
     12  C         24.7780  -21.8520  -10.9640 C.3     1  UNL1        0.1650
     13  C         25.4100  -20.8610  -11.9240 C.ar    1  UNL1        0.0740
     14  N         26.0350  -19.8220  -11.4500 N.ar    1  UNL1       -0.1750
     15  N         26.5960  -18.9450  -12.3240 N.ar    1  UNL1       -0.2430
     16  C         26.5770  -19.0390  -13.6940 C.ar    1  UNL1        0.2720
     17  H         27.1010  -18.1570  -11.9310 H       1  UNL1        0.1920
     18  O         27.1210  -18.2110  -14.4150 O.2     1  UNL1       -0.2660
     19  C         25.8630  -20.1970  -14.2530 C.ar    1  UNL1        0.0460
     20  C         25.7740  -20.3670  -15.6400 C.2     1  UNL1        0.0180
     21  C         25.2750  -21.1140  -13.3850 C.ar    1  UNL1        0.0060
     22  C         25.0900  -21.4640  -16.1590 C.2     1  UNL1        0.0010
     23  C         24.4980  -22.3860  -15.2970 C.2     1  UNL1        0.0010
     24  C         24.5880  -22.2150  -13.9120 C.2     1  UNL1        0.0140
     25  S         18.3500  -23.5620   -8.3590 S.O2    1  UNL1        0.2460
     26  O         17.0360  -24.0300   -8.7400 O.2     1  UNL1       -0.2060
     27  O         19.3800  -24.4830   -7.9290 O.2     1  UNL1       -0.2060
     28  N         18.2270  -22.3710   -7.1390 N.pl3   1  UNL1       -0.1810
     29  H         19.1300  -22.3450   -6.6610 H       1  UNL1        0.1460
     30  C         17.1650  -22.6090   -6.2060 C.2     1  UNL1        0.0230
     31  C         17.4090  -23.3800   -5.0720 C.2     1  UNL1        0.0240
     32  C         16.3950  -23.5730   -4.1340 C.2     1  UNL1        0.0020
     33  C         15.1440  -22.9870   -4.3260 C.2     1  UNL1        0.0070
     34  C         14.8920  -22.2040   -5.4590 C.2     1  UNL1       -0.0600
     35  C         13.5660  -21.5280   -5.6410 C.3     1  UNL1        0.0480
     36  C         15.9200  -22.0020   -6.3910 C.2     1  UNL1        0.0310
@<TRIPOS>BOND
     1    22    20    1
     2    22    23    2
     3    20    19    2
     4    23    24    1
     5    18    16    2
     6    19    16   ar
     7    19    21   ar
     8    24    21    2
     9    16    15   ar
    10    21    13   ar
    11    15    17    1
    12    15    14   ar
    13    11     8    1
    14    13    14   ar
    15    13    12    1
    16     4     5    2
    17     4     3    1
    18     5     6    1
    19     8     3    1
    20     8     9   am
    21     3     2    2
    22    12     9    1
    23     6     7    1
    24     6     1    2
    25     9    10    2
    26     2     1    1
    27     1    25    1
    28    26    25    2
    29    25    27    2
    30    25    28    1
    31    28    29    1
    32    28    30    1
    33    36    30    2
    34    36    34    1
    35    30    31    1
    36    35    34    1
    37    34    33    2
    38    31    32    2
    39    33    32    1
