@<TRIPOS>MOLECULE
40788_out_ligand_01.pdbqt
 39 41 0 0 0
SMALL
GASTEIGER

@<TRIPOS>ATOM
      1  C         20.5800  -21.3590  -11.8820 C.2     1  UNL1        0.2560
      2  O         20.5810  -20.3660  -12.5990 O.2     1  UNL1       -0.2670
      3  N         21.6540  -22.1990  -11.6460 N.am    1  UNL1       -0.3230
      4  H         21.5640  -22.8680  -10.8930 H       1  UNL1        0.1690
      5  C         19.3320  -21.6830  -11.1260 C.2     1  UNL1        0.0330
      6  C         19.3420  -22.4710   -9.9710 C.2     1  UNL1        0.0420
      7  C         18.1400  -22.7500   -9.2960 C.2     1  UNL1        0.0860
      8  C         16.9080  -22.2770   -9.7880 C.2     1  UNL1       -0.0390
      9  C         16.9190  -21.4940  -10.9540 C.2     1  UNL1        0.0090
     10  C         15.5860  -22.5470   -9.1240 C.3     1  UNL1        0.0500
     11  C         18.1140  -21.2040  -11.6170 C.2     1  UNL1        0.0170
     12  S         18.2490  -23.7400   -7.8040 S.O2    1  UNL1        0.2650
     13  O         17.0770  -24.5890   -7.7840 O.2     1  UNL1       -0.2000
     14  O         19.5790  -24.3160   -7.7710 O.2     1  UNL1       -0.2000
     15  N         18.1600  -22.5760   -6.5560 N.pl3   1  UNL1       -0.2720
     16  C         19.3770  -21.7620   -6.2820 C.3     1  UNL1        0.1370
     17  C         19.1450  -20.6080   -5.3200 C.3     1  UNL1        0.0280
     18  C         17.3470  -22.9220   -5.4170 C.2     1  UNL1        0.0450
     19  C         17.8450  -23.6630   -4.3400 C.2     1  UNL1        0.0300
     20  C         17.0450  -23.8980   -3.2190 C.2     1  UNL1        0.0020
     21  C         15.7550  -23.3730   -3.1590 C.2     1  UNL1        0.0000
     22  C         15.2660  -22.6050   -4.2150 C.2     1  UNL1        0.0020
     23  C         16.0650  -22.3710   -5.3350 C.2     1  UNL1        0.0300
     24  C         22.9160  -22.1600  -12.2780 C.2     1  UNL1        0.0360
     25  C         23.1710  -21.4900  -13.4760 C.2     1  UNL1        0.0460
     26  C         24.4550  -21.5090  -14.0370 C.2     1  UNL1        0.0350
     27  C         25.4950  -22.2130  -13.4140 C.2     1  UNL1        0.0340
     28  C         25.2470  -22.8860  -12.2150 C.2     1  UNL1        0.0350
     29  C         23.9580  -22.8640  -11.6610 C.2     1  UNL1        0.0460
     30  C         24.6780  -20.8080  -15.3260 C.2     1  UNL1        0.2490
     31  N         25.2480  -19.5650  -15.2630 N.am    1  UNL1       -0.3660
     32  H         25.2500  -19.0560  -16.1380 H       1  UNL1        0.1590
     33  H         25.2100  -19.0160  -14.4170 H       1  UNL1        0.1590
     34  O         24.3450  -21.2950  -16.3960 O.2     1  UNL1       -0.2680
     35  C         26.2950  -23.6640  -11.5020 C.2     1  UNL1        0.2490
     36  N         26.6200  -23.2930  -10.2280 N.am    1  UNL1       -0.3660
     37  H         26.0640  -22.6690   -9.6640 H       1  UNL1        0.1590
     38  H         27.2690  -23.9010   -9.7420 H       1  UNL1        0.1590
     39  O         26.8340  -24.6330  -12.0230 O.2     1  UNL1       -0.2680
@<TRIPOS>BOND
     1    34    30    2
     2    32    31    1
     3    30    31   am
     4    30    26    1
     5    31    33    1
     6    26    25    1
     7    26    27    2
     8    25    24    2
     9    27    28    1
    10     2     1    2
    11    24    29    1
    12    24     3    1
    13    28    29    2
    14    28    35    1
    15    39    35    2
    16     1     3   am
    17     1     5    1
    18     3     4    1
    19    11     5    2
    20    11     9    1
    21    35    36   am
    22     5     6    1
    23     9     8    2
    24    36    38    1
    25    36    37    1
    26     6     7    2
    27     8     7    1
    28     8    10    1
    29     7    12    1
    30    12    13    2
    31    12    14    2
    32    12    15    1
    33    15    16    1
    34    15    18    1
    35    16    17    1
    36    18    23    2
    37    18    19    1
    38    23    22    1
    39    19    20    2
    40    22    21    2
    41    20    21    1
