@<TRIPOS>MOLECULE
40781_out_ligand_01.pdbqt
 33 37 0 0 0
SMALL
GASTEIGER

@<TRIPOS>ATOM
      1  C         20.7660  -22.5500  -10.2270 C.2     1  UNL1        0.0330
      2  C         20.1330  -21.8540  -11.2680 C.2     1  UNL1        0.0170
      3  C         20.8780  -21.3920  -12.3570 C.2     1  UNL1        0.0030
      4  C         22.2510  -21.6360  -12.4190 C.2     1  UNL1        0.0250
      5  C         22.8710  -22.3540  -11.3920 C.2     1  UNL1        0.0800
      6  C         22.1390  -22.8040  -10.2890 C.2     1  UNL1        0.0420
      7  S         24.6140  -22.6970  -11.4690 S.O2    1  UNL1        0.2630
      8  O         24.9960  -23.2540  -10.1890 O.2     1  UNL1       -0.2000
      9  O         25.2780  -21.5300  -12.0070 O.2     1  UNL1       -0.2000
     10  N         24.6990  -23.9600  -12.5900 N.pl3   1  UNL1       -0.2810
     11  H         23.8840  -24.5710  -12.5340 H       1  UNL1        0.1790
     12  C         25.2520  -23.7090  -13.8770 C.2     1  UNL1        0.0450
     13  C         26.5640  -24.1150  -14.1830 C.2     1  UNL1        0.0330
     14  C         27.1210  -23.8370  -15.4350 C.2     1  UNL1        0.0420
     15  C         26.3400  -23.1590  -16.3440 C.2     1  UNL1        0.1050
     16  C         25.0560  -22.7660  -16.0460 C.2     1  UNL1        0.1070
     17  O         26.7130  -22.8010  -17.6020 O.2     1  UNL1       -0.3230
     18  C         24.4810  -23.0270  -14.8200 C.2     1  UNL1        0.0690
     19  O         24.4620  -22.1120  -17.0790 O.2     1  UNL1       -0.3230
     20  C         25.5140  -22.1440  -18.0650 C.3     1  UNL1        0.3520
     21  C         20.0030  -23.0790   -9.0640 C.2     1  UNL1        0.2560
     22  O         20.5050  -23.9960   -8.4260 O.2     1  UNL1       -0.2670
     23  N         18.8050  -22.4370   -8.8160 N.am    1  UNL1       -0.3230
     24  H         18.6030  -21.6110   -9.3630 H       1  UNL1        0.1690
     25  C         17.8600  -22.7460   -7.8140 C.2     1  UNL1        0.0350
     26  C         16.8490  -23.6700   -8.1550 C.2     1  UNL1        0.0300
     27  C         15.8700  -24.0530   -7.2310 C.2     1  UNL1        0.0100
     28  C         15.9090  -23.4930   -5.9680 C.2     1  UNL1       -0.0520
     29  C         16.9070  -22.5790   -5.6210 C.2     1  UNL1       -0.0500
     30  C         15.0070  -23.7650   -4.8060 C.3     1  UNL1        0.0390
     31  C         17.8900  -22.2040   -6.5260 C.2     1  UNL1        0.0370
     32  C         16.7670  -22.1550   -4.1920 C.3     1  UNL1        0.0390
     33  C         15.3160  -22.5630   -3.9010 C.3     1  UNL1        0.0090
@<TRIPOS>BOND
     1    20    17    1
     2    20    19    1
     3    17    15    1
     4    19    16    1
     5    15    16    2
     6    15    14    1
     7    16    18    1
     8    14    13    2
     9    18    12    2
    10    13    12    1
    11    12    10    1
    12    10    11    1
    13    10     7    1
    14     4     3    2
    15     4     5    1
    16     3     2    1
    17     9     7    2
    18     7     5    1
    19     7     8    2
    20     5     6    2
    21     2     1    2
    22     6     1    1
    23     1    21    1
    24    24    23    1
    25    21    23   am
    26    21    22    2
    27    23    25    1
    28    26    25    2
    29    26    27    1
    30    25    31    1
    31    27    28    2
    32    31    29    2
    33    28    29    1
    34    28    30    1
    35    29    32    1
    36    30    33    1
    37    32    33    1
