@<TRIPOS>MOLECULE
40784_out_ligand_01.pdbqt
 39 41 0 0 0
SMALL
GASTEIGER

@<TRIPOS>ATOM
      1  C         21.4840  -21.9140  -11.7420 C.2     1  UNL1        0.2560
      2  O         21.3180  -21.1670  -12.6970 O.2     1  UNL1       -0.2670
      3  N         22.6790  -22.4640  -11.3150 N.am    1  UNL1       -0.3230
      4  H         22.6210  -23.2000  -10.6230 H       1  UNL1        0.1690
      5  C         20.2870  -22.3320  -10.9580 C.2     1  UNL1        0.0320
      6  C         19.0500  -21.7520  -11.2670 C.2     1  UNL1        0.0180
      7  C         17.9070  -22.1110  -10.5500 C.2     1  UNL1        0.0260
      8  C         18.0130  -23.0280   -9.5000 C.2     1  UNL1        0.0790
      9  C         19.2440  -23.6160   -9.1860 C.2     1  UNL1        0.0260
     10  C         20.3840  -23.2610   -9.9110 C.2     1  UNL1        0.0180
     11  S         16.5560  -23.4900   -8.5820 S.O2    1  UNL1        0.2630
     12  O         15.4860  -23.7040   -9.5310 O.2     1  UNL1       -0.2000
     13  O         16.9470  -24.5310   -7.6530 O.2     1  UNL1       -0.2000
     14  N         16.2310  -22.1300   -7.6400 N.pl3   1  UNL1       -0.2800
     15  H         15.6000  -21.4720   -8.0920 H       1  UNL1        0.1790
     16  C         16.2020  -22.2370   -6.2190 C.2     1  UNL1        0.0490
     17  C         14.9930  -22.5590   -5.5980 C.2     1  UNL1        0.0310
     18  C         14.9130  -22.6440   -4.2120 C.2     1  UNL1        0.0030
     19  C         16.0480  -22.4170   -3.4410 C.2     1  UNL1        0.0070
     20  C         17.2790  -22.1090   -4.0430 C.2     1  UNL1       -0.0540
     21  C         18.4740  -21.8840   -3.1530 C.3     1  UNL1        0.0490
     22  C         17.3610  -21.9930   -5.4520 C.2     1  UNL1       -0.0290
     23  C         18.6780  -21.6820   -6.1150 C.3     1  UNL1        0.0510
     24  C         23.9670  -22.2060  -11.8320 C.2     1  UNL1        0.0360
     25  C         24.6450  -20.9960  -11.6760 C.2     1  UNL1        0.0460
     26  C         25.9170  -20.8180  -12.2390 C.2     1  UNL1        0.0350
     27  C         26.5380  -21.8620  -12.9320 C.2     1  UNL1        0.0340
     28  C         25.8780  -23.0850  -13.0650 C.2     1  UNL1        0.0350
     29  C         24.5920  -23.2480  -12.5280 C.2     1  UNL1        0.0460
     30  C         26.6000  -19.5120  -12.0610 C.2     1  UNL1        0.2490
     31  N         27.0530  -18.8920  -13.1930 N.am    1  UNL1       -0.3660
     32  H         27.3710  -17.9400  -13.0600 H       1  UNL1        0.1590
     33  H         26.6680  -19.1190  -14.1010 H       1  UNL1        0.1590
     34  O         26.7340  -18.9970  -10.9600 O.2     1  UNL1       -0.2680
     35  C         26.4850  -24.2320  -13.7880 C.2     1  UNL1        0.2490
     36  N         26.3980  -24.2360  -15.1510 N.am    1  UNL1       -0.3660
     37  H         26.9250  -24.9620  -15.6230 H       1  UNL1        0.1590
     38  H         26.1840  -23.4060  -15.6840 H       1  UNL1        0.1590
     39  O         27.0680  -25.1240  -13.1880 O.2     1  UNL1       -0.2680
@<TRIPOS>BOND
     1    38    36    1
     2    37    36    1
     3    36    35   am
     4    33    31    1
     5    35    39    2
     6    35    28    1
     7    31    32    1
     8    31    30   am
     9    28    27    2
    10    28    29    1
    11    27    26    1
    12     2     1    2
    13    29    24    2
    14    26    30    1
    15    26    25    2
    16    30    34    2
    17    24    25    1
    18    24     3    1
    19     1     3   am
    20     1     5    1
    21     3     4    1
    22     6     5    2
    23     6     7    1
    24     5    10    1
    25     7     8    2
    26    10     9    2
    27    12    11    2
    28     8     9    1
    29     8    11    1
    30    11    13    2
    31    11    14    1
    32    15    14    1
    33    14    16    1
    34    16    17    2
    35    16    22    1
    36    23    22    1
    37    17    18    1
    38    22    20    2
    39    18    19    2
    40    20    19    1
    41    20    21    1
