@<TRIPOS>MOLECULE
40795_out_ligand_01.pdbqt
 34 36 0 0 0
SMALL
GASTEIGER

@<TRIPOS>ATOM
      1  C         21.1050  -22.1460   -9.8450 C.2     1  UNL1        0.0800
      2  C         21.1010  -21.3930  -11.0190 C.2     1  UNL1        0.0260
      3  C         19.8900  -21.1310  -11.6650 C.2     1  UNL1        0.0090
      4  C         18.6750  -21.6020  -11.1370 C.2     1  UNL1       -0.0460
      5  C         17.3930  -21.3060  -11.8660 C.3     1  UNL1        0.0490
      6  C         18.6980  -22.3480   -9.9410 C.2     1  UNL1        0.0390
      7  C         19.9090  -22.6110   -9.2910 C.2     1  UNL1        0.0420
      8  C         17.4470  -22.8850   -9.3440 C.2     1  UNL1        0.2520
      9  O         16.3580  -22.4210   -9.6550 O.2     1  UNL1       -0.2680
     10  N         17.6330  -23.8960   -8.4260 N.am    1  UNL1       -0.3530
     11  H         18.5680  -24.0630   -8.0830 H       1  UNL1        0.1630
     12  C         16.5380  -24.3910   -7.6230 C.3     1  UNL1        0.1610
     13  C         16.4350  -23.6200   -6.3310 C.2     1  UNL1       -0.0400
     14  C         15.2390  -23.6330   -5.5960 C.2     1  UNL1        0.0090
     15  C         15.1190  -22.8930   -4.4210 C.2     1  UNL1        0.0010
     16  C         16.1940  -22.1300   -3.9650 C.2     1  UNL1        0.0160
     17  C         17.4030  -22.1020   -4.6790 C.2     1  UNL1        0.0480
     18  C         17.5080  -22.8440   -5.8680 C.2     1  UNL1        0.0250
     19  C         18.5510  -21.2540   -4.1900 C.3     1  UNL1        0.4170
     20  F         19.2180  -21.8350   -3.1540 F       1  UNL1       -0.1660
     21  F         19.4870  -21.0220   -5.1540 F       1  UNL1       -0.1660
     22  F         18.1660  -20.0250   -3.7430 F       1  UNL1       -0.1660
     23  S         22.6440  -22.4940   -9.0240 S.O2    1  UNL1        0.2630
     24  O         22.6310  -21.7810   -7.7630 O.2     1  UNL1       -0.2000
     25  O         22.8530  -23.9250   -9.0700 O.2     1  UNL1       -0.2000
     26  N         23.7850  -21.7180   -9.9970 N.pl3   1  UNL1       -0.2810
     27  H         23.4480  -20.8190  -10.3380 H       1  UNL1        0.1790
     28  C         24.5810  -22.5000  -10.8790 C.2     1  UNL1        0.0420
     29  C         25.8980  -22.7920  -10.5270 C.2     1  UNL1        0.0300
     30  C         26.7200  -23.4880  -11.4170 C.2     1  UNL1        0.0090
     31  C         26.2260  -23.9050  -12.6590 C.2     1  UNL1       -0.0620
     32  C         27.1180  -24.6090  -13.6390 C.3     1  UNL1        0.0480
     33  C         24.9020  -23.6030  -13.0040 C.2     1  UNL1        0.0090
     34  C         24.0820  -22.9050  -12.1150 C.2     1  UNL1        0.0300
@<TRIPOS>BOND
     1    32    31    1
     2    33    31    2
     3    33    34    1
     4    31    30    1
     5    34    28    2
     6     5     4    1
     7     3     4    2
     8     3     2    1
     9    30    29    2
    10     4     6    1
    11     2     1    2
    12    28    29    1
    13    28    26    1
    14    27    26    1
    15    26    23    1
    16     6     8    1
    17     6     7    2
    18     1     7    1
    19     1    23    1
    20     9     8    2
    21     8    10   am
    22    25    23    2
    23    23    24    2
    24    10    11    1
    25    10    12    1
    26    12    13    1
    27    13    18    2
    28    13    14    1
    29    18    17    1
    30    14    15    2
    31    21    19    1
    32    17    19    1
    33    17    16    2
    34    15    16    1
    35    19    22    1
    36    19    20    1
