@<TRIPOS>MOLECULE
40798_out_ligand_01.pdbqt
 31 33 0 0 0
SMALL
GASTEIGER

@<TRIPOS>ATOM
      1  C         18.2660  -22.9980   -9.6140 C.2     1  UNL1        0.0740
      2  C         19.5370  -23.5410   -9.3950 C.2     1  UNL1        0.0260
      3  C         20.6170  -23.0970  -10.1610 C.2     1  UNL1        0.0180
      4  C         20.4260  -22.1170  -11.1480 C.2     1  UNL1        0.0320
      5  C         19.1530  -21.5630  -11.3460 C.2     1  UNL1        0.0180
      6  C         18.0720  -21.9960  -10.5720 C.2     1  UNL1        0.0260
      7  S         16.9010  -23.5220   -8.5990 S.O2    1  UNL1        0.2450
      8  O         17.3740  -24.5620   -7.7120 O.2     1  UNL1       -0.2060
      9  O         15.7690  -23.7420   -9.4780 O.2     1  UNL1       -0.2060
     10  N         16.5470  -22.0990   -7.7450 N.pl3   1  UNL1       -0.1810
     11  H         15.7590  -21.6340   -8.1930 H       1  UNL1        0.1460
     12  C         16.4690  -22.2070   -6.3220 C.2     1  UNL1        0.0290
     13  C         15.2220  -22.5060   -5.7650 C.2     1  UNL1        0.0250
     14  C         15.0710  -22.5630   -4.3840 C.2     1  UNL1        0.0020
     15  C         16.1630  -22.3000   -3.5570 C.2     1  UNL1        0.0070
     16  C         17.4220  -21.9790   -4.0980 C.2     1  UNL1       -0.0540
     17  C         18.5600  -21.6820   -3.1530 C.3     1  UNL1        0.0490
     18  C         17.5910  -21.9520   -5.5020 C.2     1  UNL1       -0.0340
     19  C         18.9230  -21.5780   -6.1050 C.3     1  UNL1        0.0500
     20  C         21.6080  -21.6790  -11.9370 C.2     1  UNL1        0.2510
     21  O         21.4660  -20.9000  -12.8730 O.2     1  UNL1       -0.2680
     22  N         22.8280  -22.1630  -11.5220 N.am    1  UNL1       -0.3530
     23  H         22.8990  -22.6280  -10.6280 H       1  UNL1        0.1630
     24  C         24.0640  -21.6750  -12.0980 C.3     1  UNL1        0.1640
     25  C         24.4660  -22.5010  -13.2890 C.2     1  UNL1       -0.0020
     26  C         24.9500  -23.8100  -13.1290 C.2     1  UNL1        0.0120
     27  C         25.2880  -24.5840  -14.2430 C.2     1  UNL1        0.0010
     28  C         25.1360  -24.0620  -15.5300 C.2     1  UNL1        0.0030
     29  C         24.6470  -22.7640  -15.7020 C.2     1  UNL1        0.0430
     30  C         24.3130  -22.0000  -14.5850 C.2     1  UNL1        0.1240
     31  F         23.8150  -20.7640  -14.7730 F       1  UNL1       -0.2050
@<TRIPOS>BOND
     1    29    28    2
     2    29    30    1
     3    28    27    1
     4    31    30    1
     5    30    25    2
     6    27    26    2
     7    25    26    1
     8    25    24    1
     9    21    20    2
    10    24    22    1
    11    20    22   am
    12    20     4    1
    13    22    23    1
    14     5     4    2
    15     5     6    1
    16     4     3    1
    17     6     1    2
    18     3     2    2
    19     1     2    1
    20     1     7    1
    21     9     7    2
    22     7    10    1
    23     7     8    2
    24    11    10    1
    25    10    12    1
    26    12    13    2
    27    12    18    1
    28    19    18    1
    29    13    14    1
    30    18    16    2
    31    14    15    2
    32    16    15    1
    33    16    17    1
