@<TRIPOS>MOLECULE
40801_out_ligand_01.pdbqt
 33 35 0 0 0
SMALL
GASTEIGER

@<TRIPOS>ATOM
      1  C         21.8950  -22.5160  -10.1330 C.2     1  UNL1        0.0820
      2  C         21.2540  -22.1750  -11.3240 C.2     1  UNL1        0.0260
      3  C         19.8770  -21.9670  -11.3180 C.2     1  UNL1        0.0100
      4  C         19.1320  -22.0940  -10.1300 C.2     1  UNL1       -0.0350
      5  C         17.6480  -21.8470  -10.1920 C.3     1  UNL1        0.0500
      6  C         19.7890  -22.4450   -8.9250 C.2     1  UNL1        0.0420
      7  C         21.1750  -22.6360   -8.9370 C.2     1  UNL1        0.0550
      8  N         19.0270  -22.5610   -7.7370 N.am    1  UNL1       -0.3220
      9  C         19.1930  -21.8460   -6.5650 C.2     1  UNL1        0.2560
     10  O         20.1070  -21.0740   -6.3040 O.2     1  UNL1       -0.2670
     11  H         18.3710  -23.3280   -7.7010 H       1  UNL1        0.1690
     12  C         18.1690  -22.1120   -5.5100 C.2     1  UNL1        0.0330
     13  C         18.3800  -21.7730   -4.1660 C.2     1  UNL1        0.0170
     14  C         17.3950  -22.0420   -3.2110 C.2     1  UNL1        0.0020
     15  C         16.2010  -22.6660   -3.5890 C.2     1  UNL1        0.0160
     16  C         15.9850  -23.0420   -4.9250 C.2     1  UNL1        0.0480
     17  C         16.9790  -22.7560   -5.8810 C.2     1  UNL1        0.0330
     18  C         14.6940  -23.7080   -5.3340 C.3     1  UNL1        0.4170
     19  F         14.8090  -24.4160   -6.4910 F       1  UNL1       -0.1660
     20  F         14.2560  -24.5920   -4.3980 F       1  UNL1       -0.1660
     21  F         13.6680  -22.8320   -5.5320 F       1  UNL1       -0.1660
     22  S         23.6610  -22.7120  -10.1280 S.O2    1  UNL1        0.2630
     23  O         24.0270  -23.6090   -9.0560 O.2     1  UNL1       -0.2000
     24  O         24.2340  -21.3830  -10.2110 O.2     1  UNL1       -0.2000
     25  N         23.9810  -23.4280  -11.6120 N.pl3   1  UNL1       -0.2810
     26  H         23.8740  -24.4370  -11.5840 H       1  UNL1        0.1790
     27  C         24.9000  -22.8810  -12.5550 C.2     1  UNL1        0.0430
     28  C         26.2780  -22.8900  -12.3710 C.2     1  UNL1        0.0300
     29  C         27.1200  -22.2960  -13.3170 C.2     1  UNL1        0.0030
     30  C         26.5840  -21.6670  -14.4390 C.2     1  UNL1        0.0070
     31  C         25.1990  -21.6290  -14.6270 C.2     1  UNL1       -0.0600
     32  C         24.6120  -20.9020  -15.8000 C.3     1  UNL1        0.0480
     33  C         24.3640  -22.2240  -13.6680 C.2     1  UNL1        0.0370
@<TRIPOS>BOND
     1    32    31    1
     2    31    30    2
     3    31    33    1
     4    30    29    1
     5    33    27    2
     6    29    28    2
     7    27    28    1
     8    27    25    1
     9    25    26    1
    10    25    22    1
    11     2     3    1
    12     2     1    2
    13     3     4    2
    14    24    22    2
    15     5     4    1
    16     1    22    1
    17     1     7    1
    18     4     6    1
    19    22    23    2
    20     7     6    2
    21     6     8    1
    22     8    11    1
    23     8     9   am
    24     9    10    2
    25     9    12    1
    26    19    18    1
    27    17    12    2
    28    17    16    1
    29    21    18    1
    30    12    13    1
    31    18    16    1
    32    18    20    1
    33    16    15    2
    34    13    14    2
    35    15    14    1
