@<TRIPOS>MOLECULE
40814_out_ligand_01.pdbqt
 31 34 0 0 0
SMALL
GASTEIGER

@<TRIPOS>ATOM
      1  C         19.3410  -22.3680  -10.4560 C.2     1  UNL1        0.0330
      2  C         18.7040  -21.5060  -11.3610 C.2     1  UNL1        0.0170
      3  C         17.3420  -21.2210  -11.2220 C.2     1  UNL1        0.0030
      4  C         16.6120  -21.7900  -10.1800 C.2     1  UNL1        0.0250
      5  C         17.2520  -22.6430   -9.2740 C.2     1  UNL1        0.0800
      6  C         18.6170  -22.9220   -9.3940 C.2     1  UNL1        0.0420
      7  C         20.7910  -22.6950  -10.5720 C.2     1  UNL1        0.2560
      8  O         21.1990  -23.7020  -10.0080 O.2     1  UNL1       -0.2670
      9  N         21.5230  -21.8240  -11.3580 N.am    1  UNL1       -0.3230
     10  H         21.0100  -21.1180  -11.8660 H       1  UNL1        0.1690
     11  C         22.9120  -21.8610  -11.6120 C.2     1  UNL1        0.0350
     12  C         23.7660  -21.5420  -10.5350 C.2     1  UNL1        0.0300
     13  C         25.1580  -21.5500  -10.6800 C.2     1  UNL1        0.0100
     14  C         25.6840  -21.8940  -11.9100 C.2     1  UNL1       -0.0520
     15  C         24.8470  -22.2140  -12.9820 C.2     1  UNL1       -0.0500
     16  C         27.1210  -21.9390  -12.3240 C.3     1  UNL1        0.0390
     17  C         23.4650  -22.1970  -12.8510 C.2     1  UNL1        0.0370
     18  C         25.6460  -22.5050  -14.2140 C.3     1  UNL1        0.0390
     19  C         27.0340  -22.7680  -13.6130 C.3     1  UNL1        0.0090
     20  S         16.3330  -23.3640   -7.9330 S.O2    1  UNL1        0.2630
     21  O         15.6810  -24.5570   -8.4280 O.2     1  UNL1       -0.2000
     22  O         15.5780  -22.3010   -7.3040 O.2     1  UNL1       -0.2000
     23  N         17.5430  -23.8090   -6.8380 N.pl3   1  UNL1       -0.2780
     24  H         17.4170  -24.7760   -6.5310 H       1  UNL1        0.1790
     25  C         17.9070  -22.8780   -5.8160 C.2     1  UNL1        0.0810
     26  C         18.7560  -21.8080   -6.0890 C.2     1  UNL1        0.0330
     27  C         19.0650  -20.8910   -5.0800 C.2     1  UNL1        0.0020
     28  C         18.5270  -21.0440   -3.8000 C.2     1  UNL1        0.0030
     29  C         17.6760  -22.1130   -3.5250 C.2     1  UNL1        0.0440
     30  C         17.3710  -23.0200   -4.5330 C.2     1  UNL1        0.1430
     31  F         16.5410  -24.0410   -4.2690 F       1  UNL1       -0.2040
@<TRIPOS>BOND
     1    18    19    1
     2    18    15    1
     3    19    16    1
     4    15    17    1
     5    15    14    2
     6    17    11    2
     7    16    14    1
     8    14    13    1
     9    10     9    1
    10    11     9    1
    11    11    12    1
    12     2     3    1
    13     2     1    2
    14     9     7   am
    15     3     4    2
    16    13    12    2
    17     7     1    1
    18     7     8    2
    19     1     6    1
    20     4     5    1
    21     6     5    2
    22     5    20    1
    23    21    20    2
    24    20    22    2
    25    20    23    1
    26    23    24    1
    27    23    25    1
    28    26    25    2
    29    26    27    1
    30    25    30    1
    31    27    28    2
    32    30    31    1
    33    30    29    2
    34    28    29    1
