@<TRIPOS>MOLECULE
40813_out_ligand_01.pdbqt
 33 36 0 0 0
SMALL
GASTEIGER

@<TRIPOS>ATOM
      1  C         21.6490  -22.0150  -10.8780 C.2     1  UNL1        0.0800
      2  C         21.4910  -21.3180  -12.0810 C.2     1  UNL1        0.0250
      3  C         20.2120  -20.9670  -12.5100 C.2     1  UNL1        0.0030
      4  C         19.0980  -21.2940  -11.7340 C.2     1  UNL1        0.0170
      5  C         19.2650  -21.9630  -10.5120 C.2     1  UNL1        0.0330
      6  C         20.5440  -22.3290  -10.0820 C.2     1  UNL1        0.0420
      7  C         18.0970  -22.3370   -9.6670 C.2     1  UNL1        0.2560
      8  O         16.9890  -22.3140  -10.1870 O.2     1  UNL1       -0.2670
      9  N         18.4170  -22.7110   -8.3760 N.am    1  UNL1       -0.3220
     10  H         19.4000  -22.8160   -8.1800 H       1  UNL1        0.1690
     11  C         17.5260  -23.0580   -7.3230 C.2     1  UNL1        0.0470
     12  C         16.4670  -23.9470   -7.5340 C.2     1  UNL1        0.0300
     13  C         15.5920  -24.2640   -6.5010 C.2     1  UNL1        0.0050
     14  C         15.7660  -23.6900   -5.2460 C.2     1  UNL1        0.0320
     15  C         16.7960  -22.8030   -4.9880 C.2     1  UNL1        0.0690
     16  N         16.8770  -22.3030   -3.7440 N.2     1  UNL1       -0.2600
     17  C         17.7020  -22.4710   -6.0260 C.2     1  UNL1        0.0190
     18  C         17.8730  -21.4420   -3.4600 C.2     1  UNL1        0.1170
     19  C         18.8170  -21.0440   -4.3790 C.2     1  UNL1        0.0200
     20  C         18.7300  -21.5630   -5.6680 C.2     1  UNL1        0.0170
     21  S         23.2770  -22.4720  -10.3230 S.O2    1  UNL1        0.2630
     22  O         23.1130  -23.3360   -9.1750 O.2     1  UNL1       -0.2000
     23  O         24.0690  -21.2640  -10.2410 O.2     1  UNL1       -0.2000
     24  N         23.8550  -23.4430  -11.5810 N.pl3   1  UNL1       -0.2790
     25  H         23.1010  -23.9880  -12.0000 H       1  UNL1        0.1790
     26  C         24.8180  -22.9000  -12.4910 C.2     1  UNL1        0.0600
     27  C         26.1890  -22.9760  -12.2130 C.2     1  UNL1        0.0380
     28  C         27.1210  -22.4670  -13.1190 C.2     1  UNL1        0.0220
     29 BR         26.8350  -23.7590  -10.6090 Br      1  UNL1       -0.0490
     30  C         26.6860  -21.8770  -14.3070 C.2     1  UNL1        0.0080
     31  C         25.3200  -21.7950  -14.6000 C.2     1  UNL1       -0.0600
     32  C         24.8480  -21.1200  -15.8550 C.3     1  UNL1        0.0480
     33  C         24.3910  -22.2960  -13.6770 C.2     1  UNL1        0.0380
@<TRIPOS>BOND
     1    32    31    1
     2    31    30    2
     3    31    33    1
     4    30    28    1
     5    33    26    2
     6    28    27    2
     7     3     2    1
     8     3     4    2
     9    26    27    1
    10    26    24    1
    11    27    29    1
    12     2     1    2
    13    25    24    1
    14     4     5    1
    15    24    21    1
    16     1    21    1
    17     1     6    1
    18     5     6    2
    19     5     7    1
    20    21    23    2
    21    21    22    2
    22     8     7    2
    23     7     9   am
    24     9    10    1
    25     9    11    1
    26    12    11    2
    27    12    13    1
    28    11    17    1
    29    13    14    2
    30    17    20    1
    31    17    15    2
    32    20    19    2
    33    14    15    1
    34    15    16    1
    35    19    18    1
    36    16    18    2
