@<TRIPOS>MOLECULE
40826_out_ligand_01.pdbqt
 26 27 0 0 0
SMALL
GASTEIGER

@<TRIPOS>ATOM
      1  S         18.0370  -23.4290   -7.2570 S.O2    1  UNL1        0.2450
      2  O         17.7610  -22.1300   -6.6830 O.2     1  UNL1       -0.2060
      3  O         17.8250  -24.6590   -6.5240 O.2     1  UNL1       -0.2060
      4  C         19.7210  -23.4090   -7.8290 C.2     1  UNL1        0.0740
      5  C         20.2130  -24.5160   -8.5270 C.2     1  UNL1        0.0260
      6  C         21.5310  -24.5090   -8.9950 C.2     1  UNL1        0.0180
      7  C         22.3530  -23.3980   -8.7630 C.2     1  UNL1        0.0310
      8  C         21.8380  -22.2840   -8.0810 C.2     1  UNL1        0.0180
      9  C         20.5220  -22.2860   -7.6130 C.2     1  UNL1        0.0260
     10  C         23.7610  -23.3370   -9.2420 C.2     1  UNL1        0.2490
     11  N         24.6310  -24.2860   -8.7810 N.am    1  UNL1       -0.3660
     12  H         25.6030  -24.1480   -9.0300 H       1  UNL1        0.1590
     13  H         24.4400  -24.8540   -7.9690 H       1  UNL1        0.1590
     14  O         24.1450  -22.4510   -9.9940 O.2     1  UNL1       -0.2680
     15  N         17.2130  -23.6030   -8.7430 N.pl3   1  UNL1       -0.1810
     16  H         16.2130  -23.5720   -8.5320 H       1  UNL1        0.1460
     17  C         17.5580  -22.6040   -9.7110 C.2     1  UNL1        0.0230
     18  C         16.5630  -21.7700  -10.2180 C.2     1  UNL1        0.0240
     19  C         16.8770  -20.8280  -11.1970 C.2     1  UNL1        0.0030
     20  C         18.1840  -20.7290  -11.6770 C.2     1  UNL1        0.0160
     21  C         19.1910  -21.5730  -11.1840 C.2     1  UNL1        0.0490
     22  C         18.8620  -22.5250  -10.2040 C.2     1  UNL1        0.0400
     23  C         20.5940  -21.4920  -11.7300 C.3     1  UNL1        0.4170
     24  F         20.6360  -20.9510  -12.9780 F       1  UNL1       -0.1660
     25  F         21.1970  -22.7100  -11.8290 F       1  UNL1       -0.1660
     26  F         21.4220  -20.7310  -10.9610 F       1  UNL1       -0.1660
@<TRIPOS>BOND
     1    24    23    1
     2    25    23    1
     3    23    21    1
     4    23    26    1
     5    20    19    2
     6    20    21    1
     7    19    18    1
     8    21    22    2
     9    18    17    2
    10    22    17    1
    11    14    10    2
    12    17    15    1
    13    10    11   am
    14    10     7    1
    15    12    11    1
    16     6     7    2
    17     6     5    1
    18    11    13    1
    19     7     8    1
    20    15    16    1
    21    15     1    1
    22     5     4    2
    23     8     9    2
    24     4     9    1
    25     4     1    1
    26     1     2    2
    27     1     3    2
