@<TRIPOS>MOLECULE
40825_out_ligand_01.pdbqt
 38 42 0 0 0
SMALL
GASTEIGER

@<TRIPOS>ATOM
      1  C         24.2290  -22.1470  -15.3170 C.3     1  UNL1        0.0500
      2  C         23.6310  -22.1640  -13.9370 C.2     1  UNL1       -0.0390
      3  C         22.4980  -21.3760  -13.6950 C.2     1  UNL1        0.0100
      4  C         21.9040  -21.3380  -12.4300 C.2     1  UNL1        0.0300
      5  C         22.4310  -22.0790  -11.3680 C.2     1  UNL1        0.0360
      6  C         23.5650  -22.8590  -11.5900 C.2     1  UNL1        0.0550
      7  C         24.1630  -22.9040  -12.8640 C.2     1  UNL1        0.0870
      8  N         21.7590  -21.9890  -10.1320 N.am    1  UNL1       -0.3230
      9  C         20.6730  -22.7330   -9.7060 C.2     1  UNL1        0.2560
     10  O         20.1290  -23.6490  -10.3070 O.2     1  UNL1       -0.2670
     11  H         22.1620  -21.3520   -9.4560 H       1  UNL1        0.1690
     12  C         20.1690  -22.3750   -8.3510 C.2     1  UNL1        0.0330
     13  C         20.9330  -21.5980   -7.4720 C.2     1  UNL1        0.0190
     14  C         20.4540  -21.2710   -6.1990 C.2     1  UNL1        0.0310
     15  C         19.1840  -21.7420   -5.8430 C.ar    1  UNL1        0.0430
     16  N         18.4720  -21.5720   -4.6730 N.ar    1  UNL1       -0.3580
     17  C         18.3900  -22.5030   -6.7060 C.ar    1  UNL1       -0.0000
     18  C         17.2660  -22.2050   -4.7700 C.ar    1  UNL1        0.0170
     19  H         18.7990  -21.0500   -3.8720 H       1  UNL1        0.1660
     20  C         17.1780  -22.7870   -6.0170 C.ar    1  UNL1       -0.0230
     21  C         16.2190  -22.2170   -3.7150 C.3     1  UNL1        0.0580
     22  C         15.9860  -23.5710   -6.4590 C.3     1  UNL1        0.0450
     23  C         14.7580  -23.3160   -5.5480 C.3     1  UNL1       -0.0140
     24  C         14.0180  -22.0370   -5.9590 C.3     1  UNL1        0.0100
     25  C         15.1580  -23.2830   -4.0510 C.3     1  UNL1        0.0100
     26  C         18.8890  -22.8190   -7.9840 C.2     1  UNL1        0.0310
     27  S         25.6200  -23.9220  -13.0500 S.O2    1  UNL1        0.2630
     28  O         26.0390  -24.3480  -11.7310 O.2     1  UNL1       -0.2000
     29  O         25.4040  -24.8970  -14.0950 O.2     1  UNL1       -0.2000
     30  N         26.7890  -22.8100  -13.5760 N.pl3   1  UNL1       -0.2810
     31  H         26.8250  -22.8040  -14.5950 H       1  UNL1        0.1790
     32  C         26.8420  -21.5510  -12.9170 C.2     1  UNL1        0.0420
     33  C         26.8600  -20.3730  -13.6670 C.2     1  UNL1        0.0330
     34  C         26.8720  -19.1380  -13.0160 C.2     1  UNL1        0.0440
     35  C         26.8570  -19.0960  -11.6260 C.2     1  UNL1        0.1160
     36  F         26.8720  -17.9110  -11.0020 F       1  UNL1       -0.2060
     37  C         26.8280  -20.2650  -10.8730 C.2     1  UNL1        0.0440
     38  C         26.8150  -21.5000  -11.5220 C.2     1  UNL1        0.0330
@<TRIPOS>BOND
     1     1     2    1
     2    31    30    1
     3    29    27    2
     4     2     3    2
     5     2     7    1
     6     3     4    1
     7    33    34    1
     8    33    32    2
     9    30    27    1
    10    30    32    1
    11    27     7    1
    12    27    28    2
    13    34    35    2
    14    32    38    1
    15     7     6    2
    16     4     5    2
    17    35    36    1
    18    35    37    1
    19     6     5    1
    20    38    37    2
    21     5     8    1
    22    10     9    2
    23     8     9   am
    24     8    11    1
    25     9    12    1
    26    12    26    2
    27    12    13    1
    28    26    17    1
    29    13    14    2
    30    17    20   ar
    31    17    15   ar
    32    22    20    1
    33    22    23    1
    34    14    15    1
    35    20    18   ar
    36    24    23    1
    37    15    16   ar
    38    23    25    1
    39    18    16   ar
    40    18    21    1
    41    16    19    1
    42    25    21    1
