@<TRIPOS>MOLECULE
40821_out_ligand_01.pdbqt
 33 36 0 0 0
SMALL
GASTEIGER

@<TRIPOS>ATOM
      1  C         15.4820  -22.1960   -9.8490 C.3     1  UNL1        0.0500
      2  C         16.9520  -22.5060   -9.8320 C.2     1  UNL1       -0.0390
      3  C         17.7560  -21.9470  -10.8380 C.2     1  UNL1        0.0100
      4  C         19.1320  -22.1950  -10.8900 C.2     1  UNL1        0.0300
      5  C         19.7470  -23.0110   -9.9400 C.2     1  UNL1        0.0360
      6  C         18.9610  -23.5840   -8.9450 C.2     1  UNL1        0.0540
      7  C         17.5760  -23.3250   -8.8760 C.2     1  UNL1        0.0830
      8  N         21.1410  -23.1870  -10.0500 N.am    1  UNL1       -0.3220
      9  C         22.1260  -22.7740   -9.1610 C.2     1  UNL1        0.2770
     10  O         21.9230  -22.2200   -8.0870 O.2     1  UNL1       -0.2660
     11  H         21.4620  -23.7080  -10.8550 H       1  UNL1        0.1690
     12  C         23.4910  -23.0830   -9.6340 C.ar    1  UNL1        0.1570
     13  N         24.3230  -23.8510   -8.9050 N.ar    1  UNL1       -0.1680
     14  N         25.4400  -23.9260   -9.6410 N.ar    1  UNL1       -0.2770
     15  C         25.3800  -23.2500  -10.8280 C.ar    1  UNL1        0.0620
     16  H         26.2200  -24.4610   -9.2730 H       1  UNL1        0.1890
     17  C         26.3170  -23.1000  -11.8550 C.2     1  UNL1        0.0320
     18  C         24.1180  -22.6660  -10.8530 C.ar    1  UNL1        0.0280
     19  C         25.9440  -22.3100  -12.9480 C.2     1  UNL1        0.0020
     20  C         24.6950  -21.6920  -12.9970 C.2     1  UNL1        0.0010
     21  C         23.7730  -21.8560  -11.9560 C.2     1  UNL1        0.0160
     22  S         16.7130  -24.1080   -7.5140 S.O2    1  UNL1        0.2460
     23  O         17.7160  -24.7590   -6.6970 O.2     1  UNL1       -0.2060
     24  O         15.5740  -24.8510   -8.0090 O.2     1  UNL1       -0.2060
     25  N         16.1380  -22.7880   -6.6210 N.pl3   1  UNL1       -0.1780
     26  H         15.1430  -22.8990   -6.4120 H       1  UNL1        0.1460
     27  C         16.9410  -22.2990   -5.5410 C.2     1  UNL1        0.0610
     28  C         18.0690  -21.5160   -5.7780 C.2     1  UNL1        0.0270
     29  C         18.8480  -21.0720   -4.7050 C.2     1  UNL1        0.0020
     30  C         18.4970  -21.4050   -3.3940 C.2     1  UNL1        0.0030
     31  C         17.3650  -22.1810   -3.1530 C.2     1  UNL1        0.0440
     32  C         16.5960  -22.6220   -4.2260 C.2     1  UNL1        0.1380
     33  F         15.5080  -23.3680   -3.9870 F       1  UNL1       -0.2040
@<TRIPOS>BOND
     1    20    19    2
     2    20    21    1
     3    19    17    1
     4    21    18    2
     5    17    15    2
     6     4     3    1
     7     4     5    2
     8    11     8    1
     9    18    15   ar
    10    18    12   ar
    11     3     2    2
    12    15    14   ar
    13     8     5    1
    14     8     9   am
    15     5     6    1
    16     1     2    1
    17     2     7    1
    18    14    16    1
    19    14    13   ar
    20    12     9    1
    21    12    13   ar
    22     9    10    2
    23     6     7    2
    24     7    22    1
    25    24    22    2
    26    22    23    2
    27    22    25    1
    28    25    26    1
    29    25    27    1
    30    28    27    2
    31    28    29    1
    32    27    32    1
    33    29    30    2
    34    32    33    1
    35    32    31    2
    36    30    31    1
