@<TRIPOS>MOLECULE
40831_out_ligand_01.pdbqt
 36 40 0 0 0
SMALL
GASTEIGER

@<TRIPOS>ATOM
      1  C         19.5030  -21.9280  -10.9660 C.2     1  UNL1        0.0330
      2  C         18.9070  -20.8950  -11.7060 C.2     1  UNL1        0.0170
      3  C         17.5490  -20.6070  -11.5380 C.2     1  UNL1        0.0030
      4  C         16.7820  -21.3490  -10.6410 C.2     1  UNL1        0.0250
      5  C         17.3780  -22.3910   -9.9220 C.2     1  UNL1        0.0750
      6  C         18.7350  -22.6860  -10.0770 C.2     1  UNL1        0.0410
      7  S         16.4130  -23.3480   -8.7800 S.O2    1  UNL1        0.2450
      8  O         17.2090  -24.4750   -8.3400 O.2     1  UNL1       -0.2060
      9  O         15.1190  -23.5410   -9.4000 O.2     1  UNL1       -0.2060
     10  N         16.1810  -22.2700   -7.4980 N.pl3   1  UNL1       -0.1810
     11  H         15.4550  -21.5940   -7.7470 H       1  UNL1        0.1460
     12  C         16.1020  -22.8150   -6.1770 C.2     1  UNL1        0.0340
     13  C         14.9290  -23.4650   -5.7820 C.2     1  UNL1        0.0250
     14  C         14.8060  -23.9690   -4.4880 C.2     1  UNL1        0.0020
     15  C         15.8530  -23.8210   -3.5820 C.2     1  UNL1        0.0010
     16  C         17.0270  -23.1740   -3.9710 C.2     1  UNL1        0.0140
     17  C         17.1720  -22.6580   -5.2700 C.2     1  UNL1       -0.0040
     18  C         18.4270  -21.9950   -5.6450 C.2     1  UNL1       -0.0240
     19  C         19.2540  -22.5290   -6.6440 C.2     1  UNL1        0.0120
     20  C         20.4570  -21.9070   -6.9830 C.2     1  UNL1        0.0010
     21  C         20.8460  -20.7390   -6.3310 C.2     1  UNL1        0.0000
     22  C         20.0320  -20.1910   -5.3410 C.2     1  UNL1        0.0010
     23  C         18.8310  -20.8150   -5.0010 C.2     1  UNL1        0.0120
     24  C         20.9420  -22.2700  -11.1310 C.2     1  UNL1        0.2560
     25  O         21.4800  -22.9210  -10.2460 O.2     1  UNL1       -0.2670
     26  N         21.5240  -21.7750  -12.2830 N.am    1  UNL1       -0.3230
     27  H         20.9680  -21.1450  -12.8450 H       1  UNL1        0.1690
     28  C         22.8490  -21.9730  -12.7260 C.2     1  UNL1        0.0350
     29  C         23.2500  -21.2620  -13.8780 C.2     1  UNL1        0.0300
     30  C         24.5420  -21.3900  -14.4000 C.2     1  UNL1        0.0100
     31  C         25.4220  -22.2460  -13.7670 C.2     1  UNL1       -0.0520
     32  C         25.0350  -22.9560  -12.6270 C.2     1  UNL1       -0.0500
     33  C         26.8540  -22.5210  -14.1040 C.3     1  UNL1        0.0390
     34  C         23.7590  -22.8270  -12.0950 C.2     1  UNL1        0.0370
     35  C         26.1700  -23.7740  -12.0970 C.3     1  UNL1        0.0390
     36  C         27.1020  -23.8150  -13.3170 C.3     1  UNL1        0.0090
@<TRIPOS>BOND
     1    30    29    1
     2    30    31    2
     3    33    31    1
     4    33    36    1
     5    29    28    2
     6    31    32    1
     7    36    35    1
     8    27    26    1
     9    28    26    1
    10    28    34    1
    11    32    35    1
    12    32    34    2
    13    26    24   am
    14     2     3    1
    15     2     1    2
    16     3     4    2
    17    24     1    1
    18    24    25    2
    19     1     6    1
    20     4     5    1
    21     6     5    2
    22     5     7    1
    23     9     7    2
    24     7     8    2
    25     7    10    1
    26    11    10    1
    27    10    12    1
    28    20    19    1
    29    20    21    2
    30    19    18    2
    31    21    22    1
    32    12    13    2
    33    12    17    1
    34    13    14    1
    35    18    17    1
    36    18    23    1
    37    22    23    2
    38    17    16    2
    39    14    15    2
    40    16    15    1
