@<TRIPOS>MOLECULE
40836_out_ligand_01.pdbqt
 34 37 0 0 0
SMALL
GASTEIGER

@<TRIPOS>ATOM
      1  C         18.5490  -21.8950   -5.5940 C.2     1  UNL1        0.0910
      2  C         19.6710  -21.1040   -5.8710 C.2     1  UNL1        0.0390
      3  C         20.5770  -21.4850   -6.8620 C.2     1  UNL1        0.0200
      4  C         20.3790  -22.6770   -7.5690 C.2     1  UNL1        0.0340
      5  C         19.2570  -23.4680   -7.2940 C.2     1  UNL1        0.0450
      6  C         18.3510  -23.0890   -6.2910 C.2     1  UNL1        0.1130
      7  C         21.3230  -23.1220   -8.6340 C.2     1  UNL1        0.2560
      8  O         21.4450  -24.3250   -8.8280 O.2     1  UNL1       -0.2670
      9  N         21.9990  -22.0990   -9.2760 N.am    1  UNL1       -0.3230
     10  H         21.8800  -21.1640   -8.9100 H       1  UNL1        0.1690
     11  C         22.9100  -22.2130  -10.3490 C.2     1  UNL1        0.0350
     12  C         24.1800  -22.8030  -10.2360 C.2     1  UNL1        0.0300
     13  C         25.0380  -22.8930  -11.3400 C.2     1  UNL1        0.0100
     14  C         24.6030  -22.4000  -12.5560 C.2     1  UNL1       -0.0520
     15  C         23.3430  -21.8110  -12.6800 C.2     1  UNL1       -0.0500
     16  C         25.3480  -22.3510  -13.8530 C.3     1  UNL1        0.0390
     17  C         22.4920  -21.7080  -11.5900 C.2     1  UNL1        0.0370
     18  C         23.1270  -21.3070  -14.0720 C.3     1  UNL1        0.0390
     19  C         24.2030  -22.0860  -14.8420 C.3     1  UNL1        0.0090
     20  S         16.9400  -24.1270   -5.9950 S.O2    1  UNL1        0.2610
     21  O         17.0260  -25.3320   -6.7870 O.2     1  UNL1       -0.2000
     22  O         16.7530  -24.2010   -4.5610 O.2     1  UNL1       -0.2000
     23  N         15.6700  -23.1770   -6.5460 N.3     1  UNL1       -0.3150
     24  H         14.7870  -23.6870   -6.5450 H       1  UNL1        0.1720
     25  C         15.9030  -22.2370   -7.6550 C.3     1  UNL1        0.1380
     26  C         15.8910  -23.0100   -8.9730 C.3     1  UNL1        0.0790
     27  C         16.8610  -22.4280   -9.9660 C.2     1  UNL1        0.0350
     28  C         18.0300  -23.1060  -10.3030 C.2     1  UNL1        0.0270
     29  C         18.9050  -22.5260  -11.2170 C.2     1  UNL1        0.0030
     30  C         18.5940  -21.2890  -11.7670 C.2     1  UNL1        0.0190
     31  C         17.4170  -20.6770  -11.3730 C.2     1  UNL1        0.1170
     32  N         16.5510  -21.2160  -10.4860 N.2     1  UNL1       -0.2660
     33  O         17.7290  -21.5090   -4.5730 O.2     1  UNL1       -0.3540
     34  C         18.4440  -21.4290   -3.3370 C.3     1  UNL1        0.2100
@<TRIPOS>BOND
     1    19    18    1
     2    19    16    1
     3    18    15    1
     4    16    14    1
     5    15    14    2
     6    15    17    1
     7    14    13    1
     8    30    31    2
     9    30    29    1
    10    17    11    2
    11    31    32    1
    12    13    12    2
    13    29    28    2
    14    32    27    2
    15    11    12    1
    16    11     9    1
    17    28    27    1
    18    27    26    1
    19     9    10    1
    20     9     7   am
    21    26    25    1
    22     8     7    2
    23     7     4    1
    24    25    23    1
    25     4     5    2
    26     4     3    1
    27     5     6    1
    28     3     2    2
    29    21    20    2
    30    23    24    1
    31    23    20    1
    32     6    20    1
    33     6     1    2
    34    20    22    2
    35     2     1    1
    36     1    33    1
    37    33    34    1
