@<TRIPOS>MOLECULE
40839_out_ligand_01.pdbqt
 34 37 0 0 0
SMALL
GASTEIGER

@<TRIPOS>ATOM
      1  C         25.2520  -21.7770  -13.4960 C.2     1  UNL1        0.0800
      2  C         26.5170  -21.6490  -12.9160 C.2     1  UNL1        0.0250
      3  C         26.6330  -21.5560  -11.5300 C.2     1  UNL1        0.0030
      4  C         25.4880  -21.5830  -10.7280 C.2     1  UNL1        0.0170
      5  C         24.2180  -21.6980  -11.3140 C.2     1  UNL1        0.0330
      6  C         24.1000  -21.8160  -12.7030 C.2     1  UNL1        0.0420
      7  C         22.9730  -21.7290  -10.4920 C.2     1  UNL1        0.2560
      8  O         22.9640  -21.1070   -9.4360 O.2     1  UNL1       -0.2670
      9  N         21.9530  -22.5130  -11.0000 N.am    1  UNL1       -0.3230
     10  H         22.1660  -23.0730  -11.8150 H       1  UNL1        0.1690
     11  C         20.6650  -22.6940  -10.4540 C.2     1  UNL1        0.0370
     12  C         19.5910  -22.1180  -11.1460 C.2     1  UNL1        0.0300
     13  C         18.2760  -22.2430  -10.6750 C.2     1  UNL1        0.0170
     14  C         18.0040  -22.9430   -9.4970 C.2     1  UNL1        0.0040
     15  C         16.6540  -23.1140   -8.9440 C.2     1  UNL1       -0.0430
     16  C         19.0860  -23.5060   -8.8190 C.2     1  UNL1        0.0920
     17  C         15.4670  -22.5250   -9.6470 C.3     1  UNL1        0.0490
     18  C         16.5170  -23.8060   -7.8030 C.2     1  UNL1        0.0900
     19  C         17.6470  -24.4050   -7.0740 C.2     1  UNL1        0.2880
     20  O         17.4590  -25.0250   -6.0340 O.2     1  UNL1       -0.2600
     21  O         18.9050  -24.2270   -7.6210 O.3     1  UNL1       -0.2750
     22  C         20.4030  -23.3900   -9.2780 C.2     1  UNL1        0.0670
     23  S         25.0970  -21.9270  -15.2580 S.O2    1  UNL1        0.2630
     24  O         24.0270  -21.0440  -15.6710 O.2     1  UNL1       -0.2000
     25  O         25.0790  -23.3310  -15.6070 O.2     1  UNL1       -0.2000
     26  N         26.5310  -21.2230  -15.8120 N.pl3   1  UNL1       -0.2810
     27  H         27.3140  -21.4920  -15.2160 H       1  UNL1        0.1790
     28  C         26.4800  -19.8730  -16.2540 C.2     1  UNL1        0.0420
     29  C         26.2490  -19.5990  -17.6000 C.2     1  UNL1        0.0300
     30  C         26.1650  -18.2750  -18.0350 C.2     1  UNL1        0.0090
     31  C         26.2920  -17.2200  -17.1230 C.2     1  UNL1       -0.0620
     32  C         26.2320  -15.7960  -17.5940 C.3     1  UNL1        0.0480
     33  C         26.5290  -17.5100  -15.7730 C.2     1  UNL1        0.0090
     34  C         26.6150  -18.8330  -15.3380 C.2     1  UNL1        0.0300
@<TRIPOS>BOND
     1    30    29    1
     2    30    31    2
     3    29    28    2
     4    32    31    1
     5    31    33    1
     6    28    26    1
     7    28    34    1
     8    26    23    1
     9    26    27    1
    10    33    34    2
    11    24    23    2
    12    25    23    2
    13    23     1    1
    14     1     2    2
    15     1     6    1
    16     2     3    1
    17     6     5    2
    18    10     9    1
    19     3     4    2
    20     5     4    1
    21     5     7    1
    22    12    13    1
    23    12    11    2
    24     9     7   am
    25     9    11    1
    26    13    14    2
    27     7     8    2
    28    11    22    1
    29    17    15    1
    30    14    15    1
    31    14    16    1
    32    22    16    2
    33    15    18    2
    34    16    21    1
    35    18    19    1
    36    21    19    1
    37    19    20    2
