@<TRIPOS>MOLECULE
40843_out_ligand_01.pdbqt
 30 32 0 0 0
SMALL
GASTEIGER

@<TRIPOS>ATOM
      1  C         18.0000  -23.5430   -8.5130 C.2     1  UNL1        0.0740
      2  C         19.3630  -23.8520   -8.4320 C.2     1  UNL1        0.0260
      3  C         20.2530  -23.2830   -9.3480 C.2     1  UNL1        0.0180
      4  C         19.7820  -22.4120  -10.3420 C.2     1  UNL1        0.0320
      5  C         18.4180  -22.0890  -10.3930 C.2     1  UNL1        0.0180
      6  C         17.5250  -22.6530   -9.4810 C.2     1  UNL1        0.0260
      7  S         16.8550  -24.2450   -7.3450 S.O2    1  UNL1        0.2450
      8  O         17.6310  -24.9980   -6.3860 O.2     1  UNL1       -0.2060
      9  O         15.7690  -24.8380   -8.0970 O.2     1  UNL1       -0.2060
     10  N         16.2220  -22.8220   -6.6520 N.pl3   1  UNL1       -0.1810
     11  H         15.2520  -23.0240   -6.4030 H       1  UNL1        0.1460
     12  C         16.9600  -22.3140   -5.5280 C.2     1  UNL1        0.0280
     13  C         18.1050  -21.5570   -5.7980 C.2     1  UNL1        0.0250
     14  C         18.8920  -21.0720   -4.7540 C.2     1  UNL1        0.0020
     15  C         18.5430  -21.3560   -3.4370 C.2     1  UNL1        0.0010
     16  C         17.4090  -22.1260   -3.1640 C.2     1  UNL1        0.0080
     17  C         16.6000  -22.6150   -4.2040 C.2     1  UNL1       -0.0400
     18  C         15.4140  -23.4720   -3.8590 C.3     1  UNL1        0.0500
     19  C         20.6930  -21.7780  -11.3360 C.2     1  UNL1        0.2510
     20  O         20.3760  -20.7200  -11.8670 O.2     1  UNL1       -0.2680
     21  N         21.8590  -22.4540  -11.6180 N.am    1  UNL1       -0.3530
     22  H         22.0600  -23.3450  -11.1870 H       1  UNL1        0.1630
     23  C         22.8710  -21.9030  -12.4910 C.3     1  UNL1        0.1640
     24  C         24.2120  -22.5170  -12.2040 C.2     1  UNL1       -0.0020
     25  C         24.7830  -23.4380  -13.0940 C.2     1  UNL1        0.0120
     26  C         26.0390  -23.9900  -12.8330 C.2     1  UNL1        0.0010
     27  C         26.7390  -23.6250  -11.6830 C.2     1  UNL1        0.0030
     28  C         26.1860  -22.7020  -10.7980 C.2     1  UNL1        0.0430
     29  C         24.9350  -22.1550  -11.0660 C.2     1  UNL1        0.1240
     30  F         24.4270  -21.2560  -10.2110 F       1  UNL1       -0.2050
@<TRIPOS>BOND
     1    25    26    1
     2    25    24    2
     3    26    27    2
     4    23    24    1
     5    23    21    1
     6    24    29    1
     7    20    19    2
     8    27    28    1
     9    21    19   am
    10    21    22    1
    11    19     4    1
    12    29    28    2
    13    29    30    1
    14     5     4    2
    15     5     6    1
    16     4     3    1
    17     6     1    2
    18     3     2    2
    19     1     2    1
    20     1     7    1
    21     9     7    2
    22     7    10    1
    23     7     8    2
    24    10    11    1
    25    10    12    1
    26    13    12    2
    27    13    14    1
    28    12    17    1
    29    14    15    2
    30    17    18    1
    31    17    16    2
    32    15    16    1
