@<TRIPOS>MOLECULE
40844_out_ligand_01.pdbqt
 36 38 0 0 0
SMALL
GASTEIGER

@<TRIPOS>ATOM
      1  N         21.2100  -22.9240  -10.1430 N.am    1  UNL1       -0.3230
      2  C         19.9270  -22.4410  -10.3340 C.2     1  UNL1        0.2560
      3  O         19.5720  -21.6380  -11.1900 O.2     1  UNL1       -0.2670
      4  H         21.3830  -23.4450   -9.2930 H       1  UNL1        0.1690
      5  C         22.3440  -22.6620  -10.9410 C.2     1  UNL1        0.0360
      6  C         23.5850  -23.0810  -10.4460 C.2     1  UNL1        0.0460
      7  C         24.7620  -22.8700  -11.1770 C.2     1  UNL1        0.0350
      8  C         24.7000  -22.2100  -12.4060 C.2     1  UNL1        0.0340
      9  C         23.4630  -21.7900  -12.9140 C.2     1  UNL1        0.0350
     10  C         22.2890  -22.0360  -12.1870 C.2     1  UNL1        0.0460
     11  C         26.0430  -23.3460  -10.5890 C.2     1  UNL1        0.2490
     12  N         25.9840  -24.2600   -9.5750 N.am    1  UNL1       -0.3660
     13  H         26.8610  -24.4980   -9.1300 H       1  UNL1        0.1590
     14  H         25.1350  -24.4940   -9.0790 H       1  UNL1        0.1590
     15  O         27.1200  -22.9120  -10.9780 O.2     1  UNL1       -0.2680
     16  C         23.4510  -21.1130  -14.2370 C.2     1  UNL1        0.2490
     17  N         22.4730  -20.1910  -14.4790 N.am    1  UNL1       -0.3660
     18  H         22.5280  -19.6830  -15.3530 H       1  UNL1        0.1590
     19  H         21.8530  -19.8280  -13.7680 H       1  UNL1        0.1590
     20  O         24.3090  -21.3540  -15.0780 O.2     1  UNL1       -0.2680
     21  C         18.9120  -22.9310   -9.3570 C.2     1  UNL1        0.0320
     22  C         17.5960  -22.4670   -9.4720 C.2     1  UNL1        0.0190
     23  C         16.6130  -22.9100   -8.5840 C.2     1  UNL1        0.0250
     24  C         16.9420  -23.8180   -7.5800 C.2     1  UNL1        0.0220
     25  C         18.2460  -24.3040   -7.4730 C.2     1  UNL1        0.0250
     26  C         19.2320  -23.8640   -8.3610 C.2     1  UNL1        0.0190
     27  N         15.9150  -24.3060   -6.7160 N.pl3   1  UNL1       -0.1810
     28  H         15.0910  -24.6510   -7.2100 H       1  UNL1        0.1460
     29  S         15.3690  -23.2150   -5.5260 S.O2    1  UNL1        0.2520
     30  O         14.6050  -22.1730   -6.1810 O.2     1  UNL1       -0.2050
     31  O         14.7800  -24.0100   -4.4710 O.2     1  UNL1       -0.2050
     32  C         16.7710  -22.3910   -4.8120 C.2     1  UNL1        0.1150
     33  C         17.7020  -21.5210   -5.3440 C.2     1  UNL1        0.0330
     34  C         18.6780  -21.1170   -4.3870 C.2     1  UNL1        0.0090
     35  C         18.4580  -21.6940   -3.1560 C.2     1  UNL1        0.0510
     36  S         17.0850  -22.7160   -3.1610 S.3     1  UNL1       -0.0890
@<TRIPOS>BOND
     1    18    17    1
     2    20    16    2
     3    17    16   am
     4    17    19    1
     5    16     9    1
     6     9     8    2
     7     9    10    1
     8     8     7    1
     9    10     5    2
    10     3     2    2
    11     7    11    1
    12     7     6    2
    13    15    11    2
    14     5     6    1
    15     5     1    1
    16    11    12   am
    17     2     1   am
    18     2    21    1
    19     1     4    1
    20    12    13    1
    21    12    14    1
    22    22    21    2
    23    22    23    1
    24    21    26    1
    25    23    24    2
    26    26    25    2
    27    24    25    1
    28    24    27    1
    29    28    27    1
    30    27    29    1
    31    30    29    2
    32    29    32    1
    33    29    31    2
    34    33    32    2
    35    33    34    1
    36    32    36    1
    37    34    35    2
    38    36    35    1
