@<TRIPOS>MOLECULE
40853_out_ligand_01.pdbqt
 34 36 0 0 0
SMALL
GASTEIGER

@<TRIPOS>ATOM
      1  C         20.9260  -23.2890   -8.5450 C.2     1  UNL1        0.0330
      2  C         20.0210  -24.3560   -8.4390 C.2     1  UNL1        0.0180
      3  C         18.9800  -24.3040   -7.5060 C.2     1  UNL1        0.0260
      4  C         18.8470  -23.1860   -6.6770 C.2     1  UNL1        0.0740
      5  C         19.7540  -22.1270   -6.7560 C.2     1  UNL1        0.0260
      6  C         20.7900  -22.1820   -7.6920 C.2     1  UNL1        0.0180
      7  S         17.5400  -23.1540   -5.4720 S.O2    1  UNL1        0.2450
      8  O         17.0830  -24.5130   -5.2940 O.2     1  UNL1       -0.2060
      9  O         17.9690  -22.3300   -4.3620 O.2     1  UNL1       -0.2060
     10  N         16.3660  -22.2400   -6.3140 N.pl3   1  UNL1       -0.1810
     11  H         15.4770  -22.4230   -5.8430 H       1  UNL1        0.1460
     12  C         16.2660  -22.5770   -7.7040 C.2     1  UNL1        0.0230
     13  C         15.5480  -23.7000   -8.1120 C.2     1  UNL1        0.0240
     14  C         15.5130  -24.0430   -9.4640 C.2     1  UNL1        0.0030
     15  C         16.2010  -23.2690  -10.4000 C.2     1  UNL1        0.0160
     16  C         16.9350  -22.1420   -9.9940 C.2     1  UNL1        0.0490
     17  C         16.9730  -21.8120   -8.6310 C.2     1  UNL1        0.0400
     18  C         17.7020  -21.3280  -11.0050 C.3     1  UNL1        0.4170
     19  F         17.7830  -21.9240  -12.2280 F       1  UNL1       -0.1660
     20  F         18.9890  -21.0920  -10.6220 F       1  UNL1       -0.1660
     21  F         17.1470  -20.1050  -11.2190 F       1  UNL1       -0.1660
     22  C         22.0590  -23.2930   -9.5140 C.2     1  UNL1        0.2700
     23  O         23.1830  -23.6540   -9.1700 O.2     1  UNL1       -0.2660
     24  N         21.7910  -22.8520  -10.7950 N.am    1  UNL1       -0.2630
     25  H         20.9690  -22.2970  -11.0320 H       1  UNL1        0.1900
     26  N         22.8890  -22.6860  -11.6570 N.am    1  UNL1       -0.2630
     27  C         22.7760  -21.7770  -12.6980 C.2     1  UNL1        0.2770
     28  O         21.6910  -21.2340  -12.9180 O.2     1  UNL1       -0.2650
     29  H         23.7740  -23.0500  -11.3190 H       1  UNL1        0.1900
     30  C         23.9960  -21.5410  -13.4580 C.2     1  UNL1        0.0740
     31  C         24.2780  -20.6100  -14.4460 C.2     1  UNL1        0.0250
     32  C         25.6130  -20.7160  -14.9390 C.2     1  UNL1        0.0090
     33  C         26.3170  -21.7170  -14.3100 C.2     1  UNL1        0.0500
     34  S         25.3670  -22.5300  -13.1460 S.3     1  UNL1       -0.0970
@<TRIPOS>BOND
     1    32    31    1
     2    32    33    2
     3    31    30    2
     4    33    34    1
     5    30    34    1
     6    30    27    1
     7    28    27    2
     8    27    26   am
     9    19    18    1
    10    26    29    1
    11    26    24    1
    12    21    18    1
    13    25    24    1
    14    18    20    1
    15    18    16    1
    16    24    22   am
    17    15    16    2
    18    15    14    1
    19    16    17    1
    20    22    23    2
    21    22     1    1
    22    14    13    2
    23    17    12    2
    24     1     2    2
    25     1     6    1
    26     2     3    1
    27    13    12    1
    28    12    10    1
    29     6     5    2
    30     3     4    2
    31     5     4    1
    32     4     7    1
    33    10    11    1
    34    10     7    1
    35     7     8    2
    36     7     9    2
