@<TRIPOS>MOLECULE
40858_out_ligand_01.pdbqt
 33 36 0 0 0
SMALL
GASTEIGER

@<TRIPOS>ATOM
      1  C         18.4020  -22.1980  -10.2610 C.2     1  UNL1        0.0330
      2  C         18.3450  -21.0720  -11.0910 C.2     1  UNL1        0.0170
      3  C         19.4800  -20.6680  -11.7960 C.2     1  UNL1        0.0030
      4  C         20.6690  -21.3900  -11.6830 C.2     1  UNL1        0.0240
      5  C         20.7230  -22.5250  -10.8750 C.2     1  UNL1        0.0230
      6  C         19.5920  -22.9340  -10.1690 C.2     1  UNL1        0.0410
      7  N         21.9360  -23.2830  -10.7670 N.pl3   1  UNL1       -0.1810
      8  H         22.3350  -23.5060  -11.6810 H       1  UNL1        0.1460
      9  S         23.1510  -22.5620   -9.8110 S.O2    1  UNL1        0.2460
     10  O         23.7870  -23.5620   -8.9810 O.2     1  UNL1       -0.2060
     11  O         22.5930  -21.3470   -9.2590 O.2     1  UNL1       -0.2060
     12  C         24.3170  -22.1030  -11.0700 C.2     1  UNL1        0.0770
     13  C         25.3590  -21.2180  -10.7750 C.2     1  UNL1        0.0280
     14  C         26.2590  -20.8620  -11.7800 C.2     1  UNL1        0.0410
     15  C         26.1140  -21.3880  -13.0640 C.2     1  UNL1        0.1020
     16  C         25.0880  -22.3010  -13.3400 C.2     1  UNL1        0.1030
     17  O         27.0230  -20.9730  -14.0030 O.2     1  UNL1       -0.3460
     18  C         24.1770  -22.6520  -12.3490 C.2     1  UNL1        0.0640
     19  O         24.9120  -22.8810  -14.5700 O.2     1  UNL1       -0.3460
     20  C         26.0790  -22.7320  -15.3880 C.3     1  UNL1        0.2020
     21  C         26.5940  -21.3040  -15.3300 C.3     1  UNL1        0.2020
     22  C         17.2270  -22.6720   -9.4770 C.2     1  UNL1        0.2510
     23  O         16.1010  -22.2960   -9.7800 O.2     1  UNL1       -0.2680
     24  N         17.4840  -23.5510   -8.4500 N.am    1  UNL1       -0.3530
     25  H         18.4210  -23.8720   -8.2630 H       1  UNL1        0.1630
     26  C         16.4390  -24.0250   -7.5690 C.3     1  UNL1        0.1640
     27  C         16.5690  -23.4070   -6.2060 C.2     1  UNL1       -0.0020
     28  C         17.7580  -22.7750   -5.8190 C.2     1  UNL1        0.0120
     29  C         17.8810  -22.2160   -4.5440 C.2     1  UNL1        0.0010
     30  C         16.8190  -22.2880   -3.6420 C.2     1  UNL1        0.0030
     31  C         15.6350  -22.9240   -4.0150 C.2     1  UNL1        0.0430
     32  C         15.5220  -23.4790   -5.2860 C.2     1  UNL1        0.1240
     33  F         14.3810  -24.1020   -5.6180 F       1  UNL1       -0.2050
@<TRIPOS>BOND
     1    20    21    1
     2    20    19    1
     3    21    17    1
     4    19    16    1
     5    17    15    1
     6    16    15    2
     7    16    18    1
     8    15    14    1
     9    18    12    2
    10     3     4    2
    11     3     2    1
    12    14    13    2
    13     4     5    1
    14     8     7    1
    15     2     1    2
    16    12    13    1
    17    12     9    1
    18     5     7    1
    19     5     6    2
    20     7     9    1
    21     1     6    1
    22     1    22    1
    23     9    11    2
    24     9    10    2
    25    23    22    2
    26    22    24   am
    27    24    25    1
    28    24    26    1
    29    26    27    1
    30    27    28    2
    31    27    32    1
    32    28    29    1
    33    33    32    1
    34    32    31    2
    35    29    30    2
    36    31    30    1
