@<TRIPOS>MOLECULE
40867_out_ligand_01.pdbqt
 33 36 0 0 0
SMALL
GASTEIGER

@<TRIPOS>ATOM
      1  C         20.5730  -21.9350   -7.1410 C.2     1  UNL1        0.0330
      2  C         20.4620  -20.9300   -6.1690 C.2     1  UNL1        0.0170
      3  C         19.2840  -20.7930   -5.4310 C.2     1  UNL1        0.0030
      4  C         18.2170  -21.6640   -5.6490 C.2     1  UNL1        0.0250
      5  C         18.3420  -22.6820   -6.5990 C.2     1  UNL1        0.0750
      6  C         19.5100  -22.8180   -7.3540 C.2     1  UNL1        0.0410
      7  C         21.8120  -22.1160   -7.9460 C.2     1  UNL1        0.2510
      8  O         22.7650  -21.3650   -7.7740 O.2     1  UNL1       -0.2680
      9  N         21.8120  -23.1700   -8.8340 N.am    1  UNL1       -0.3530
     10  H         21.1000  -23.8800   -8.7460 H       1  UNL1        0.1630
     11  C         23.0090  -23.5420   -9.5550 C.3     1  UNL1        0.1610
     12  C         23.0680  -22.8420  -10.8870 C.2     1  UNL1       -0.0380
     13  C         21.9020  -22.3070  -11.4570 C.2     1  UNL1        0.0120
     14  C         21.9530  -21.6390  -12.6830 C.2     1  UNL1        0.0400
     15  C         23.1680  -21.4980  -13.3470 C.2     1  UNL1        0.1020
     16  C         24.3410  -21.9950  -12.7720 C.2     1  UNL1        0.1020
     17  O         23.1390  -20.8520  -14.5570 O.2     1  UNL1       -0.3460
     18  C         24.2920  -22.6740  -11.5540 C.2     1  UNL1        0.0480
     19  O         25.5780  -21.8590  -13.3490 O.2     1  UNL1       -0.3460
     20  C         25.5600  -20.8770  -14.3920 C.3     1  UNL1        0.2020
     21  C         24.3490  -21.0680  -15.2900 C.3     1  UNL1        0.2020
     22  S         16.9890  -23.8000   -6.8860 S.O2    1  UNL1        0.2460
     23  O         15.7660  -23.0380   -6.7570 O.2     1  UNL1       -0.2060
     24  O         17.2180  -24.9890   -6.0930 O.2     1  UNL1       -0.2060
     25  N         17.1490  -24.1860   -8.5250 N.pl3   1  UNL1       -0.1780
     26  H         16.5120  -24.9420   -8.7830 H       1  UNL1        0.1460
     27  C         17.2340  -23.1120   -9.4670 C.2     1  UNL1        0.0610
     28  C         16.2320  -22.1480   -9.5520 C.2     1  UNL1        0.0270
     29  C         16.3260  -21.1310  -10.5070 C.2     1  UNL1        0.0020
     30  C         17.4190  -21.0780  -11.3760 C.2     1  UNL1        0.0030
     31  C         18.4230  -22.0420  -11.2920 C.2     1  UNL1        0.0440
     32  C         18.3240  -23.0490  -10.3380 C.2     1  UNL1        0.1380
     33  F         19.2880  -23.9800  -10.2630 F       1  UNL1       -0.2040
@<TRIPOS>BOND
     1    21    17    1
     2    21    20    1
     3    17    15    1
     4    20    19    1
     5    19    16    1
     6    15    16    2
     7    15    14    1
     8    16    18    1
     9    14    13    2
    10    18    12    2
    11    13    12    1
    12    30    31    2
    13    30    29    1
    14    31    32    1
    15    12    11    1
    16    29    28    2
    17    32    33    1
    18    32    27    2
    19    11     9    1
    20    28    27    1
    21    27    25    1
    22     9    10    1
    23     9     7   am
    24    26    25    1
    25    25    22    1
    26     7     8    2
    27     7     1    1
    28     6     1    2
    29     6     5    1
    30     1     2    1
    31    22    23    2
    32    22     5    1
    33    22    24    2
    34     5     4    2
    35     2     3    2
    36     4     3    1
