@<TRIPOS>MOLECULE
40868_out_ligand_01.pdbqt
 31 34 0 0 0
SMALL
GASTEIGER

@<TRIPOS>ATOM
      1  C         19.3390  -22.3600  -10.4680 C.2     1  UNL1        0.0330
      2  C         18.7080  -21.5090  -11.3870 C.2     1  UNL1        0.0170
      3  C         17.3410  -21.2380  -11.2710 C.2     1  UNL1        0.0030
      4  C         16.6010  -21.8140  -10.2390 C.2     1  UNL1        0.0250
      5  C         17.2350  -22.6590   -9.3220 C.2     1  UNL1        0.0800
      6  C         18.6040  -22.9180   -9.4150 C.2     1  UNL1        0.0420
      7  C         20.7940  -22.6700  -10.5590 C.2     1  UNL1        0.2560
      8  O         21.2130  -23.6440   -9.9460 O.2     1  UNL1       -0.2670
      9  N         21.5160  -21.8250  -11.3810 N.am    1  UNL1       -0.3230
     10  H         20.9950  -21.1510  -11.9230 H       1  UNL1        0.1690
     11  C         22.9060  -21.8540  -11.6280 C.2     1  UNL1        0.0350
     12  C         23.7550  -21.5660  -10.5390 C.2     1  UNL1        0.0300
     13  C         25.1480  -21.5790  -10.6740 C.2     1  UNL1        0.0100
     14  C         25.6800  -21.8720  -11.9150 C.2     1  UNL1       -0.0520
     15  C         24.8480  -22.1620  -13.0000 C.2     1  UNL1       -0.0500
     16  C         27.1210  -21.9840  -12.3030 C.3     1  UNL1        0.0390
     17  C         23.4670  -22.1640  -12.8710 C.2     1  UNL1        0.0370
     18  C         25.6560  -22.4960  -14.2160 C.3     1  UNL1        0.0390
     19  C         27.0240  -21.9120  -13.8340 C.3     1  UNL1        0.0090
     20  S         16.2980  -23.3880   -7.9960 S.O2    1  UNL1        0.2630
     21  O         15.5100  -22.3380   -7.3900 O.2     1  UNL1       -0.2000
     22  O         15.6780  -24.5950   -8.5020 O.2     1  UNL1       -0.2000
     23  N         17.4900  -23.8030   -6.8700 N.pl3   1  UNL1       -0.2790
     24  H         17.3500  -24.7540   -6.5230 H       1  UNL1        0.1790
     25  C         17.8800  -22.8310   -5.8910 C.2     1  UNL1        0.0640
     26  C         18.8600  -21.8870   -6.2020 C.2     1  UNL1        0.0320
     27  C         19.2260  -20.9190   -5.2640 C.2     1  UNL1        0.0020
     28  C         18.6160  -20.8920   -4.0110 C.2     1  UNL1        0.0020
     29  C         17.6400  -21.8340   -3.6890 C.2     1  UNL1        0.0260
     30  C         17.2730  -22.8030   -4.6260 C.2     1  UNL1        0.0610
     31 CL         16.0590  -23.9530   -4.1930 Cl      1  UNL1       -0.0820
@<TRIPOS>BOND
     1    18    19    1
     2    18    15    1
     3    19    16    1
     4    15    17    1
     5    15    14    2
     6    17    11    2
     7    16    14    1
     8    10     9    1
     9    14    13    1
    10    11     9    1
    11    11    12    1
    12     2     3    1
    13     2     1    2
    14     9     7   am
    15     3     4    2
    16    13    12    2
    17     7     1    1
    18     7     8    2
    19     1     6    1
    20     4     5    1
    21     6     5    2
    22     5    20    1
    23    22    20    2
    24    20    21    2
    25    20    23    1
    26    23    24    1
    27    23    25    1
    28    26    25    2
    29    26    27    1
    30    25    30    1
    31    27    28    2
    32    30    31    1
    33    30    29    2
    34    28    29    1
