@<TRIPOS>MOLECULE
40865_out_ligand_01.pdbqt
 33 35 0 0 0
SMALL
GASTEIGER

@<TRIPOS>ATOM
      1  C         22.3700  -23.3020   -8.6660 C.2     1  UNL1        0.0320
      2  C         21.8100  -22.2200   -7.9720 C.2     1  UNL1        0.0180
      3  C         20.4750  -22.2680   -7.5570 C.2     1  UNL1        0.0260
      4  C         19.7040  -23.4010   -7.8420 C.2     1  UNL1        0.0790
      5  C         20.2650  -24.5000   -8.4970 C.2     1  UNL1        0.0260
      6  C         21.5970  -24.4460   -8.9090 C.2     1  UNL1        0.0180
      7  S         18.0010  -23.4590   -7.3270 S.O2    1  UNL1        0.2630
      8  O         17.7720  -24.7340   -6.6820 O.2     1  UNL1       -0.2000
      9  O         17.7060  -22.2100   -6.6570 O.2     1  UNL1       -0.2000
     10  N         17.1620  -23.4160   -8.7900 N.pl3   1  UNL1       -0.2810
     11  H         16.1640  -23.6180   -8.6810 H       1  UNL1        0.1790
     12  C         17.5670  -22.5230   -9.8160 C.2     1  UNL1        0.0430
     13  C         16.6310  -21.6320  -10.3420 C.2     1  UNL1        0.0300
     14  C         17.0170  -20.7110  -11.3140 C.2     1  UNL1        0.0030
     15  C         18.3360  -20.6880  -11.7680 C.2     1  UNL1        0.0160
     16  C         19.2820  -21.5950  -11.2630 C.2     1  UNL1        0.0500
     17  C         18.8850  -22.5080  -10.2740 C.2     1  UNL1        0.0460
     18  C         20.7110  -21.5750  -11.7450 C.3     1  UNL1        0.4170
     19  F         20.8410  -21.1180  -13.0250 F       1  UNL1       -0.1660
     20  F         21.2930  -22.8040  -11.7290 F       1  UNL1       -0.1660
     21  F         21.4970  -20.7670  -10.9820 F       1  UNL1       -0.1660
     22  C         23.7790  -23.3010   -9.1500 C.2     1  UNL1        0.2510
     23  O         24.5280  -24.2210   -8.8420 O.2     1  UNL1       -0.2680
     24  N         24.1440  -22.2680   -9.9880 N.am    1  UNL1       -0.3530
     25  H         23.4470  -21.6320  -10.3450 H       1  UNL1        0.1630
     26  C         25.4530  -22.2260  -10.6150 C.3     1  UNL1        0.1640
     27  C         25.4830  -21.3840  -11.8650 C.2     1  UNL1       -0.0020
     28  C         26.2990  -20.2490  -11.9960 C.2     1  UNL1        0.0120
     29  C         26.2530  -19.4710  -13.1600 C.2     1  UNL1        0.0010
     30  C         25.3780  -19.8010  -14.1960 C.2     1  UNL1        0.0030
     31  C         24.5480  -20.9110  -14.0700 C.2     1  UNL1        0.0430
     32  C         24.6030  -21.6860  -12.9120 C.2     1  UNL1        0.1240
     33  F         23.7890  -22.7480  -12.8160 F       1  UNL1       -0.2050
@<TRIPOS>BOND
     1    30    31    2
     2    30    29    1
     3    31    32    1
     4    29    28    2
     5    19    18    1
     6    32    33    1
     7    32    27    2
     8    28    27    1
     9    27    26    1
    10    15    14    2
    11    15    16    1
    12    18    20    1
    13    18    16    1
    14    18    21    1
    15    14    13    1
    16    16    17    2
    17    26    24    1
    18    25    24    1
    19    13    12    2
    20    17    12    1
    21    24    22   am
    22    12    10    1
    23    22    23    2
    24    22     1    1
    25     6     1    2
    26     6     5    1
    27    10    11    1
    28    10     7    1
    29     1     2    1
    30     5     4    2
    31     2     3    2
    32     4     3    1
    33     4     7    1
    34     7     8    2
    35     7     9    2
