@<TRIPOS>MOLECULE
40875_out_ligand_01.pdbqt
 32 34 0 0 0
SMALL
GASTEIGER

@<TRIPOS>ATOM
      1  C         18.5470  -22.0180  -10.5700 C.2     1  UNL1        0.0330
      2  C         18.6990  -20.9190  -11.4270 C.2     1  UNL1        0.0170
      3  C         19.9460  -20.6440  -11.9950 C.2     1  UNL1        0.0030
      4  C         21.0410  -21.4570  -11.7010 C.2     1  UNL1        0.0240
      5  C         20.8930  -22.5310  -10.8230 C.2     1  UNL1        0.0230
      6  C         19.6500  -22.8200  -10.2650 C.2     1  UNL1        0.0410
      7  C         17.2380  -22.3510   -9.9500 C.2     1  UNL1        0.2510
      8  O         16.2170  -21.7830  -10.3190 O.2     1  UNL1       -0.2680
      9  N         17.2660  -23.2890   -8.9420 N.am    1  UNL1       -0.3530
     10  H         18.1520  -23.5080   -8.5070 H       1  UNL1        0.1630
     11  C         16.0700  -23.5700   -8.1840 C.3     1  UNL1        0.1610
     12  C         16.2090  -23.0690   -6.7710 C.2     1  UNL1       -0.0400
     13  C         15.2150  -23.3460   -5.8230 C.2     1  UNL1        0.0090
     14  C         15.3460  -22.9020   -4.5070 C.2     1  UNL1        0.0010
     15  C         16.4790  -22.1850   -4.1220 C.2     1  UNL1        0.0160
     16  C         17.4970  -21.9120   -5.0470 C.2     1  UNL1        0.0480
     17  C         17.3500  -22.3560   -6.3720 C.2     1  UNL1        0.0250
     18  C         18.7160  -21.1210   -4.6370 C.3     1  UNL1        0.4170
     19  F         19.1670  -21.4470   -3.3930 F       1  UNL1       -0.1660
     20  F         19.7680  -21.3150   -5.4790 F       1  UNL1       -0.1660
     21  F         18.5000  -19.7760   -4.6110 F       1  UNL1       -0.1660
     22  N         21.9960  -23.4070  -10.5560 N.pl3   1  UNL1       -0.1810
     23  H         21.6920  -24.2120  -10.0040 H       1  UNL1        0.1460
     24  S         23.2590  -22.6680   -9.6720 S.O2    1  UNL1        0.2450
     25  O         23.8350  -23.7160   -8.8550 O.2     1  UNL1       -0.2060
     26  O         22.8120  -21.4140   -9.1100 O.2     1  UNL1       -0.2060
     27  C         24.3950  -22.2920  -10.9820 C.2     1  UNL1        0.0740
     28  C         25.3130  -21.2520  -10.8030 C.2     1  UNL1        0.0250
     29  C         26.2130  -20.9490  -11.8230 C.2     1  UNL1        0.0020
     30  C         26.1970  -21.6850  -13.0100 C.2     1  UNL1        0.0000
     31  C         25.2840  -22.7280  -13.1800 C.2     1  UNL1        0.0020
     32  C         24.3790  -23.0370  -12.1630 C.2     1  UNL1        0.0250
@<TRIPOS>BOND
     1    31    30    2
     2    31    32    1
     3    30    29    1
     4    32    27    2
     5     3     4    2
     6     3     2    1
     7    29    28    2
     8     4     5    1
     9     2     1    2
    10    27    28    1
    11    27    24    1
    12     5    22    1
    13     5     6    2
    14     1     6    1
    15     1     7    1
    16    22    23    1
    17    22    24    1
    18     8     7    2
    19     7     9   am
    20    24    26    2
    21    24    25    2
    22     9    10    1
    23     9    11    1
    24    11    12    1
    25    12    17    2
    26    12    13    1
    27    17    16    1
    28    13    14    2
    29    20    18    1
    30    16    18    1
    31    16    15    2
    32    18    21    1
    33    18    19    1
    34    14    15    1
