@<TRIPOS>MOLECULE
40872_out_ligand_01.pdbqt
 34 37 0 0 0
SMALL
GASTEIGER

@<TRIPOS>ATOM
      1  C         17.2630  -22.8910   -8.9600 C.2     1  UNL1        0.0820
      2  C         16.6320  -22.0850   -9.9030 C.2     1  UNL1        0.0260
      3  C         17.3980  -21.4600  -10.8810 C.2     1  UNL1        0.0100
      4  C         18.7950  -21.6350  -10.9270 C.2     1  UNL1       -0.0350
      5  C         19.5480  -20.9340  -12.0270 C.3     1  UNL1        0.0500
      6  C         19.4320  -22.4680   -9.9790 C.2     1  UNL1        0.0420
      7  C         18.6490  -23.0960   -9.0020 C.2     1  UNL1        0.0550
      8  N         20.8370  -22.6390  -10.0510 N.am    1  UNL1       -0.3260
      9  C         21.7640  -22.5020   -9.0290 C.2     1  UNL1        0.2310
     10  O         21.5240  -22.1950   -7.8650 O.2     1  UNL1       -0.2720
     11  H         21.2210  -22.9270  -10.9460 H       1  UNL1        0.1690
     12  C         23.1970  -22.7530   -9.4710 C.3     1  UNL1        0.1840
     13  S         23.2800  -22.9290  -11.2800 S.3     1  UNL1       -0.1000
     14  C         24.4680  -21.6910  -11.7080 C.2     1  UNL1        0.1080
     15  N         25.2290  -21.1180  -10.7480 N.2     1  UNL1       -0.2340
     16  C         26.1900  -20.2670  -11.1420 C.2     1  UNL1        0.2350
     17  N         26.4530  -19.8530  -12.3820 N.2     1  UNL1       -0.2340
     18  C         25.6460  -20.4140  -13.2980 C.2     1  UNL1        0.1110
     19  S         25.8030  -20.0220  -14.9490 S.3     1  UNL1       -0.0810
     20  C         24.6420  -21.3400  -13.0540 C.2     1  UNL1        0.0360
     21  C         24.5420  -21.0920  -15.3850 C.2     1  UNL1        0.0530
     22  C         24.0120  -21.7330  -14.2870 C.2     1  UNL1        0.0240
     23  S         16.2890  -23.7230   -7.7320 S.O2    1  UNL1        0.2630
     24  O         15.6560  -24.8800   -8.3240 O.2     1  UNL1       -0.2000
     25  O         15.4920  -22.7170   -7.0580 O.2     1  UNL1       -0.2000
     26  N         17.4480  -24.2120   -6.6030 N.pl3   1  UNL1       -0.2810
     27  H         18.2250  -24.6800   -7.0680 H       1  UNL1        0.1790
     28  C         17.7710  -23.3180   -5.5470 C.2     1  UNL1        0.0430
     29  C         17.4020  -23.6450   -4.2460 C.2     1  UNL1        0.0300
     30  C         17.6990  -22.7710   -3.2010 C.2     1  UNL1        0.0030
     31  C         18.3570  -21.5690   -3.4640 C.2     1  UNL1        0.0070
     32  C         18.7140  -21.2250   -4.7730 C.2     1  UNL1       -0.0600
     33  C         19.4290  -19.9370   -5.0560 C.3     1  UNL1        0.0480
     34  C         18.4300  -22.1170   -5.8150 C.2     1  UNL1        0.0370
@<TRIPOS>BOND
     1    21    19    1
     2    21    22    2
     3    19    18    1
     4    22    20    1
     5    18    20    1
     6    18    17    2
     7    20    14    2
     8    17    16    1
     9     5     4    1
    10    14    13    1
    11    14    15    1
    12    13    12    1
    13    16    15    2
    14    11     8    1
    15     4     3    2
    16     4     6    1
    17     3     2    1
    18     8     6    1
    19     8     9   am
    20     6     7    2
    21     2     1    2
    22    12     9    1
    23     9    10    2
    24     7     1    1
    25     1    23    1
    26    24    23    2
    27    23    25    2
    28    23    26    1
    29    27    26    1
    30    26    28    1
    31    34    28    2
    32    34    32    1
    33    28    29    1
    34    33    32    1
    35    32    31    2
    36    29    30    2
    37    31    30    1
