@<TRIPOS>MOLECULE
40877_out_ligand_01.pdbqt
 32 34 0 0 0
SMALL
GASTEIGER

@<TRIPOS>ATOM
      1  C         18.6860  -22.4830  -10.0790 C.2     1  UNL1        0.0390
      2  C         19.9760  -22.8800   -9.7100 C.2     1  UNL1        0.0420
      3  C         21.0750  -22.3360  -10.3750 C.2     1  UNL1        0.0800
      4  C         20.8980  -21.4140  -11.4090 C.2     1  UNL1        0.0260
      5  C         19.6070  -21.0080  -11.7590 C.2     1  UNL1        0.0090
      6  C         18.4860  -21.5210  -11.0890 C.2     1  UNL1       -0.0460
      7  C         17.1170  -21.0280  -11.4690 C.3     1  UNL1        0.0490
      8  C         17.5630  -23.1150   -9.3490 C.2     1  UNL1        0.2520
      9  N         17.8760  -23.5760   -8.0950 N.am    1  UNL1       -0.3530
     10  H         18.8250  -23.4940   -7.7580 H       1  UNL1        0.1630
     11  O         16.4510  -23.1600   -9.8590 O.2     1  UNL1       -0.2680
     12  C         16.9370  -24.3240   -7.2930 C.3     1  UNL1        0.1610
     13  C         16.7100  -23.6270   -5.9770 C.2     1  UNL1       -0.0380
     14  C         15.6270  -23.9860   -5.1660 C.2     1  UNL1        0.0090
     15  C         15.4360  -23.3630   -3.9320 C.2     1  UNL1        0.0030
     16  C         16.3310  -22.3860   -3.4900 C.2     1  UNL1        0.0370
     17  C         17.4220  -22.0270   -4.2820 C.2     1  UNL1        0.0680
     18  C         17.6040  -22.6480   -5.5200 C.2     1  UNL1        0.0450
     19  O         18.3780  -21.1040   -3.9640 O.2     1  UNL1       -0.3560
     20  C         19.1730  -20.6060   -5.0330 C.3     1  UNL1        0.2100
     21  S         22.7040  -22.8700   -9.9250 S.O2    1  UNL1        0.2630
     22  O         22.6020  -24.0380   -9.0780 O.2     1  UNL1       -0.2000
     23  O         23.4100  -21.6840   -9.4830 O.2     1  UNL1       -0.2000
     24  N         23.4080  -23.2970  -11.3990 N.pl3   1  UNL1       -0.2780
     25  H         22.6950  -23.3930  -12.1200 H       1  UNL1        0.1790
     26  C         24.6440  -22.6850  -11.7730 C.2     1  UNL1        0.0810
     27  C         25.8160  -23.1350  -11.1570 C.2     1  UNL1        0.0330
     28  C         27.0500  -22.5710  -11.4970 C.2     1  UNL1        0.0020
     29  C         27.1200  -21.5570  -12.4540 C.2     1  UNL1        0.0030
     30  C         25.9550  -21.1050  -13.0710 C.2     1  UNL1        0.0440
     31  C         24.7270  -21.6700  -12.7310 C.2     1  UNL1        0.1430
     32  F         23.6250  -21.1960  -13.3250 F       1  UNL1       -0.2040
@<TRIPOS>BOND
     1    32    31    1
     2    30    31    1
     3    30    29    2
     4    31    26    2
     5    29    28    1
     6    25    24    1
     7    26    24    1
     8    26    27    1
     9     5     4    2
    10     5     6    1
    11    28    27    2
    12     7     6    1
    13     4     3    1
    14    24    21    1
    15     6     1    2
    16     3    21    1
    17     3     2    2
    18     1     2    1
    19     1     8    1
    20    21    23    2
    21    21    22    2
    22    11     8    2
    23     8     9   am
    24     9    10    1
    25     9    12    1
    26    12    13    1
    27    13    18    2
    28    13    14    1
    29    18    17    1
    30    14    15    2
    31    20    19    1
    32    17    19    1
    33    17    16    2
    34    15    16    1
