@<TRIPOS>MOLECULE
40878_out_ligand_01.pdbqt
 29 32 0 0 0
SMALL
GASTEIGER

@<TRIPOS>ATOM
      1  C         20.1410  -22.5060   -7.8900 C.2     1  UNL1        0.2560
      2  O         21.1800  -22.1300   -7.3610 O.2     1  UNL1       -0.2670
      3  N         19.9210  -22.7080   -9.2400 N.am    1  UNL1       -0.3230
      4  H         19.0530  -23.1490   -9.5080 H       1  UNL1        0.1690
      5  C         20.8190  -22.4490  -10.3000 C.2     1  UNL1        0.0350
      6  C         20.3880  -21.5350  -11.2880 C.2     1  UNL1        0.0300
      7  C         21.1990  -21.1990  -12.3820 C.2     1  UNL1        0.0150
      8  C         22.4480  -21.7840  -12.4760 C.2     1  UNL1       -0.0190
      9  C         22.8810  -22.6920  -11.4900 C.2     1  UNL1       -0.0410
     10  C         23.4910  -21.6370  -13.4670 C.2     1  UNL1       -0.0190
     11  C         22.0850  -23.0300  -10.4040 C.2     1  UNL1        0.0380
     12  C         24.2750  -23.1910  -11.8110 C.2     1  UNL1        0.0780
     13  C         24.5820  -22.4580  -13.1010 C.2     1  UNL1       -0.0430
     14  C         25.7320  -22.5210  -13.8690 C.3     1  UNL1        0.0080
     15  C         25.7870  -21.7460  -15.0290 C.2     1  UNL1        0.0010
     16  C         24.7070  -20.9280  -15.4000 C.2     1  UNL1        0.0010
     17  C         23.5480  -20.8700  -14.6180 C.2     1  UNL1        0.0130
     18  C         18.9830  -22.8320   -7.0060 C.2     1  UNL1        0.0320
     19  C         18.2300  -24.0050   -7.1680 C.2     1  UNL1        0.0180
     20  C         17.1490  -24.2660   -6.3210 C.2     1  UNL1        0.0260
     21  C         16.8190  -23.3490   -5.3180 C.2     1  UNL1        0.0740
     22  C         17.5420  -22.1630   -5.1670 C.2     1  UNL1        0.0260
     23  C         18.6240  -21.9070   -6.0120 C.2     1  UNL1        0.0180
     24  S         15.4290  -23.6710   -4.2600 S.O2    1  UNL1        0.2390
     25  O         15.8780  -24.4830   -3.1540 O.2     1  UNL1       -0.2060
     26  O         14.3010  -24.0300   -5.0860 O.2     1  UNL1       -0.2060
     27  N         15.0940  -22.1310   -3.6680 N.3     1  UNL1       -0.2250
     28  H         15.3100  -22.0170   -2.6800 H       1  UNL1        0.1360
     29  H         15.5800  -21.4430   -4.2480 H       1  UNL1        0.1360
@<TRIPOS>BOND
     1    16    15    2
     2    16    17    1
     3    15    14    1
     4    17    10    2
     5    14    13    1
     6    10    13    1
     7    10     8    1
     8    13    12    2
     9     8     7    2
    10     8     9    1
    11     7     6    1
    12    12     9    1
    13     9    11    2
    14     6     5    2
    15    11     5    1
    16     5     3    1
    17     4     3    1
    18     3     1   am
    19     1     2    2
    20     1    18    1
    21    19    18    2
    22    19    20    1
    23    18    23    1
    24    20    21    2
    25    23    22    2
    26    21    22    1
    27    21    24    1
    28    26    24    2
    29    24    27    1
    30    24    25    2
    31    29    27    1
    32    27    28    1
