@<TRIPOS>MOLECULE
40870_out_ligand_01.pdbqt
 32 36 0 0 0
SMALL
GASTEIGER

@<TRIPOS>ATOM
      1  N         27.1210  -17.8520  -11.0250 N.1     1  UNL1       -0.1910
      2  C         26.8150  -18.8870  -11.4450 C.1     1  UNL1        0.1050
      3  C         26.4880  -20.1580  -11.9940 C.2     1  UNL1        0.1110
      4  C         27.0400  -20.7640  -13.1340 C.2     1  UNL1        0.1660
      5  N         26.5200  -21.9720  -13.3800 N.2     1  UNL1       -0.1750
      6  N         25.6140  -22.1440  -12.3760 N.pl3   1  UNL1       -0.1920
      7  C         24.8090  -23.2690  -12.1650 C.2     1  UNL1        0.1670
      8  C         23.9750  -23.3050  -11.1180 C.2     1  UNL1        0.0860
      9  C         23.9650  -22.0860  -10.2410 C.2     1  UNL1        0.0500
     10  N         24.7170  -21.0340  -10.4310 N.2     1  UNL1       -0.2310
     11  C         25.5620  -21.0560  -11.5070 C.2     1  UNL1        0.1760
     12  C         23.0260  -22.1030   -9.0480 C.3     1  UNL1        0.1400
     13  S         22.3570  -23.7790   -8.8170 S.3     1  UNL1       -0.1040
     14  C         20.6390  -23.3690   -8.9860 C.2     1  UNL1        0.0950
     15  C         19.7320  -23.7660   -8.0300 C.2     1  UNL1        0.0570
     16  C         18.4010  -23.3990   -8.2090 C.2     1  UNL1        0.0470
     17  C         18.0000  -22.6200   -9.3190 C.2     1  UNL1        0.0080
     18  C         16.6860  -22.1380   -9.5440 C.2     1  UNL1        0.0150
     19  C         19.0110  -22.3020  -10.2460 C.2     1  UNL1        0.0690
     20  C         16.3790  -21.4020  -10.6830 C.2     1  UNL1        0.0010
     21  C         17.3750  -21.1320  -11.6120 C.2     1  UNL1        0.0020
     22  C         18.6770  -21.5760  -11.3810 C.2     1  UNL1        0.0320
     23  N         20.2930  -22.6660  -10.0830 N.2     1  UNL1       -0.2410
     24  C         17.4520  -23.8620   -7.1750 C.2     1  UNL1        0.2530
     25  O         16.7580  -24.8460   -7.3980 O.2     1  UNL1       -0.2680
     26  N         17.3970  -23.0830   -6.0380 N.am    1  UNL1       -0.3520
     27  H         17.9490  -22.2380   -5.9930 H       1  UNL1        0.1630
     28  C         16.5080  -23.3720   -4.9620 C.3     1  UNL1        0.0840
     29  C         16.4890  -22.4970   -3.7400 C.3     1  UNL1        0.0270
     30  C         15.3250  -22.4840   -4.6860 C.3     1  UNL1        0.0270
     31  O         24.8970  -24.3420  -13.0400 O.2     1  UNL1       -0.3450
     32  H         25.6520  -24.1370  -13.6350 H       1  UNL1        0.2190
@<TRIPOS>BOND
     1    32    31    1
     2     5     4    2
     3     5     6    1
     4     4     3    1
     5    31     7    1
     6     6     7    1
     7     6    11    1
     8     7     8    2
     9     3    11    2
    10     3     2    1
    11    21    22    2
    12    21    20    1
    13    11    10    1
    14     2     1    3
    15    22    19    1
    16     8     9    1
    17    20    18    2
    18    10     9    2
    19    19    23    1
    20    19    17    2
    21     9    12    1
    22    23    14    2
    23    18    17    1
    24    17    16    1
    25    12    13    1
    26    14    13    1
    27    14    15    1
    28    16    15    2
    29    16    24    1
    30    25    24    2
    31    24    26   am
    32    26    27    1
    33    26    28    1
    34    28    30    1
    35    28    29    1
    36    30    29    1
