@<TRIPOS>MOLECULE
40888_out_ligand_01.pdbqt
 34 37 0 0 0
SMALL
GASTEIGER

@<TRIPOS>ATOM
      1  C         17.3610  -23.3140   -8.7880 C.2     1  UNL1        0.0820
      2  C         16.5990  -22.3690   -9.4650 C.2     1  UNL1        0.0260
      3  C         17.1950  -21.6160  -10.4740 C.2     1  UNL1        0.0100
      4  C         18.5490  -21.7960  -10.8070 C.2     1  UNL1       -0.0350
      5  C         19.1230  -20.9500  -11.9140 C.3     1  UNL1        0.0500
      6  C         19.3200  -22.7490  -10.1060 C.2     1  UNL1        0.0420
      7  C         18.7160  -23.4920   -9.0890 C.2     1  UNL1        0.0550
      8  N         20.6880  -22.9040  -10.4410 N.am    1  UNL1       -0.3220
      9  C         21.7820  -22.3950   -9.7660 C.2     1  UNL1        0.2570
     10  O         21.7930  -21.8150   -8.6890 O.2     1  UNL1       -0.2670
     11  H         20.8930  -23.4850  -11.2430 H       1  UNL1        0.1690
     12  C         23.0680  -22.6200  -10.4670 C.2     1  UNL1        0.0460
     13  C         24.0740  -23.2880   -9.7650 C.2     1  UNL1        0.0440
     14  C         25.2780  -23.5100  -10.4070 C.2     1  UNL1        0.0320
     15  C         26.3940  -24.2150   -9.7000 C.3     1  UNL1        0.0700
     16  N         25.5070  -23.1010  -11.6760 N.2     1  UNL1       -0.2530
     17  C         24.5290  -22.4780  -12.3570 C.2     1  UNL1        0.0680
     18  C         24.7870  -22.0850  -13.6640 C.2     1  UNL1        0.0320
     19  C         23.2660  -22.2000  -11.8020 C.2     1  UNL1        0.0080
     20  C         23.8310  -21.4280  -14.4400 C.2     1  UNL1        0.0020
     21  C         22.5840  -21.1470  -13.9030 C.2     1  UNL1        0.0010
     22  C         22.3010  -21.5250  -12.5910 C.2     1  UNL1        0.0150
     23  S         16.6210  -24.2650   -7.4800 S.O2    1  UNL1        0.2630
     24  O         15.5070  -25.0090   -8.0270 O.2     1  UNL1       -0.2000
     25  O         17.6960  -24.9500   -6.7870 O.2     1  UNL1       -0.2000
     26  N         16.0560  -23.0930   -6.4090 N.pl3   1  UNL1       -0.2810
     27  H         15.0910  -23.2610   -6.1340 H       1  UNL1        0.1790
     28  C         16.9250  -22.4710   -5.4710 C.2     1  UNL1        0.0430
     29  C         16.6550  -22.6520   -4.1150 C.2     1  UNL1        0.0300
     30  C         17.4790  -22.0690   -3.1530 C.2     1  UNL1        0.0030
     31  C         18.5720  -21.2960   -3.5470 C.2     1  UNL1        0.0070
     32  C         18.8360  -21.0890   -4.9070 C.2     1  UNL1       -0.0600
     33  C         20.0110  -20.2660   -5.3450 C.3     1  UNL1        0.0480
     34  C         18.0000  -21.6750   -5.8650 C.2     1  UNL1        0.0370
@<TRIPOS>BOND
     1    20    21    1
     2    20    18    2
     3    21    22    2
     4    18    17    1
     5    22    19    1
     6    17    19    1
     7    17    16    2
     8     5     4    1
     9    19    12    2
    10    16    14    1
    11    11     8    1
    12     4     3    2
    13     4     6    1
    14     3     2    1
    15    12     9    1
    16    12    13    1
    17     8     6    1
    18     8     9   am
    19    14    13    2
    20    14    15    1
    21     6     7    2
    22     9    10    2
    23     2     1    2
    24     7     1    1
    25     1    23    1
    26    24    23    2
    27    23    25    2
    28    23    26    1
    29    26    27    1
    30    26    28    1
    31    34    28    2
    32    34    32    1
    33    28    29    1
    34    33    32    1
    35    32    31    2
    36    29    30    2
    37    31    30    1
