@<TRIPOS>MOLECULE
40894_out_ligand_01.pdbqt
 36 39 0 0 0
SMALL
GASTEIGER

@<TRIPOS>ATOM
      1  C         22.2320  -23.3620   -8.7190 C.2     1  UNL1        0.0320
      2  C         21.7120  -22.2600   -8.0230 C.2     1  UNL1        0.0180
      3  C         20.3980  -22.2890   -7.5470 C.2     1  UNL1        0.0260
      4  C         19.6060  -23.4180   -7.7810 C.2     1  UNL1        0.0740
      5  C         20.1120  -24.5180   -8.4800 C.2     1  UNL1        0.0260
      6  C         21.4240  -24.4830   -8.9570 C.2     1  UNL1        0.0180
      7  C         23.6210  -23.3690   -9.2500 C.2     1  UNL1        0.2510
      8  O         24.4420  -24.1590   -8.7990 O.2     1  UNL1       -0.2680
      9  N         23.9020  -22.4440  -10.2300 N.am    1  UNL1       -0.3530
     10  H         23.1960  -21.7930  -10.5390 H       1  UNL1        0.1630
     11  C         25.1770  -22.4130  -10.9090 C.3     1  UNL1        0.1610
     12  C         24.9700  -22.2990  -12.3980 C.2     1  UNL1       -0.0380
     13  C         23.8340  -21.6470  -12.9030 C.2     1  UNL1        0.0120
     14  C         23.6440  -21.5160  -14.2790 C.2     1  UNL1        0.0400
     15  C         24.5900  -22.0300  -15.1620 C.2     1  UNL1        0.1020
     16  C         25.7430  -22.6490  -14.6690 C.2     1  UNL1        0.1020
     17  O         24.3310  -21.8810  -16.5010 O.2     1  UNL1       -0.3460
     18  C         25.9270  -22.7950  -13.2940 C.2     1  UNL1        0.0480
     19  O         26.7370  -23.1420  -15.4770 O.2     1  UNL1       -0.3460
     20  C         26.6160  -22.6400  -16.8140 C.3     1  UNL1        0.2020
     21  C         25.1760  -22.7250  -17.2920 C.3     1  UNL1        0.2020
     22  S         17.9350  -23.4790   -7.1780 S.O2    1  UNL1        0.2450
     23  O         17.5970  -22.1690   -6.6620 O.2     1  UNL1       -0.2060
     24  O         17.8130  -24.6800   -6.3820 O.2     1  UNL1       -0.2060
     25  N         17.0780  -23.6490   -8.6450 N.pl3   1  UNL1       -0.1810
     26  H         17.3080  -24.5750   -9.0120 H       1  UNL1        0.1460
     27  C         17.3830  -22.6350   -9.6090 C.2     1  UNL1        0.0230
     28  C         16.3810  -21.7900  -10.0870 C.2     1  UNL1        0.0240
     29  C         16.6820  -20.8410  -11.0630 C.2     1  UNL1        0.0030
     30  C         17.9810  -20.7460  -11.5680 C.2     1  UNL1        0.0160
     31  C         18.9930  -21.6020  -11.1030 C.2     1  UNL1        0.0490
     32  C         18.6760  -22.5590  -10.1260 C.2     1  UNL1        0.0400
     33  C         20.3880  -21.5210  -11.6700 C.3     1  UNL1        0.4170
     34  F         21.2160  -20.7340  -10.9270 F       1  UNL1       -0.1660
     35  F         21.0050  -22.7330  -11.7490 F       1  UNL1       -0.1660
     36  F         20.4110  -21.0040  -12.9290 F       1  UNL1       -0.1660
@<TRIPOS>BOND
     1    21    20    1
     2    21    17    1
     3    20    19    1
     4    17    15    1
     5    19    16    1
     6    15    16    2
     7    15    14    1
     8    16    18    1
     9    14    13    2
    10    18    12    2
    11    36    33    1
    12    13    12    1
    13    12    11    1
    14    35    33    1
    15    33    31    1
    16    33    34    1
    17    30    31    2
    18    30    29    1
    19    31    32    1
    20    29    28    2
    21    11     9    1
    22    10     9    1
    23     9     7   am
    24    32    27    2
    25    28    27    1
    26    27    25    1
    27     7     8    2
    28     7     1    1
    29    26    25    1
    30     6     1    2
    31     6     5    1
    32     1     2    1
    33    25    22    1
    34     5     4    2
    35     2     3    2
    36     4     3    1
    37     4    22    1
    38    22    23    2
    39    22    24    2
