@<TRIPOS>MOLECULE
40893_out_ligand_01.pdbqt
 30 33 0 0 0
SMALL
GASTEIGER

@<TRIPOS>ATOM
      1  C         20.0410  -21.7830  -11.3570 C.2     1  UNL1        0.0860
      2  C         19.1610  -20.7720  -11.6730 C.2     1  UNL1        0.0410
      3  C         17.9020  -21.1580  -11.1500 C.2     1  UNL1        0.0400
      4  C         18.0620  -22.3820  -10.5120 C.2     1  UNL1        0.0770
      5  O         19.3750  -22.7550  -10.6690 O.2     1  UNL1       -0.3100
      6  C         17.0750  -23.1750   -9.8740 C.2     1  UNL1        0.0550
      7  C         16.9180  -23.2950   -8.5470 C.2     1  UNL1        0.0470
      8  C         15.8860  -24.2760   -8.0480 C.2     1  UNL1        0.2570
      9  C         17.5430  -22.6900   -7.3640 C.2     1  UNL1        0.0060
     10  O         15.1280  -24.9580   -8.7100 O.2     1  UNL1       -0.2670
     11  N         15.9940  -24.2420   -6.6690 N.am    1  UNL1       -0.3220
     12  C         16.9510  -23.3180   -6.2580 C.2     1  UNL1        0.0480
     13  H         15.4150  -24.8050   -6.0650 H       1  UNL1        0.1690
     14  C         17.2790  -23.0120   -4.9520 C.2     1  UNL1        0.0540
     15  C         18.2360  -22.0190   -4.7570 C.2     1  UNL1        0.0360
     16 CL         18.6940  -21.5870   -3.1540 Cl      1  UNL1       -0.0840
     17  C         18.8250  -21.3550   -5.8460 C.2     1  UNL1        0.0250
     18  C         18.4700  -21.6840   -7.1610 C.2     1  UNL1        0.0160
     19  C         21.4650  -22.0190  -11.5910 C.2     1  UNL1       -0.0020
     20  C         22.0880  -21.5880  -12.7750 C.2     1  UNL1        0.0160
     21  C         23.4480  -21.8180  -13.0020 C.2     1  UNL1        0.0260
     22  C         24.2010  -22.4780  -12.0310 C.2     1  UNL1        0.0740
     23  C         23.6040  -22.9260  -10.8510 C.2     1  UNL1        0.0260
     24  C         22.2430  -22.6920  -10.6350 C.2     1  UNL1        0.0160
     25  S         25.9260  -22.7840  -12.3070 S.O2    1  UNL1        0.2390
     26  O         26.2900  -22.2240  -13.5850 O.2     1  UNL1       -0.2060
     27  O         26.6460  -22.4820  -11.0910 O.2     1  UNL1       -0.2060
     28  N         25.9510  -24.4620  -12.4460 N.3     1  UNL1       -0.2250
     29  H         26.2770  -24.7880  -13.3550 H       1  UNL1        0.1360
     30  H         25.0220  -24.8240  -12.2210 H       1  UNL1        0.1360
@<TRIPOS>BOND
     1    26    25    2
     2    29    28    1
     3    21    20    1
     4    21    22    2
     5    20    19    2
     6    28    25    1
     7    28    30    1
     8    25    22    1
     9    25    27    2
    10    22    23    1
    11     2     1    2
    12     2     3    1
    13    19     1    1
    14    19    24    1
    15     1     5    1
    16     3     4    2
    17    23    24    2
    18     5     4    1
    19     4     6    1
    20     6     7    2
    21    10     8    2
    22     7     8    1
    23     7     9    1
    24     8    11   am
    25     9    18    2
    26     9    12    1
    27    18    17    1
    28    11    12    1
    29    11    13    1
    30    12    14    2
    31    17    15    2
    32    14    15    1
    33    15    16    1
