@<TRIPOS>MOLECULE
4089_out_ligand_01.pdbqt
 37 40 0 0 0
SMALL
GASTEIGER

@<TRIPOS>ATOM
      1  C         20.2250  -22.1890  -10.0230 C.2     1  UNL1        0.1020
      2  C         21.6070  -22.2390   -9.8400 C.2     1  UNL1        0.0520
      3  C         22.1740  -23.3640   -9.2430 C.2     1  UNL1       -0.0150
      4  C         21.3610  -24.4150   -8.8090 C.2     1  UNL1        0.0160
      5  C         19.9780  -24.3660   -9.0140 C.2     1  UNL1        0.0400
      6  C         19.3990  -23.2590   -9.6420 C.2     1  UNL1        0.1020
      7  C         23.6340  -23.3820   -9.0260 C.2     1  UNL1        0.1440
      8  N         24.5970  -23.4490   -9.9010 N.2     1  UNL1       -0.2040
      9  N         24.2970  -23.2770  -11.2310 N.am    1  UNL1       -0.1320
     10  C         24.9270  -22.2600  -11.9750 C.2     1  UNL1        0.3180
     11  O         25.7110  -21.4490  -11.5010 O.2     1  UNL1       -0.2520
     12  N         24.4960  -22.3110  -13.2920 N.am    1  UNL1       -0.3120
     13  H         23.7280  -22.9410  -13.4690 H       1  UNL1        0.1700
     14  H         24.3070  -24.1650  -11.7230 H       1  UNL1        0.1600
     15  C         24.8870  -21.4770  -14.3590 C.2     1  UNL1        0.0360
     16  C         24.6040  -21.9240  -15.6540 C.2     1  UNL1        0.0310
     17  C         24.9600  -21.1540  -16.7630 C.2     1  UNL1        0.0220
     18  C         25.6080  -19.9280  -16.5890 C.2     1  UNL1        0.0170
     19 BR         26.0600  -18.9460  -18.1510 Br      1  UNL1       -0.0510
     20  C         25.9050  -19.4590  -15.3020 C.2     1  UNL1       -0.0430
     21  C         26.5930  -18.1440  -15.0620 C.3     1  UNL1        0.0490
     22  C         25.5390  -20.2520  -14.1940 C.2     1  UNL1        0.0370
     23  O         19.7180  -21.0930  -10.6780 O.2     1  UNL1       -0.3490
     24  C         19.6650  -21.3200  -12.0900 C.3     1  UNL1        0.1710
     25  C         21.0910  -21.2740  -12.6140 C.3     1  UNL1        0.0340
     26  O         18.0640  -23.1170   -9.9030 O.2     1  UNL1       -0.3440
     27  C         17.3290  -22.1830   -9.1110 C.3     1  UNL1        0.2150
     28  C         16.8960  -22.7870   -7.7820 C.2     1  UNL1       -0.0230
     29  C         15.9120  -23.7960   -7.7520 C.2     1  UNL1        0.0100
     30  C         15.4960  -24.3560   -6.5490 C.2     1  UNL1        0.0020
     31  C         16.0600  -23.9240   -5.3520 C.2     1  UNL1        0.0120
     32  C         17.0530  -22.9340   -5.3410 C.2     1  UNL1       -0.0250
     33  C         17.6130  -22.5210   -4.1210 C.2     1  UNL1        0.0120
     34  C         17.4890  -22.3530   -6.5600 C.2     1  UNL1       -0.0180
     35  C         18.6040  -21.5430   -4.0810 C.2     1  UNL1        0.0010
     36  C         19.0500  -20.9660   -5.2620 C.2     1  UNL1        0.0010
     37  C         18.5010  -21.3660   -6.4840 C.2     1  UNL1        0.0130
@<TRIPOS>BOND
     1    19    18    1
     2    17    18    2
     3    17    16    1
     4    18    20    1
     5    16    15    2
     6    20    21    1
     7    20    22    2
     8    15    22    1
     9    15    12    1
    10    13    12    1
    11    12    10   am
    12    25    24    1
    13    24    23    1
    14    10    11    2
    15    10     9   am
    16    14     9    1
    17     9     8    1
    18    23     1    1
    19     1     2    2
    20     1     6    1
    21    26     6    1
    22    26    27    1
    23     8     7    2
    24     2     3    1
    25     6     5    2
    26     3     7    1
    27     3     4    2
    28    27    28    1
    29     5     4    1
    30    28    29    2
    31    28    34    1
    32    29    30    1
    33    34    37    1
    34    34    32    2
    35    30    31    2
    36    37    36    2
    37    31    32    1
    38    32    33    1
    39    36    35    1
    40    33    35    2
