@<TRIPOS>MOLECULE
40900_out_ligand_01.pdbqt
 31 33 0 0 0
SMALL
GASTEIGER

@<TRIPOS>ATOM
      1  C         17.7540  -21.3980  -11.6280 C.3     1  UNL1        0.0500
      2  C         19.1800  -21.7550  -11.2960 C.2     1  UNL1       -0.0350
      3  C         20.2060  -21.1410  -12.0410 C.2     1  UNL1        0.0100
      4  C         21.5450  -21.4200  -11.7800 C.2     1  UNL1        0.0260
      5  C         21.8650  -22.3170  -10.7620 C.2     1  UNL1        0.0820
      6  C         20.8620  -22.9170   -9.9920 C.2     1  UNL1        0.0550
      7  C         19.5140  -22.6560  -10.2560 C.2     1  UNL1        0.0420
      8  S         23.5740  -22.6560  -10.4180 S.O2    1  UNL1        0.2630
      9  O         23.6670  -23.4910   -9.2410 O.2     1  UNL1       -0.2000
     10  O         24.2790  -21.3910  -10.4920 O.2     1  UNL1       -0.2000
     11  N         24.0710  -23.5350  -11.7550 N.pl3   1  UNL1       -0.2810
     12  H         23.9940  -24.5390  -11.6180 H       1  UNL1        0.1790
     13  C         24.9110  -23.0370  -12.7950 C.2     1  UNL1        0.0440
     14  C         26.2320  -23.5100  -12.8170 C.2     1  UNL1        0.0300
     15  C         27.1210  -23.1100  -13.8200 C.2     1  UNL1        0.0040
     16  C         26.6890  -22.2420  -14.8190 C.2     1  UNL1        0.0240
     17  C         25.3670  -21.7930  -14.8170 C.2     1  UNL1        0.0360
     18 CL         24.8340  -20.7290  -16.0610 Cl      1  UNL1       -0.0840
     19  C         24.4720  -22.1980  -13.8200 C.2     1  UNL1        0.0540
     20  N         18.4690  -23.2500   -9.5110 N.am    1  UNL1       -0.3260
     21  C         18.0460  -22.9330   -8.2300 C.2     1  UNL1        0.2260
     22  O         18.5920  -22.1330   -7.4730 O.2     1  UNL1       -0.2730
     23  H         17.9700  -24.0020   -9.9690 H       1  UNL1        0.1690
     24  C         16.8650  -23.7570   -7.7270 C.3     1  UNL1        0.1440
     25  C         16.2460  -23.2950   -6.4310 C.2     1  UNL1       -0.0110
     26  C         15.0730  -22.5270   -6.4260 C.2     1  UNL1        0.0110
     27  C         14.5200  -22.0950   -5.2180 C.2     1  UNL1        0.0010
     28  C         15.1300  -22.4260   -4.0060 C.2     1  UNL1        0.0030
     29  C         16.2920  -23.1960   -4.0020 C.2     1  UNL1        0.0430
     30  C         16.8350  -23.6270   -5.2070 C.2     1  UNL1        0.1230
     31  F         17.9550  -24.3630   -5.1860 F       1  UNL1       -0.2060
@<TRIPOS>BOND
     1    18    17    1
     2    16    17    2
     3    16    15    1
     4    17    19    1
     5    19    13    2
     6    15    14    2
     7    14    13    1
     8    13    11    1
     9     3     4    1
    10     3     2    2
    11     4     5    2
    12    11    12    1
    13    11     8    1
    14     1     2    1
    15     2     7    1
    16     5     8    1
    17     5     6    1
    18    10     8    2
    19     8     9    2
    20     7     6    2
    21     7    20    1
    22    23    20    1
    23    20    21   am
    24    21    24    1
    25    21    22    2
    26    24    25    1
    27    25    26    2
    28    25    30    1
    29    26    27    1
    30    27    28    2
    31    30    31    1
    32    30    29    2
    33    28    29    1
