@<TRIPOS>MOLECULE
40915_out_ligand_01.pdbqt
 34 36 0 0 0
SMALL
GASTEIGER

@<TRIPOS>ATOM
      1  C         19.9590  -23.1550   -8.7780 C.3     1  UNL1        0.1860
      2  N         20.1390  -22.2680   -7.6040 N.pl3   1  UNL1       -0.2760
      3  H         21.0580  -22.4820   -7.2020 H       1  UNL1        0.1290
      4  C         19.1460  -22.4540   -6.6220 C.2     1  UNL1        0.0090
      5  C         18.8360  -21.4160   -5.7380 C.2     1  UNL1        0.0240
      6  C         17.8130  -21.5590   -4.7960 C.2     1  UNL1        0.0190
      7  C         17.0800  -22.7500   -4.7370 C.2     1  UNL1        0.0310
      8  C         17.3690  -23.7810   -5.6380 C.2     1  UNL1        0.0190
      9  C         18.3960  -23.6330   -6.5730 C.2     1  UNL1        0.0240
     10  C         15.9760  -22.9520   -3.7610 C.2     1  UNL1        0.2490
     11  N         15.8890  -24.1730   -3.1530 N.am    1  UNL1       -0.3660
     12  H         16.3450  -24.9900   -3.5340 H       1  UNL1        0.1590
     13  H         15.0510  -24.3260   -2.6040 H       1  UNL1        0.1590
     14  O         15.1530  -22.0760   -3.5280 O.2     1  UNL1       -0.2680
     15  C         21.3420  -23.6260   -9.3230 C.2     1  UNL1        0.2440
     16  O         21.7340  -24.7820   -9.1490 O.2     1  UNL1       -0.2710
     17  N         22.0380  -22.6220   -9.9870 N.am    1  UNL1       -0.3260
     18  H         21.6420  -21.6910   -9.9320 H       1  UNL1        0.1690
     19  C         23.2800  -22.7300  -10.6440 C.2     1  UNL1        0.0350
     20  C         24.4670  -23.1080  -10.0150 C.2     1  UNL1        0.0290
     21  C         25.6570  -23.2030  -10.7420 C.2     1  UNL1        0.0030
     22  C         25.6730  -22.9200  -12.1060 C.2     1  UNL1        0.0160
     23  C         24.4950  -22.5340  -12.7580 C.2     1  UNL1        0.0500
     24  C         23.3020  -22.4500  -12.0180 C.2     1  UNL1        0.0450
     25  C         24.4860  -22.2350  -14.2360 C.3     1  UNL1        0.4170
     26  F         25.5200  -21.4470  -14.6410 F       1  UNL1       -0.1660
     27  F         23.3520  -21.5900  -14.6310 F       1  UNL1       -0.1660
     28  F         24.5530  -23.3640  -14.9940 F       1  UNL1       -0.1660
     29  C         19.1650  -22.4010   -9.8350 C.2     1  UNL1       -0.0310
     30  C         19.8020  -21.6110  -10.8070 C.2     1  UNL1        0.0090
     31  C         19.0540  -20.9340  -11.7720 C.2     1  UNL1        0.0010
     32  C         17.6640  -21.0250  -11.7700 C.2     1  UNL1        0.0000
     33  C         17.0170  -21.7850  -10.7980 C.2     1  UNL1        0.0010
     34  C         17.7610  -22.4660   -9.8330 C.2     1  UNL1        0.0090
@<TRIPOS>BOND
     1    28    25    1
     2    26    25    1
     3    27    25    1
     4    25    23    1
     5    23    22    2
     6    23    24    1
     7    22    21    1
     8    24    19    2
     9    31    32    2
    10    31    30    1
    11    32    33    1
    12    30    29    2
    13    33    34    2
    14    21    20    2
    15    19    20    1
    16    19    17    1
    17    17    18    1
    18    17    15   am
    19    29    34    1
    20    29     1    1
    21    15    16    2
    22    15     1    1
    23     1     2    1
    24     2     3    1
    25     2     4    1
    26     4     9    2
    27     4     5    1
    28     9     8    1
    29     5     6    2
    30     8     7    2
    31     6     7    1
    32     7    10    1
    33    10    14    2
    34    10    11   am
    35    12    11    1
    36    11    13    1
