@<TRIPOS>MOLECULE
40910_out_ligand_01.pdbqt
 33 36 0 0 0
SMALL
GASTEIGER

@<TRIPOS>ATOM
      1  C         21.3970  -22.3660   -9.6220 C.2     1  UNL1        0.0320
      2  C         21.1450  -22.7550   -8.2990 C.2     1  UNL1        0.0180
      3  C         19.8420  -23.0600   -7.8950 C.2     1  UNL1        0.0260
      4  C         18.7950  -22.9740   -8.8180 C.2     1  UNL1        0.0740
      5  C         19.0400  -22.6260  -10.1480 C.2     1  UNL1        0.0260
      6  C         20.3430  -22.3210  -10.5470 C.2     1  UNL1        0.0180
      7  C         22.7650  -22.0140  -10.0970 C.2     1  UNL1        0.2510
      8  O         23.3940  -21.1200   -9.5430 O.2     1  UNL1       -0.2680
      9  N         23.2640  -22.7710  -11.1360 N.am    1  UNL1       -0.3530
     10  H         22.7920  -23.6270  -11.3870 H       1  UNL1        0.1630
     11  C         24.6380  -22.6420  -11.5660 C.3     1  UNL1        0.1610
     12  C         24.7590  -22.9420  -13.0390 C.2     1  UNL1       -0.0380
     13  C         25.2200  -24.1930  -13.4820 C.2     1  UNL1        0.0120
     14  C         25.3490  -24.4550  -14.8480 C.2     1  UNL1        0.0400
     15  C         25.0240  -23.4720  -15.7790 C.2     1  UNL1        0.1020
     16  C         24.5970  -22.2130  -15.3480 C.2     1  UNL1        0.1020
     17  O         25.1560  -23.8090  -17.1030 O.2     1  UNL1       -0.3460
     18  C         24.4550  -21.9520  -13.9870 C.2     1  UNL1        0.0480
     19  O         24.2960  -21.1870  -16.2080 O.2     1  UNL1       -0.3460
     20  C         24.7850  -21.4470  -17.5270 C.3     1  UNL1        0.2020
     21  C         24.4720  -22.8740  -17.9460 C.3     1  UNL1        0.2020
     22  S         17.1310  -23.3470   -8.3050 S.O2    1  UNL1        0.2450
     23  O         16.2870  -23.2660   -9.4780 O.2     1  UNL1       -0.2060
     24  O         17.1720  -24.5430   -7.4890 O.2     1  UNL1       -0.2060
     25  N         16.7240  -22.0250   -7.3290 N.pl3   1  UNL1       -0.1780
     26  H         17.2450  -21.1930   -7.6140 H       1  UNL1        0.1460
     27  C         16.6250  -22.2340   -5.9180 C.2     1  UNL1        0.0610
     28  C         17.7570  -22.2150   -5.1060 C.2     1  UNL1        0.0270
     29  C         17.6240  -22.3770   -3.7250 C.2     1  UNL1        0.0020
     30  C         16.3600  -22.5550   -3.1540 C.2     1  UNL1        0.0030
     31  C         15.2250  -22.5730   -3.9640 C.2     1  UNL1        0.0440
     32  C         15.3660  -22.4130   -5.3390 C.2     1  UNL1        0.1380
     33  F         14.2730  -22.4210   -6.1170 F       1  UNL1       -0.2040
@<TRIPOS>BOND
     1    21    20    1
     2    21    17    1
     3    20    19    1
     4    17    15    1
     5    19    16    1
     6    15    16    2
     7    15    14    1
     8    16    18    1
     9    14    13    2
    10    18    12    2
    11    13    12    1
    12    12    11    1
    13    11     9    1
    14    10     9    1
    15     9     7   am
    16     6     5    1
    17     6     1    2
    18     5     4    2
    19     7     1    1
    20     7     8    2
    21     1     2    1
    22    23    22    2
    23     4    22    1
    24     4     3    1
    25    22    24    2
    26    22    25    1
    27     2     3    2
    28    26    25    1
    29    25    27    1
    30    33    32    1
    31    27    32    2
    32    27    28    1
    33    32    31    1
    34    28    29    2
    35    31    30    2
    36    29    30    1
