@<TRIPOS>MOLECULE
40912_out_ligand_01.pdbqt
 34 37 0 0 0
SMALL
GASTEIGER

@<TRIPOS>ATOM
      1  C         17.6130  -23.6130   -8.5530 C.2     1  UNL1        0.0810
      2  C         18.9870  -23.9010   -8.5140 C.2     1  UNL1        0.0420
      3  C         19.8470  -23.3550   -9.4710 C.2     1  UNL1        0.0330
      4  C         19.3350  -22.5130  -10.4630 C.2     1  UNL1        0.0170
      5  C         17.9660  -22.2360  -10.5060 C.2     1  UNL1        0.0090
      6  C         17.0840  -22.7720   -9.5520 C.2     1  UNL1       -0.0390
      7  C         15.6230  -22.4320   -9.6620 C.3     1  UNL1        0.0500
      8  C         21.2990  -23.6550   -9.3680 C.2     1  UNL1        0.2510
      9  O         21.6670  -24.6970   -8.8380 O.2     1  UNL1       -0.2680
     10  N         22.1580  -22.7200   -9.9000 N.am    1  UNL1       -0.3530
     11  H         21.8000  -21.8980  -10.3630 H       1  UNL1        0.1630
     12  C         23.5910  -22.8400   -9.7660 C.3     1  UNL1        0.1610
     13  C         24.2900  -22.1660  -10.9190 C.2     1  UNL1       -0.0380
     14  C         25.3660  -21.2980  -10.6800 C.2     1  UNL1        0.0120
     15  C         26.0090  -20.6540  -11.7390 C.2     1  UNL1        0.0400
     16  C         25.5780  -20.8710  -13.0460 C.2     1  UNL1        0.1020
     17  C         24.4830  -21.7050  -13.2920 C.2     1  UNL1        0.1020
     18  O         26.2700  -20.2270  -14.0380 O.2     1  UNL1       -0.3460
     19  C         23.8470  -22.3600  -12.2360 C.2     1  UNL1        0.0480
     20  O         23.9790  -21.9350  -14.5480 O.2     1  UNL1       -0.3460
     21  C         24.4840  -20.9890  -15.4960 C.3     1  UNL1        0.2020
     22  C         25.9830  -20.7970  -15.3200 C.3     1  UNL1        0.2020
     23  S         16.5790  -24.3500   -7.2910 S.O2    1  UNL1        0.2460
     24  O         17.4470  -24.9870   -6.3220 O.2     1  UNL1       -0.2060
     25  O         15.5190  -25.0790   -7.9500 O.2     1  UNL1       -0.2060
     26  N         15.9660  -22.9430   -6.5460 N.pl3   1  UNL1       -0.1810
     27  H         15.7680  -22.2630   -7.2820 H       1  UNL1        0.1460
     28  C         16.8310  -22.3850   -5.5480 C.2     1  UNL1        0.0230
     29  C         16.5760  -22.6290   -4.2000 C.2     1  UNL1        0.0240
     30  C         17.4280  -22.1060   -3.2280 C.2     1  UNL1        0.0020
     31  C         18.5430  -21.3540   -3.6080 C.2     1  UNL1        0.0070
     32  C         18.8240  -21.1320   -4.9640 C.2     1  UNL1       -0.0600
     33  C         20.0080  -20.3010   -5.3660 C.3     1  UNL1        0.0480
     34  C         17.9550  -21.6500   -5.9330 C.2     1  UNL1        0.0310
@<TRIPOS>BOND
     1    21    22    1
     2    21    20    1
     3    22    18    1
     4    20    17    1
     5    18    16    1
     6    17    16    2
     7    17    19    1
     8    16    15    1
     9    19    13    2
    10    15    14    2
    11    13    14    1
    12    13    12    1
    13     5     4    2
    14     5     6    1
    15     4     3    1
    16    11    10    1
    17    10    12    1
    18    10     8   am
    19     7     6    1
    20     6     1    2
    21     3     8    1
    22     3     2    2
    23     8     9    2
    24     1     2    1
    25     1    23    1
    26    25    23    2
    27    23    26    1
    28    23    24    2
    29    27    26    1
    30    26    28    1
    31    34    28    2
    32    34    32    1
    33    28    29    1
    34    33    32    1
    35    32    31    2
    36    29    30    2
    37    31    30    1
