@<TRIPOS>MOLECULE
40924_out_ligand_01.pdbqt
 27 30 0 0 0
SMALL
GASTEIGER

@<TRIPOS>ATOM
      1  C         19.2890  -21.9070  -10.7410 C.2     1  UNL1        0.0350
      2  C         18.0330  -21.4710  -11.1920 C.2     1  UNL1        0.0170
      3  C         16.8650  -21.9400  -10.5820 C.2     1  UNL1        0.0040
      4  C         16.9450  -22.8310   -9.5130 C.2     1  UNL1        0.0370
      5  C         18.1980  -23.2250   -9.0450 C.2     1  UNL1        0.0790
      6  C         19.3700  -22.7850   -9.6540 C.2     1  UNL1        0.0540
      7  C         20.5590  -21.4440  -11.3700 C.2     1  UNL1        0.2560
      8  N         21.6820  -22.1730  -11.0210 N.am    1  UNL1       -0.3230
      9  H         21.5720  -22.8740  -10.3010 H       1  UNL1        0.1690
     10  O         20.5170  -20.4570  -12.0930 O.2     1  UNL1       -0.2670
     11  C         23.0000  -21.9910  -11.4920 C.2     1  UNL1        0.0350
     12  C         23.3740  -22.1080  -12.8300 C.2     1  UNL1        0.0300
     13  C         24.7080  -21.9170  -13.2140 C.2     1  UNL1        0.0090
     14  C         25.6860  -21.5980  -12.2670 C.2     1  UNL1       -0.0620
     15  C         27.1170  -21.4280  -12.6790 C.3     1  UNL1        0.0480
     16  C         25.3140  -21.4980  -10.9230 C.2     1  UNL1        0.0090
     17  C         23.9830  -21.6900  -10.5410 C.2     1  UNL1        0.0300
     18  O         18.3110  -24.1390   -7.9890 O.2     1  UNL1       -0.2910
     19  C         17.7630  -23.7540   -6.7750 C.2     1  UNL1        0.1900
     20  C         18.4800  -22.5300   -6.3300 C.2     1  UNL1        0.0640
     21  C         18.0930  -21.9970   -5.1630 C.2     1  UNL1        0.0590
     22  C         17.0520  -22.6250   -4.4470 C.ar    1  UNL1        0.1840
     23  N         16.4570  -22.3790   -3.3030 N.ar    1  UNL1       -0.1410
     24  N         16.4870  -23.7570   -5.0030 N.ar    1  UNL1       -0.1370
     25  N         15.5160  -23.3730   -3.1530 N.ar    1  UNL1        0.0200
     26  N         15.5330  -24.2150   -4.1810 N.ar    1  UNL1        0.0200
     27  N         16.8040  -24.3710   -6.1670 N.2     1  UNL1       -0.1260
@<TRIPOS>BOND
     1    13    12    1
     2    13    14    2
     3    12    11    2
     4    15    14    1
     5    14    16    1
     6    10     7    2
     7    11     8    1
     8    11    17    1
     9     7     8   am
    10     7     1    1
    11     2     1    2
    12     2     3    1
    13     8     9    1
    14    16    17    2
    15     1     6    1
    16     3     4    2
    17     6     5    2
    18     4     5    1
    19     5    18    1
    20    18    19    1
    21    19    20    1
    22    19    27    2
    23    20    21    2
    24    27    24    1
    25    21    22    1
    26    24    22   ar
    27    24    26   ar
    28    22    23   ar
    29    26    25   ar
    30    23    25   ar
