@<TRIPOS>MOLECULE
40927_out_ligand_01.pdbqt
 32 34 0 0 0
SMALL
GASTEIGER

@<TRIPOS>ATOM
      1  C         19.5210  -22.7280  -10.1310 C.2     1  UNL1        0.0420
      2  C         18.7040  -23.2870   -9.1430 C.2     1  UNL1        0.0540
      3  C         17.3530  -22.9330   -9.0580 C.2     1  UNL1        0.0770
      4  C         16.8000  -22.0010   -9.9320 C.2     1  UNL1        0.0250
      5  C         17.6120  -21.4220  -10.9050 C.2     1  UNL1        0.0100
      6  C         18.9710  -21.7730  -11.0160 C.2     1  UNL1       -0.0350
      7  C         19.7910  -21.1070  -12.0890 C.3     1  UNL1        0.0500
      8  N         20.8850  -23.0740  -10.2600 N.am    1  UNL1       -0.3260
      9  C         21.9450  -22.6740   -9.4620 C.2     1  UNL1        0.2260
     10  O         21.8560  -22.0220   -8.4230 O.2     1  UNL1       -0.2730
     11  H         21.1190  -23.6920  -11.0280 H       1  UNL1        0.1690
     12  C         23.3010  -23.1930   -9.9290 C.3     1  UNL1        0.1410
     13  C         23.9380  -22.3870  -11.0380 C.2     1  UNL1       -0.0470
     14  C         25.0730  -21.6040  -10.7850 C.2     1  UNL1        0.0070
     15  C         25.6640  -20.8750  -11.8150 C.2     1  UNL1        0.0030
     16  C         25.1250  -20.9210  -13.1010 C.2     1  UNL1        0.0370
     17  C         23.9920  -21.6930  -13.3700 C.2     1  UNL1        0.0680
     18  C         23.3960  -22.4150  -12.3370 C.2     1  UNL1        0.0440
     19  O         23.5700  -21.6530  -14.6710 O.2     1  UNL1       -0.3560
     20  C         24.4940  -22.0850  -15.6610 C.3     1  UNL1        0.2100
     21  S         16.3570  -23.6630   -7.7820 S.O2    1  UNL1        0.2450
     22  O         15.6490  -22.5900   -7.1170 O.2     1  UNL1       -0.2060
     23  O         15.6630  -24.7980   -8.3530 O.2     1  UNL1       -0.2060
     24  N         17.5680  -24.2240   -6.7160 N.pl3   1  UNL1       -0.1810
     25  H         18.4070  -24.4230   -7.2650 H       1  UNL1        0.1460
     26  C         17.8460  -23.3310   -5.6280 C.2     1  UNL1        0.0240
     27  C         17.4330  -23.6680   -4.3380 C.2     1  UNL1        0.0240
     28  C         17.6640  -22.7900   -3.2790 C.2     1  UNL1        0.0030
     29  C         18.2980  -21.5700   -3.5120 C.2     1  UNL1        0.0240
     30  C         18.6920  -21.2320   -4.8080 C.2     1  UNL1        0.0350
     31 CL         19.4670  -19.7230   -5.0950 Cl      1  UNL1       -0.0840
     32  C         18.4630  -22.1040   -5.8710 C.2     1  UNL1        0.0480
@<TRIPOS>BOND
     1    20    19    1
     2    19    17    1
     3    17    16    2
     4    17    18    1
     5    16    15    1
     6    18    13    2
     7     7     6    1
     8    15    14    2
     9    13    14    1
    10    13    12    1
    11    11     8    1
    12     6     5    1
    13     6     1    2
    14     5     4    2
    15     8     1    1
    16     8     9   am
    17     1     2    1
    18     4     3    1
    19    12     9    1
    20     9    10    2
    21     2     3    2
    22     3    21    1
    23    23    21    2
    24    21    22    2
    25    21    24    1
    26    25    24    1
    27    24    26    1
    28    32    26    2
    29    32    30    1
    30    26    27    1
    31    31    30    1
    32    30    29    2
    33    27    28    2
    34    29    28    1
