@<TRIPOS>MOLECULE
40933_out_ligand_01.pdbqt
 33 35 0 0 0
SMALL
GASTEIGER

@<TRIPOS>ATOM
      1  C         18.0110  -22.5930   -9.7070 C.2     1  UNL1        0.0750
      2  C         17.7870  -21.8550  -10.8700 C.2     1  UNL1        0.0250
      3  C         18.8620  -21.5250  -11.6960 C.2     1  UNL1        0.0090
      4  C         20.1720  -21.9210  -11.3680 C.2     1  UNL1       -0.0460
      5  C         21.2940  -21.4880  -12.2690 C.3     1  UNL1        0.0490
      6  C         20.3750  -22.6970  -10.2080 C.2     1  UNL1        0.0390
      7  C         19.2970  -23.0100   -9.3650 C.2     1  UNL1        0.0420
      8  C         21.7040  -23.2130   -9.7860 C.2     1  UNL1        0.2520
      9  O         21.7810  -24.2980   -9.2240 O.2     1  UNL1       -0.2680
     10  N         22.7970  -22.4520  -10.1650 N.am    1  UNL1       -0.3540
     11  H         22.6310  -21.7540  -10.8750 H       1  UNL1        0.1620
     12  C         24.1260  -23.0390  -10.0730 C.3     1  UNL1        0.1520
     13  C         25.2010  -22.5780  -11.1260 C.3     1  UNL1        0.0360
     14  C         25.4360  -21.0730  -10.8130 C.3     1  UNL1        0.0390
     15  C         26.5460  -23.3020  -10.8960 C.3     1  UNL1        0.0390
     16  N         24.6990  -22.7410  -12.5140 N.3     1  UNL1       -0.3990
     17  C         24.7720  -21.5720  -13.4080 C.3     1  UNL1        0.1440
     18  C         24.2560  -21.9280  -14.8120 C.3     1  UNL1        0.1870
     19  O         25.0500  -22.9150  -15.4780 O.3     1  UNL1       -0.3880
     20  C         25.7690  -23.7550  -14.5690 C.3     1  UNL1        0.1870
     21  C         25.0500  -23.9810  -13.2250 C.3     1  UNL1        0.1440
     22  S         16.6370  -22.9570   -8.6420 S.O2    1  UNL1        0.2450
     23  O         15.7420  -23.8170   -9.3830 O.2     1  UNL1       -0.2060
     24  O         16.1960  -21.7200   -8.0320 O.2     1  UNL1       -0.2060
     25  N         17.4330  -23.8260   -7.4030 N.pl3   1  UNL1       -0.1810
     26  H         18.4310  -23.6420   -7.5320 H       1  UNL1        0.1460
     27  C         17.0320  -23.4380   -6.0810 C.2     1  UNL1        0.0230
     28  C         15.8190  -23.8800   -5.5510 C.2     1  UNL1        0.0240
     29  C         15.4690  -23.5320   -4.2470 C.2     1  UNL1        0.0020
     30  C         16.3360  -22.7600   -3.4710 C.2     1  UNL1        0.0070
     31  C         17.5710  -22.3430   -3.9860 C.2     1  UNL1       -0.0600
     32  C         18.4960  -21.5060   -3.1530 C.3     1  UNL1        0.0480
     33  C         17.9100  -22.6840   -5.3030 C.2     1  UNL1        0.0310
@<TRIPOS>BOND
     1    19    18    1
     2    19    20    1
     3    18    17    1
     4    20    21    1
     5    17    16    1
     6    21    16    1
     7    16    13    1
     8     5     4    1
     9     3     4    2
    10     3     2    1
    11     4     6    1
    12    13    15    1
    13    13    14    1
    14    13    12    1
    15    11    10    1
    16     2     1    2
    17     6     8    1
    18     6     7    2
    19    10    12    1
    20    10     8   am
    21     8     9    2
    22     1     7    1
    23     1    22    1
    24    23    22    2
    25    22    24    2
    26    22    25    1
    27    26    25    1
    28    25    27    1
    29    27    28    2
    30    27    33    1
    31    28    29    1
    32    33    31    2
    33    29    30    2
    34    31    30    1
    35    31    32    1
