@<TRIPOS>MOLECULE
40945_out_ligand_01.pdbqt
 33 35 0 0 0
SMALL
GASTEIGER

@<TRIPOS>ATOM
      1  C         20.7580  -22.4880   -7.6580 C.2     1  UNL1        0.0320
      2  C         20.3360  -21.4760   -6.7810 C.2     1  UNL1        0.0180
      3  C         19.1470  -21.6220   -6.0600 C.2     1  UNL1        0.0260
      4  C         18.3730  -22.7780   -6.2190 C.2     1  UNL1        0.0740
      5  C         18.7610  -23.7770   -7.1120 C.2     1  UNL1        0.0260
      6  C         19.9570  -23.6310   -7.8230 C.2     1  UNL1        0.0180
      7  S         16.8450  -22.9230   -5.3240 S.O2    1  UNL1        0.2450
      8  O         16.8940  -22.0580   -4.1680 O.2     1  UNL1       -0.2060
      9  O         16.5670  -24.3390   -5.1960 O.2     1  UNL1       -0.2060
     10  N         15.7210  -22.3340   -6.4460 N.pl3   1  UNL1       -0.1810
     11  H         15.5450  -21.3490   -6.2670 H       1  UNL1        0.1460
     12  C         15.8770  -22.7190   -7.8080 C.2     1  UNL1        0.0230
     13  C         15.3470  -23.9220   -8.2700 C.2     1  UNL1        0.0240
     14  C         15.5660  -24.3210   -9.5950 C.2     1  UNL1        0.0030
     15  C         16.3220  -23.5150  -10.4540 C.2     1  UNL1        0.0160
     16  C         16.8620  -22.2960   -9.9980 C.2     1  UNL1        0.0490
     17  C         16.6380  -21.9150   -8.6620 C.2     1  UNL1        0.0400
     18  C         17.7050  -21.4330  -10.9040 C.3     1  UNL1        0.4170
     19  F         17.9140  -21.9810  -12.1350 F       1  UNL1       -0.1660
     20  F         18.9410  -21.1880  -10.3890 F       1  UNL1       -0.1660
     21  F         17.1470  -20.2110  -11.1340 F       1  UNL1       -0.1660
     22  C         22.0210  -22.3940   -8.4540 C.2     1  UNL1        0.2510
     23  O         22.8320  -21.5070   -8.2080 O.2     1  UNL1       -0.2680
     24  N         22.1990  -23.3190   -9.4650 N.am    1  UNL1       -0.3530
     25  H         21.4900  -23.9980   -9.6870 H       1  UNL1        0.1630
     26  C         23.3820  -23.3190  -10.3010 C.3     1  UNL1        0.1610
     27  C         23.1120  -22.5570  -11.5700 C.2     1  UNL1       -0.0390
     28  C         21.8340  -22.0280  -11.8410 C.2     1  UNL1        0.0090
     29  C         21.6050  -21.2840  -13.0040 C.2     1  UNL1        0.0020
     30  C         22.6520  -21.0590  -13.8990 C.2     1  UNL1        0.0240
     31  C         23.9160  -21.5730  -13.6360 C.2     1  UNL1        0.0340
     32 CL         25.2050  -21.2720  -14.7330 Cl      1  UNL1       -0.0840
     33  C         24.1530  -22.3160  -12.4780 C.2     1  UNL1        0.0320
@<TRIPOS>BOND
     1    32    31    1
     2    30    31    2
     3    30    29    1
     4    31    33    1
     5    29    28    2
     6    33    27    2
     7    19    18    1
     8    28    27    1
     9    27    26    1
    10    21    18    1
    11    18    20    1
    12    18    16    1
    13    15    16    2
    14    15    14    1
    15    26    24    1
    16    16    17    1
    17    25    24    1
    18    14    13    2
    19    24    22   am
    20    17    12    2
    21    22    23    2
    22    22     1    1
    23    13    12    1
    24     6     1    2
    25     6     5    1
    26    12    10    1
    27     1     2    1
    28     5     4    2
    29     2     3    2
    30    10    11    1
    31    10     7    1
    32     4     3    1
    33     4     7    1
    34     7     9    2
    35     7     8    2
