@<TRIPOS>MOLECULE
40947_out_ligand_01.pdbqt
 36 38 0 0 0
SMALL
GASTEIGER

@<TRIPOS>ATOM
      1  C         21.8250  -22.3870  -10.8650 C.2     1  UNL1        0.0860
      2  C         20.4480  -22.4010  -10.5800 C.2     1  UNL1        0.0420
      3  C         19.5330  -21.7800  -11.4360 C.2     1  UNL1        0.0330
      4  C         19.9970  -21.1490  -12.5930 C.2     1  UNL1        0.0170
      5  C         21.3640  -21.1590  -12.8960 C.2     1  UNL1        0.0090
      6  C         22.2980  -21.7830  -12.0460 C.2     1  UNL1       -0.0390
      7  C         23.7480  -21.7500  -12.4430 C.3     1  UNL1        0.0500
      8  C         18.0990  -21.7640  -11.0340 C.2     1  UNL1        0.2510
      9  O         17.3840  -20.8320  -11.3890 O.2     1  UNL1       -0.2680
     10  N         17.6630  -22.8100  -10.2510 N.am    1  UNL1       -0.3530
     11  H         18.3330  -23.4390   -9.8270 H       1  UNL1        0.1630
     12  C         16.2900  -22.9050   -9.8020 C.3     1  UNL1        0.1610
     13  C         16.1910  -23.1320   -8.3110 C.2     1  UNL1       -0.0400
     14  C         16.7890  -24.2530   -7.7100 C.2     1  UNL1        0.0100
     15  C         16.7340  -24.4350   -6.3270 C.2     1  UNL1        0.0250
     16  C         16.0840  -23.4850   -5.5320 C.2     1  UNL1        0.0740
     17  C         15.5050  -22.3510   -6.1070 C.2     1  UNL1        0.0250
     18  C         15.5570  -22.1790   -7.4930 C.2     1  UNL1        0.0100
     19  S         16.0460  -23.6750   -3.7750 S.O2    1  UNL1        0.2390
     20  O         15.8560  -22.3860   -3.1530 O.2     1  UNL1       -0.2060
     21  O         15.2350  -24.8240   -3.4450 O.2     1  UNL1       -0.2060
     22  N         17.6340  -24.1110   -3.4370 N.3     1  UNL1       -0.2250
     23  H         17.6630  -25.0900   -3.1490 H       1  UNL1        0.1360
     24  H         18.2280  -23.9010   -4.2390 H       1  UNL1        0.1360
     25  S         22.8940  -23.1690   -9.6600 S.O2    1  UNL1        0.2630
     26  O         24.2230  -23.3320  -10.2080 O.2     1  UNL1       -0.2000
     27  O         22.1550  -24.3010   -9.1420 O.2     1  UNL1       -0.2000
     28  N         22.9750  -22.0500   -8.4050 N.pl3   1  UNL1       -0.2810
     29  H         23.9170  -21.9230   -8.0370 H       1  UNL1        0.1790
     30  C         21.8640  -21.7800   -7.5590 C.2     1  UNL1        0.0420
     31  C         20.6780  -22.5100   -7.6220 C.2     1  UNL1        0.0300
     32  C         19.6020  -22.1780   -6.7920 C.2     1  UNL1        0.0090
     33  C         19.6970  -21.1010   -5.9000 C.2     1  UNL1       -0.0620
     34  C         18.5450  -20.7230   -5.0150 C.3     1  UNL1        0.0480
     35  C         20.8840  -20.3600   -5.8530 C.2     1  UNL1        0.0090
     36  C         21.9610  -20.6990   -6.6780 C.2     1  UNL1        0.0300
@<TRIPOS>BOND
     1     5     4    2
     2     5     6    1
     3     4     3    1
     4     7     6    1
     5     6     1    2
     6     3     8    1
     7     3     2    2
     8     9     8    2
     9     8    10   am
    10     1     2    1
    11     1    25    1
    12    10    11    1
    13    10    12    1
    14    26    25    2
    15    12    13    1
    16    25    27    2
    17    25    28    1
    18    28    29    1
    19    28    30    1
    20    13    14    2
    21    13    18    1
    22    14    15    1
    23    31    30    2
    24    31    32    1
    25    30    36    1
    26    18    17    2
    27    32    33    2
    28    36    35    2
    29    15    16    2
    30    17    16    1
    31    33    35    1
    32    33    34    1
    33    16    19    1
    34    24    22    1
    35    19    21    2
    36    19    22    1
    37    19    20    2
    38    22    23    1
