@<TRIPOS>MOLECULE
40959_out_ligand_01.pdbqt
 30 32 0 0 0
SMALL
GASTEIGER

@<TRIPOS>ATOM
      1  N         22.6020  -22.9150  -10.6990 N.am    1  UNL1       -0.3270
      2  C         22.5070  -22.1660   -9.5360 C.2     1  UNL1        0.2260
      3  O         23.0080  -21.0610   -9.3460 O.2     1  UNL1       -0.2730
      4  H         22.2070  -23.8480  -10.6700 H       1  UNL1        0.1690
      5  C         21.6370  -22.8110   -8.4630 C.3     1  UNL1        0.1440
      6  C         20.1860  -22.7940   -8.8030 C.2     1  UNL1       -0.0140
      7  C         19.6300  -22.8870  -10.0640 C.2     1  UNL1        0.1510
      8  O         18.2760  -22.8120  -10.0060 O.2     1  UNL1       -0.3210
      9  C         17.9410  -22.6770   -8.6950 C.2     1  UNL1        0.0860
     10  C         16.6470  -22.5550   -8.2010 C.2     1  UNL1        0.0450
     11  C         19.0790  -22.6670   -7.9050 C.2     1  UNL1        0.0070
     12  C         16.4930  -22.4120   -6.8060 C.2     1  UNL1       -0.0530
     13  C         15.0900  -22.2730   -6.2730 C.3     1  UNL1        0.0490
     14  C         17.6240  -22.4120   -5.9510 C.2     1  UNL1       -0.0480
     15  C         18.9200  -22.5300   -6.5140 C.2     1  UNL1        0.0230
     16  C         17.4830  -22.2580   -4.4380 C.3     1  UNL1        0.0110
     17  C         18.4950  -21.2410   -3.9030 C.3     1  UNL1        0.0150
     18  C         17.6050  -23.5900   -3.6890 C.3     1  UNL1        0.0150
     19  C         23.2560  -22.5670  -11.8980 C.2     1  UNL1        0.0340
     20  C         24.5220  -23.0330  -12.2630 C.2     1  UNL1        0.0310
     21  C         25.1080  -22.6270  -13.4670 C.2     1  UNL1        0.0270
     22  C         24.4180  -21.7590  -14.3140 C.2     1  UNL1        0.0790
     23  C         23.1600  -21.2740  -13.9580 C.2     1  UNL1        0.0270
     24  C         22.5830  -21.6810  -12.7530 C.2     1  UNL1        0.0310
     25  S         25.1770  -21.2400  -15.8340 S.O2    1  UNL1        0.2580
     26  O         26.5040  -21.8090  -15.8900 O.2     1  UNL1       -0.2010
     27  O         24.2140  -21.4350  -16.8940 O.2     1  UNL1       -0.2010
     28  N         25.3270  -19.5860  -15.6170 N.3     1  UNL1       -0.3200
     29  C         26.1350  -19.0670  -14.5250 C.3     1  UNL1        0.1590
     30  H         24.5290  -19.0450  -15.9470 H       1  UNL1        0.1710
@<TRIPOS>BOND
     1    27    25    2
     2    30    28    1
     3    26    25    2
     4    25    28    1
     5    25    22    1
     6    28    29    1
     7    22    23    2
     8    22    21    1
     9    23    24    1
    10    21    20    2
    11    24    19    2
    12    20    19    1
    13    19     1    1
    14     1     4    1
    15     1     2   am
    16     7     8    1
    17     7     6    2
    18     8     9    1
    19     2     3    2
    20     2     5    1
    21     6     5    1
    22     6    11    1
    23     9    10    2
    24     9    11    1
    25    10    12    1
    26    11    15    2
    27    12    13    1
    28    12    14    2
    29    15    14    1
    30    14    16    1
    31    16    17    1
    32    16    18    1
