@<TRIPOS>MOLECULE
40962_out_ligand_01.pdbqt
 32 35 0 0 0
SMALL
GASTEIGER

@<TRIPOS>ATOM
      1  C         19.1620  -22.1620  -10.1960 C.2     1  UNL1        0.0330
      2  C         18.9020  -21.4040  -11.3460 C.2     1  UNL1        0.0170
      3  C         19.9590  -20.9730  -12.1520 C.2     1  UNL1        0.0030
      4  C         21.2720  -21.3080  -11.8200 C.2     1  UNL1        0.0250
      5  C         21.5220  -22.0870  -10.6850 C.2     1  UNL1        0.0800
      6  C         20.4750  -22.5080   -9.8620 C.2     1  UNL1        0.0420
      7  S         23.1960  -22.4920  -10.2490 S.O2    1  UNL1        0.2630
      8  O         23.9600  -21.2610  -10.3020 O.2     1  UNL1       -0.2000
      9  O         23.1790  -23.3040   -9.0540 O.2     1  UNL1       -0.2000
     10  N         23.7130  -23.4120  -11.5720 N.pl3   1  UNL1       -0.2810
     11  H         22.9500  -24.0020  -11.9070 H       1  UNL1        0.1790
     12  C         24.5080  -22.7650  -12.5590 C.2     1  UNL1        0.0450
     13  C         25.9040  -22.7130  -12.3950 C.2     1  UNL1        0.0330
     14  C         26.7010  -22.0440  -13.3280 C.2     1  UNL1        0.0420
     15  C         26.0690  -21.4470  -14.3980 C.2     1  UNL1        0.1050
     16  C         24.7040  -21.4970  -14.5520 C.2     1  UNL1        0.1070
     17  O         26.6810  -20.7570  -15.3970 O.2     1  UNL1       -0.3230
     18  C         23.8900  -22.1470  -13.6480 C.2     1  UNL1        0.0690
     19  O         24.2840  -20.8420  -15.6690 O.2     1  UNL1       -0.3230
     20  C         25.5410  -20.3540  -16.1850 C.3     1  UNL1        0.3520
     21  C         18.0560  -22.6570   -9.3330 C.2     1  UNL1        0.2560
     22  O         17.1160  -23.2240   -9.8730 O.2     1  UNL1       -0.2670
     23  N         18.2360  -22.4360   -7.9800 N.am    1  UNL1       -0.3230
     24  H         19.1310  -22.0590   -7.6930 H       1  UNL1        0.1690
     25  C         17.3420  -22.7640   -6.9380 C.2     1  UNL1        0.0380
     26  C         17.8090  -23.6460   -5.9510 C.2     1  UNL1        0.0320
     27  C         16.9900  -24.0180   -4.8810 C.2     1  UNL1        0.0480
     28  C         15.7020  -23.5070   -4.7960 C.2     1  UNL1        0.1540
     29  F         14.9190  -23.8640   -3.7690 F       1  UNL1       -0.2030
     30  C         15.2330  -22.6320   -5.7670 C.2     1  UNL1        0.1570
     31  F         13.9900  -22.1380   -5.6780 F       1  UNL1       -0.2030
     32  C         16.0430  -22.2570   -6.8370 C.2     1  UNL1        0.0750
@<TRIPOS>BOND
     1    20    19    1
     2    20    17    1
     3    19    16    1
     4    17    15    1
     5    16    15    2
     6    16    18    1
     7    15    14    1
     8    18    12    2
     9    14    13    2
    10    12    13    1
    11    12    10    1
    12     3     4    2
    13     3     2    1
    14    11    10    1
    15     4     5    1
    16    10     7    1
    17     2     1    2
    18     5     7    1
    19     5     6    2
    20     8     7    2
    21     7     9    2
    22     1     6    1
    23     1    21    1
    24    22    21    2
    25    21    23   am
    26    23    24    1
    27    23    25    1
    28    25    32    2
    29    25    26    1
    30    32    30    1
    31    26    27    2
    32    30    31    1
    33    30    28    2
    34    27    28    1
    35    28    29    1
