@<TRIPOS>MOLECULE
40975_out_ligand_01.pdbqt
 30 32 0 0 0
SMALL
GASTEIGER

@<TRIPOS>ATOM
      1  C         19.4400  -22.3280  -10.5210 C.2     1  UNL1        0.0330
      2  C         18.7980  -21.5150  -11.4680 C.2     1  UNL1        0.0170
      3  C         17.4310  -21.2500  -11.3500 C.2     1  UNL1        0.0030
      4  C         16.7040  -21.7820  -10.2860 C.2     1  UNL1        0.0250
      5  C         17.3550  -22.5660   -9.3280 C.2     1  UNL1        0.0750
      6  C         18.7190  -22.8500   -9.4420 C.2     1  UNL1        0.0410
      7  C         20.8960  -22.6260  -10.6100 C.2     1  UNL1        0.2560
      8  O         21.3320  -23.5660   -9.9590 O.2     1  UNL1       -0.2670
      9  N         21.6060  -21.8060  -11.4670 N.am    1  UNL1       -0.3230
     10  H         21.0680  -21.1640  -12.0360 H       1  UNL1        0.1690
     11  C         22.9960  -21.8320  -11.7160 C.2     1  UNL1        0.0360
     12  C         23.8430  -21.6880  -10.6060 C.2     1  UNL1        0.0320
     13  C         25.2320  -21.7090  -10.7630 C.2     1  UNL1        0.0460
     14  C         25.7760  -21.8770  -12.0300 C.2     1  UNL1        0.1380
     15  F         27.1110  -21.8960  -12.1590 F       1  UNL1       -0.2040
     16  C         24.9490  -22.0250  -13.1390 C.2     1  UNL1        0.0740
     17 CL         25.6250  -22.2400  -14.7090 Cl      1  UNL1       -0.0810
     18  C         23.5590  -22.0040  -12.9840 C.2     1  UNL1        0.0560
     19  S         16.4370  -23.2510   -7.9670 S.O2    1  UNL1        0.2460
     20  O         15.6390  -22.1900   -7.3930 O.2     1  UNL1       -0.2060
     21  O         15.8270  -24.4760   -8.4380 O.2     1  UNL1       -0.2060
     22  N         17.6450  -23.6970   -6.8730 N.pl3   1  UNL1       -0.1780
     23  H         18.4550  -24.0870   -7.3620 H       1  UNL1        0.1460
     24  C         17.9540  -22.8000   -5.8030 C.2     1  UNL1        0.0610
     25  C         18.7250  -21.6590   -6.0170 C.2     1  UNL1        0.0270
     26  C         19.0410  -20.8220   -4.9430 C.2     1  UNL1        0.0020
     27  C         18.5900  -21.1260   -3.6560 C.2     1  UNL1        0.0030
     28  C         17.8170  -22.2670   -3.4380 C.2     1  UNL1        0.0440
     29  C         17.5070  -23.0940   -4.5110 C.2     1  UNL1        0.1380
     30  F         16.7710  -24.1970   -4.3000 F       1  UNL1       -0.2040
@<TRIPOS>BOND
     1    17    16    1
     2    16    18    1
     3    16    14    2
     4    18    11    2
     5    15    14    1
     6    10     9    1
     7    14    13    1
     8    11     9    1
     9    11    12    1
    10     2     3    1
    11     2     1    2
    12     9     7   am
    13     3     4    2
    14    13    12    2
    15     7     1    1
    16     7     8    2
    17     1     6    1
    18     4     5    1
    19     6     5    2
    20     5    19    1
    21    21    19    2
    22    19    20    2
    23    19    22    1
    24    23    22    1
    25    22    24    1
    26    25    24    2
    27    25    26    1
    28    24    29    1
    29    26    27    2
    30    29    30    1
    31    29    28    2
    32    27    28    1
