@<TRIPOS>MOLECULE
40972_out_ligand_01.pdbqt
 34 37 0 0 0
SMALL
GASTEIGER

@<TRIPOS>ATOM
      1  C         18.1590  -23.4290   -8.9300 C.2     1  UNL1        0.0790
      2  C         18.5120  -22.4280   -9.8430 C.2     1  UNL1        0.0260
      3  C         19.8420  -22.3010  -10.2440 C.2     1  UNL1        0.0180
      4  C         20.8140  -23.1530   -9.7070 C.2     1  UNL1        0.0320
      5  C         20.4570  -24.1560   -8.7970 C.2     1  UNL1        0.0180
      6  C         19.1280  -24.2840   -8.3920 C.2     1  UNL1        0.0260
      7  C         22.2100  -23.0280  -10.1800 C.2     1  UNL1        0.2530
      8  O         23.0810  -23.5690   -9.5000 O.2     1  UNL1       -0.2670
      9  N         22.4740  -22.2990  -11.3370 N.am    1  UNL1       -0.3480
     10  C         21.4580  -21.7760  -12.2430 C.3     1  UNL1        0.1530
     11  C         23.8590  -21.9100  -11.5960 C.3     1  UNL1        0.1640
     12  C         24.3200  -22.3700  -12.9600 C.2     1  UNL1       -0.0370
     13  C         24.8980  -23.6400  -13.1190 C.2     1  UNL1        0.0120
     14  C         25.3660  -24.0590  -14.3670 C.2     1  UNL1        0.0400
     15  C         25.2670  -23.2070  -15.4650 C.2     1  UNL1        0.1020
     16  C         24.6710  -21.9500  -15.3230 C.2     1  UNL1        0.1020
     17  O         25.7750  -23.6700  -16.6520 O.2     1  UNL1       -0.3460
     18  C         24.2120  -21.5280  -14.0760 C.2     1  UNL1        0.0480
     19  O         24.5150  -21.0690  -16.3640 O.2     1  UNL1       -0.3460
     20  C         24.7110  -21.7160  -17.6270 C.3     1  UNL1        0.2020
     21  C         25.9450  -22.6030  -17.5930 C.3     1  UNL1        0.2020
     22  S         16.4610  -23.5920   -8.4150 S.O2    1  UNL1        0.2630
     23  O         15.6390  -23.4690   -9.6020 O.2     1  UNL1       -0.2000
     24  O         16.3650  -24.7570   -7.5620 O.2     1  UNL1       -0.2000
     25  N         16.1850  -22.1940   -7.5120 N.pl3   1  UNL1       -0.2800
     26  H         16.5230  -21.3530   -7.9750 H       1  UNL1        0.1790
     27  C         16.2270  -22.2470   -6.0860 C.2     1  UNL1        0.0490
     28  C         15.0780  -22.6420   -5.3940 C.2     1  UNL1        0.0310
     29  C         15.0900  -22.7340   -4.0070 C.2     1  UNL1        0.0030
     30  C         16.2510  -22.4250   -3.3040 C.2     1  UNL1        0.0070
     31  C         17.4130  -22.0110   -3.9760 C.2     1  UNL1       -0.0540
     32  C         18.6330  -21.6890   -3.1540 C.3     1  UNL1        0.0490
     33  C         17.4120  -21.9290   -5.3890 C.2     1  UNL1       -0.0290
     34  C         18.6350  -21.4600   -6.1370 C.3     1  UNL1        0.0510
@<TRIPOS>BOND
     1    20    21    1
     2    20    19    1
     3    21    17    1
     4    17    15    1
     5    19    16    1
     6    15    16    2
     7    15    14    1
     8    16    18    1
     9    14    13    2
    10    18    12    2
    11    13    12    1
    12    12    11    1
    13    10     9    1
    14    11     9    1
    15     9     7   am
    16     3     2    1
    17     3     4    2
    18     7     4    1
    19     7     8    2
    20     2     1    2
    21     4     5    1
    22    23    22    2
    23     1    22    1
    24     1     6    1
    25     5     6    2
    26    22    24    2
    27    22    25    1
    28    26    25    1
    29    25    27    1
    30    34    33    1
    31    27    28    2
    32    27    33    1
    33    28    29    1
    34    33    31    2
    35    29    30    2
    36    31    30    1
    37    31    32    1
