@<TRIPOS>MOLECULE
40987_out_ligand_01.pdbqt
 34 38 0 0 0
SMALL
GASTEIGER

@<TRIPOS>ATOM
      1  C         19.1320  -21.8930  -10.2500 C.2     1  UNL1        0.0330
      2  C         19.1370  -21.6040  -11.6210 C.2     1  UNL1        0.0170
      3  C         20.3440  -21.5660  -12.3240 C.2     1  UNL1        0.0030
      4  C         21.5450  -21.8300  -11.6670 C.2     1  UNL1        0.0250
      5  C         21.5340  -22.1180  -10.3000 C.2     1  UNL1        0.0800
      6  C         20.3370  -22.1190   -9.5790 C.2     1  UNL1        0.0420
      7  C         17.8700  -21.9890   -9.4730 C.2     1  UNL1        0.2520
      8  O         16.8050  -21.6680   -9.9860 O.2     1  UNL1       -0.2680
      9  N         18.0020  -22.3950   -8.1670 N.am    1  UNL1       -0.3480
     10  H         18.9140  -22.5920   -7.7790 H       1  UNL1        0.1630
     11  C         16.8630  -22.4850   -7.2650 C.3     1  UNL1        0.1180
     12  C         16.1430  -23.8210   -7.5030 C.3     1  UNL1        0.0300
     13  C         15.1670  -24.1310   -6.3770 C.3     1  UNL1        0.0070
     14  C         15.9210  -24.2810   -5.0600 C.3     1  UNL1        0.0390
     15  C         16.8550  -23.1280   -4.7880 C.2     1  UNL1       -0.0500
     16  C         17.3020  -22.9140   -3.4750 C.2     1  UNL1        0.0070
     17  C         17.3090  -22.2870   -5.8240 C.2     1  UNL1       -0.0290
     18  C         18.1660  -21.8610   -3.1790 C.2     1  UNL1        0.0010
     19  C         18.5870  -21.0050   -4.1900 C.2     1  UNL1        0.0010
     20  C         18.1570  -21.2110   -5.5000 C.2     1  UNL1        0.0100
     21  S         23.0530  -22.4870   -9.4630 S.O2    1  UNL1        0.2630
     22  O         23.2550  -23.9190   -9.4600 O.2     1  UNL1       -0.2000
     23  O         23.0670  -21.7340   -8.2260 O.2     1  UNL1       -0.2000
     24  N         24.2080  -21.7540  -10.4610 N.pl3   1  UNL1       -0.2810
     25  H         24.6800  -20.9980   -9.9690 H       1  UNL1        0.1790
     26  C         25.0100  -22.5960  -11.2800 C.2     1  UNL1        0.0450
     27  C         26.1670  -23.1960  -10.7520 C.2     1  UNL1        0.0330
     28  C         26.9310  -24.0610  -11.5400 C.2     1  UNL1        0.0420
     29  C         26.5080  -24.2970  -12.8310 C.2     1  UNL1        0.1050
     30  C         25.3780  -23.7050  -13.3440 C.2     1  UNL1        0.1070
     31  O         27.1210  -25.1140  -13.7310 O.2     1  UNL1       -0.3230
     32  C         24.6070  -22.8440  -12.5940 C.2     1  UNL1        0.0690
     33  O         25.1350  -24.0770  -14.6300 O.2     1  UNL1       -0.3230
     34  C         26.2340  -24.9860  -14.8620 C.3     1  UNL1        0.3520
@<TRIPOS>BOND
     1    34    33    1
     2    34    31    1
     3    33    30    1
     4    31    29    1
     5    30    29    2
     6    30    32    1
     7    29    28    1
     8    32    26    2
     9     3     4    2
    10     3     2    1
    11     4     5    1
    12     2     1    2
    13    28    27    2
    14    26    27    1
    15    26    24    1
    16    24    25    1
    17    24    21    1
    18     5     6    2
    19     5    21    1
    20     1     6    1
    21     1     7    1
    22     8     7    2
    23     7     9   am
    24    21    22    2
    25    21    23    2
    26     9    10    1
    27     9    11    1
    28    12    11    1
    29    12    13    1
    30    11    17    1
    31    13    14    1
    32    17    20    1
    33    17    15    2
    34    20    19    2
    35    14    15    1
    36    15    16    1
    37    19    18    1
    38    16    18    2
