@<TRIPOS>MOLECULE
40986_out_ligand_01.pdbqt
 37 39 0 0 0
SMALL
GASTEIGER

@<TRIPOS>ATOM
      1  C         23.0280  -22.6390  -11.7440 C.2     1  UNL1        0.0420
      2  C         22.4060  -21.8040  -12.6710 C.2     1  UNL1        0.0310
      3  C         21.0710  -21.4380  -12.4920 C.2     1  UNL1        0.0190
      4  C         20.3540  -21.9050  -11.3810 C.2     1  UNL1        0.0320
      5  C         20.9790  -22.7590  -10.4640 C.2     1  UNL1        0.0190
      6  C         22.3180  -23.1230  -10.6460 C.2     1  UNL1        0.0310
      7  C         18.9300  -21.4880  -11.2340 C.2     1  UNL1        0.2510
      8  O         18.5660  -20.3860  -11.6280 O.2     1  UNL1       -0.2680
      9  N         18.0920  -22.3790  -10.5980 N.am    1  UNL1       -0.3570
     10  H         18.5000  -23.1410  -10.0710 H       1  UNL1        0.1620
     11  C         16.7230  -22.0200  -10.2710 C.3     1  UNL1        0.1270
     12  C         15.9160  -23.1870   -9.6890 C.3     1  UNL1        0.0580
     13  C         16.0430  -23.2950   -8.1850 C.2     1  UNL1       -0.0570
     14  C         16.9790  -24.1700   -7.6120 C.2     1  UNL1        0.0090
     15  C         17.1160  -24.2450   -6.2250 C.2     1  UNL1        0.0250
     16  C         16.3100  -23.4470   -5.4090 C.2     1  UNL1        0.0740
     17  C         15.3840  -22.5620   -5.9640 C.2     1  UNL1        0.0250
     18  C         15.2500  -22.4920   -7.3520 C.2     1  UNL1        0.0090
     19  S         16.4990  -23.5370   -3.6490 S.O2    1  UNL1        0.2390
     20  O         17.8990  -23.3740   -3.3290 O.2     1  UNL1       -0.2060
     21  O         15.7170  -24.6480   -3.1630 O.2     1  UNL1       -0.2060
     22  N         15.7500  -22.1120   -3.1560 N.3     1  UNL1       -0.2250
     23  H         15.3310  -21.5910   -3.9250 H       1  UNL1        0.1360
     24  H         16.4250  -21.5470   -2.6360 H       1  UNL1        0.1360
     25  N         24.3720  -23.0410  -11.9580 N.pl3   1  UNL1       -0.2810
     26  H         24.6120  -23.4240  -12.8710 H       1  UNL1        0.1790
     27  S         25.6040  -22.0140  -11.4110 S.O2    1  UNL1        0.2630
     28  O         24.9790  -21.1510  -10.4280 O.2     1  UNL1       -0.2000
     29  O         26.7550  -22.8110  -11.0470 O.2     1  UNL1       -0.2000
     30  C         25.9430  -21.0160  -12.8540 C.2     1  UNL1        0.0860
     31  C         26.4520  -19.7060  -12.7900 C.2     1  UNL1       -0.0390
     32  C         26.6600  -19.0210  -14.0000 C.2     1  UNL1        0.0090
     33  C         26.7710  -18.9870  -11.5100 C.3     1  UNL1        0.0500
     34  C         26.3780  -19.6160  -15.2320 C.2     1  UNL1        0.0070
     35  C         25.8820  -20.9190  -15.2920 C.2     1  UNL1       -0.0600
     36  C         25.5380  -21.5450  -16.6110 C.3     1  UNL1        0.0480
     37  C         25.6520  -21.6080  -14.0980 C.2     1  UNL1        0.0320
@<TRIPOS>BOND
     1    36    35    1
     2    35    34    2
     3    35    37    1
     4    34    32    1
     5    37    30    2
     6    32    31    2
     7    26    25    1
     8    30    31    1
     9    30    27    1
    10    31    33    1
    11     2     3    1
    12     2     1    2
    13     3     4    2
    14    25     1    1
    15    25    27    1
    16     1     6    1
    17     8     7    2
    18    27    29    2
    19    27    28    2
    20     4     7    1
    21     4     5    1
    22     7     9   am
    23     6     5    2
    24     9    11    1
    25     9    10    1
    26    11    12    1
    27    12    13    1
    28    13    14    2
    29    13    18    1
    30    14    15    1
    31    18    17    2
    32    15    16    2
    33    17    16    1
    34    16    19    1
    35    23    22    1
    36    19    20    2
    37    19    21    2
    38    19    22    1
    39    22    24    1
