@<TRIPOS>MOLECULE
40991_out_ligand_01.pdbqt
 35 38 0 0 0
SMALL
GASTEIGER

@<TRIPOS>ATOM
      1  C         18.7420  -21.9360   -5.8020 C.2     1  UNL1        0.0910
      2  C         19.8910  -21.2460   -6.2070 C.2     1  UNL1        0.0390
      3  C         20.7300  -21.7730   -7.1980 C.2     1  UNL1        0.0200
      4  C         20.4280  -22.9980   -7.8010 C.2     1  UNL1        0.0330
      5  C         19.2930  -23.7040   -7.3970 C.2     1  UNL1        0.0440
      6  C         18.4540  -23.1670   -6.4120 C.2     1  UNL1        0.1080
      7  C         21.3020  -23.5970   -8.8430 C.2     1  UNL1        0.2520
      8  O         21.1850  -24.7820   -9.1280 O.2     1  UNL1       -0.2680
      9  N         22.2010  -22.7460   -9.4460 N.am    1  UNL1       -0.3480
     10  H         22.2730  -21.7830   -9.1560 H       1  UNL1        0.1630
     11  C         23.1830  -23.2300  -10.4090 C.3     1  UNL1        0.1180
     12  C         24.5780  -23.1920   -9.7510 C.3     1  UNL1        0.0300
     13  C         25.7730  -23.1510  -10.7100 C.3     1  UNL1        0.0070
     14  C         25.4140  -23.4250  -12.1640 C.3     1  UNL1        0.0390
     15  C         24.2520  -22.5630  -12.5830 C.2     1  UNL1       -0.0500
     16  C         24.2420  -21.9250  -13.8280 C.2     1  UNL1        0.0070
     17  C         23.1410  -22.4610  -11.7210 C.2     1  UNL1       -0.0290
     18  C         23.1290  -21.1870  -14.2270 C.2     1  UNL1        0.0010
     19  C         22.0150  -21.1040  -13.3970 C.2     1  UNL1        0.0010
     20  C         22.0140  -21.7480  -12.1570 C.2     1  UNL1        0.0100
     21  S         17.0080  -24.0890   -5.9440 S.O2    1  UNL1        0.2440
     22  O         16.9550  -25.2630   -6.7880 O.2     1  UNL1       -0.2060
     23  O         16.9870  -24.1950   -4.5010 O.2     1  UNL1       -0.2060
     24  N         15.7230  -23.0810   -6.3910 N.3     1  UNL1       -0.2150
     25  H         14.8870  -23.6680   -6.4850 H       1  UNL1        0.1390
     26  C         15.9480  -22.1800   -7.5450 C.3     1  UNL1        0.1100
     27  C         15.8660  -22.9680   -8.8520 C.3     1  UNL1        0.0740
     28  C         16.7810  -22.4090   -9.9130 C.2     1  UNL1        0.0350
     29  C         17.8900  -23.1310  -10.3460 C.2     1  UNL1        0.0270
     30  C         18.7100  -22.5820  -11.3270 C.2     1  UNL1        0.0030
     31  C         18.4000  -21.3340  -11.8520 C.2     1  UNL1        0.0190
     32  C         17.2810  -20.6810  -11.3660 C.2     1  UNL1        0.1170
     33  N         16.4750  -21.1820  -10.4050 N.2     1  UNL1       -0.2660
     34  O         17.8830  -21.4970   -4.8310 O.2     1  UNL1       -0.3540
     35  C         18.4130  -21.2570   -3.5320 C.3     1  UNL1        0.2100
@<TRIPOS>BOND
     1    18    16    1
     2    18    19    2
     3    16    15    2
     4    19    20    1
     5    15    14    1
     6    15    17    1
     7    14    13    1
     8    20    17    2
     9    31    32    2
    10    31    30    1
    11    17    11    1
    12    32    33    1
    13    30    29    2
    14    13    12    1
    15    11    12    1
    16    11     9    1
    17    33    28    2
    18    29    28    1
    19    28    27    1
    20     9    10    1
    21     9     7   am
    22     8     7    2
    23    27    26    1
    24     7     4    1
    25     4     5    2
    26     4     3    1
    27    26    24    1
    28     5     6    1
    29     3     2    2
    30    22    21    2
    31    25    24    1
    32     6    21    1
    33     6     1    2
    34    24    21    1
    35     2     1    1
    36    21    23    2
    37     1    34    1
    38    34    35    1
