@<TRIPOS>MOLECULE
40994_out_ligand_01.pdbqt
 32 35 0 0 0
SMALL
GASTEIGER

@<TRIPOS>ATOM
      1  C         19.3090  -22.2280  -10.2250 C.2     1  UNL1        0.0330
      2  C         19.0500  -21.4630  -11.3720 C.2     1  UNL1        0.0170
      3  C         20.1060  -21.0400  -12.1840 C.2     1  UNL1        0.0030
      4  C         21.4190  -21.3720  -11.8530 C.2     1  UNL1        0.0250
      5  C         21.6720  -22.1160  -10.6970 C.2     1  UNL1        0.0800
      6  C         20.6250  -22.5500   -9.8800 C.2     1  UNL1        0.0420
      7  S         23.3390  -22.5440  -10.2620 S.O2    1  UNL1        0.2630
      8  O         24.0980  -21.3110  -10.2460 O.2     1  UNL1       -0.2000
      9  O         23.3080  -23.4160   -9.1090 O.2     1  UNL1       -0.2000
     10  N         23.8630  -23.4120  -11.6140 N.pl3   1  UNL1       -0.2810
     11  H         23.1040  -23.9740  -12.0000 H       1  UNL1        0.1790
     12  C         24.7290  -22.7570  -12.5320 C.2     1  UNL1        0.0450
     13  C         26.1170  -22.7930  -12.3130 C.2     1  UNL1        0.0330
     14  C         26.9870  -22.1240  -13.1800 C.2     1  UNL1        0.0420
     15  C         26.4330  -21.4340  -14.2350 C.2     1  UNL1        0.1050
     16  C         25.0730  -21.3970  -14.4420 C.2     1  UNL1        0.1070
     17  O         27.1200  -20.7280  -15.1720 O.2     1  UNL1       -0.3230
     18  C         24.1890  -22.0460  -13.6050 C.2     1  UNL1        0.0690
     19  O         24.7350  -20.6610  -15.5350 O.2     1  UNL1       -0.3230
     20  C         26.0380  -20.2340  -15.9890 C.3     1  UNL1        0.3520
     21  C         18.2100  -22.6800   -9.3290 C.2     1  UNL1        0.2560
     22  O         17.2670  -23.2750   -9.8330 O.2     1  UNL1       -0.2670
     23  N         18.3670  -22.3380   -7.9990 N.am    1  UNL1       -0.3230
     24  H         19.1420  -21.7280   -7.7720 H       1  UNL1        0.1690
     25  C         17.5080  -22.6650   -6.9270 C.2     1  UNL1        0.0360
     26  C         17.9890  -23.5850   -5.9830 C.2     1  UNL1        0.0320
     27  C         17.2020  -23.9670   -4.8950 C.2     1  UNL1        0.0460
     28  C         15.9280  -23.4320   -4.7480 C.2     1  UNL1        0.1380
     29  F         15.1870  -23.8140   -3.6970 F       1  UNL1       -0.2040
     30  C         15.4350  -22.5210   -5.6780 C.2     1  UNL1        0.0740
     31 CL         13.8530  -21.8640   -5.5000 Cl      1  UNL1       -0.0810
     32  C         16.2220  -22.1380   -6.7680 C.2     1  UNL1        0.0560
@<TRIPOS>BOND
     1    20    19    1
     2    20    17    1
     3    19    16    1
     4    17    15    1
     5    16    15    2
     6    16    18    1
     7    15    14    1
     8    18    12    2
     9    14    13    2
    10    12    13    1
    11    12    10    1
    12     3     4    2
    13     3     2    1
    14    11    10    1
    15     4     5    1
    16    10     7    1
    17     2     1    2
    18     5     7    1
    19     5     6    2
    20     7     8    2
    21     7     9    2
    22     1     6    1
    23     1    21    1
    24    22    21    2
    25    21    23   am
    26    23    24    1
    27    23    25    1
    28    25    32    2
    29    25    26    1
    30    32    30    1
    31    26    27    2
    32    30    31    1
    33    30    28    2
    34    27    28    1
    35    28    29    1
