@<TRIPOS>MOLECULE
40_out_ligand_01.pdbqt
 28 31 0 0 0
SMALL
GASTEIGER

@<TRIPOS>ATOM
      1  C         21.6170  -22.0240  -10.4260 C.2     1  UNL1        0.0740
      2  C         20.9310  -22.6760   -9.4160 C.2     1  UNL1        0.0490
      3  C         19.5160  -22.5350   -9.5410 C.2     1  UNL1        0.0830
      4  C         19.1580  -21.7900  -10.6420 C.2     1  UNL1        0.0750
      5  S         20.5280  -21.2360  -11.4980 S.3     1  UNL1       -0.0950
      6  S         18.3530  -23.2150   -8.4370 S.O2    1  UNL1        0.2480
      7  O         17.1670  -23.2930   -9.2620 O.2     1  UNL1       -0.2050
      8  O         19.0100  -24.4030   -7.9310 O.2     1  UNL1       -0.2050
      9  N         18.1440  -22.0960   -7.1330 N.pl3   1  UNL1       -0.1720
     10  C         19.4630  -21.6890   -6.5510 C.3     1  UNL1        0.1140
     11  C         19.2640  -20.7360   -5.3890 C.3     1  UNL1        0.0200
     12  C         18.5310  -21.4650   -4.2810 C.3     1  UNL1        0.0420
     13  C         17.2640  -22.0940   -4.7970 C.2     1  UNL1       -0.0360
     14  C         16.2460  -22.3740   -3.8670 C.2     1  UNL1        0.0090
     15  C         17.0990  -22.4280   -6.1580 C.2     1  UNL1        0.0310
     16  C         15.0360  -22.9180   -4.2810 C.2     1  UNL1        0.0010
     17  C         14.8290  -23.1680   -5.6300 C.2     1  UNL1        0.0020
     18  C         15.8430  -22.9070   -6.5580 C.2     1  UNL1        0.0250
     19  C         23.0520  -21.9180  -10.6720 C.2     1  UNL1        0.2580
     20  O         23.8390  -21.3590   -9.9110 O.2     1  UNL1       -0.2670
     21  N         23.4810  -22.4950  -11.8550 N.am    1  UNL1       -0.3520
     22  H         22.7810  -22.7450  -12.5400 H       1  UNL1        0.1630
     23  C         24.8580  -22.3610  -12.3200 C.3     1  UNL1        0.0840
     24  C         25.0730  -21.0120  -13.0130 C.3     1  UNL1        0.0250
     25  C         24.2660  -20.8740  -14.3080 C.3     1  UNL1        0.0020
     26  C         24.0820  -22.1920  -15.0630 C.3     1  UNL1        0.0000
     27  C         25.1770  -23.1970  -14.7370 C.3     1  UNL1        0.0020
     28  C         25.2350  -23.5330  -13.2440 C.3     1  UNL1        0.0250
@<TRIPOS>BOND
     1    26    27    1
     2    26    25    1
     3    27    28    1
     4    25    24    1
     5    28    23    1
     6    24    23    1
     7    22    21    1
     8    23    21    1
     9    21    19   am
    10     5     4    1
    11     5     1    1
    12    19     1    1
    13    19    20    2
    14     4     3    2
    15     1     2    2
    16     3     2    1
    17     3     6    1
    18     7     6    2
    19     6     8    2
    20     6     9    1
    21     9    10    1
    22     9    15    1
    23    18    15    1
    24    18    17    2
    25    10    11    1
    26    15    13    2
    27    17    16    1
    28    11    12    1
    29    13    12    1
    30    13    14    1
    31    16    14    2
