@<TRIPOS>MOLECULE
41005_out_ligand_01.pdbqt
 36 38 0 0 0
SMALL
GASTEIGER

@<TRIPOS>ATOM
      1  C         19.4130  -21.7370  -11.2960 C.2     1  UNL1        0.0330
      2  C         19.9010  -21.1820  -12.4810 C.2     1  UNL1        0.0190
      3  C         21.2700  -21.2160  -12.7620 C.2     1  UNL1        0.0260
      4  C         22.1720  -21.8100  -11.8680 C.2     1  UNL1        0.0570
      5 CL         23.8270  -21.7900  -12.3490 Cl      1  UNL1       -0.0830
      6  C         21.6850  -22.3870  -10.6930 C.2     1  UNL1        0.1020
      7  C         20.3050  -22.3490  -10.4090 C.2     1  UNL1        0.0440
      8  C         17.9490  -21.6800  -11.0350 C.2     1  UNL1        0.2510
      9  N         17.4110  -22.7320  -10.3250 N.am    1  UNL1       -0.3530
     10  H         18.0240  -23.3740   -9.8440 H       1  UNL1        0.1630
     11  O         17.3000  -20.7160  -11.4240 O.2     1  UNL1       -0.2680
     12  C         16.0260  -22.7250   -9.9060 C.3     1  UNL1        0.1610
     13  C         15.9150  -22.9770   -8.4230 C.2     1  UNL1       -0.0400
     14  C         15.4420  -21.9650   -7.5710 C.2     1  UNL1        0.0100
     15  C         15.3460  -22.1820   -6.1960 C.2     1  UNL1        0.0250
     16  C         15.7420  -23.4130   -5.6670 C.2     1  UNL1        0.0740
     17  C         16.2160  -24.4310   -6.4990 C.2     1  UNL1        0.0250
     18  C         16.3070  -24.2080   -7.8740 C.2     1  UNL1        0.0100
     19  S         15.6140  -23.6840   -3.9200 S.O2    1  UNL1        0.2390
     20  O         15.3340  -22.4200   -3.2810 O.2     1  UNL1       -0.2060
     21  O         14.8150  -24.8650   -3.6940 O.2     1  UNL1       -0.2060
     22  N         17.1920  -24.1280   -3.5310 N.3     1  UNL1       -0.2250
     23  H         17.2630  -24.6270   -2.6460 H       1  UNL1        0.1360
     24  H         17.7830  -23.2960   -3.5510 H       1  UNL1        0.1360
     25  S         22.7360  -23.1400   -9.4750 S.O2    1  UNL1        0.2640
     26  O         24.0900  -23.0550   -9.9920 O.2     1  UNL1       -0.2000
     27  O         22.2070  -24.4210   -9.0740 O.2     1  UNL1       -0.2000
     28  N         22.6890  -22.0400   -8.2080 N.pl3   1  UNL1       -0.2810
     29  H         23.5780  -21.9260   -7.7240 H       1  UNL1        0.1790
     30  C         21.4960  -21.8190   -7.4780 C.2     1  UNL1        0.0420
     31  C         20.4170  -22.7010   -7.5700 C.2     1  UNL1        0.0330
     32  C         19.2800  -22.4860   -6.7880 C.2     1  UNL1        0.0440
     33  C         19.2460  -21.4110   -5.9080 C.2     1  UNL1        0.1160
     34  F         18.1560  -21.2090   -5.1560 F       1  UNL1       -0.2060
     35  C         20.3300  -20.5490   -5.7870 C.2     1  UNL1        0.0440
     36  C         21.4660  -20.7610   -6.5690 C.2     1  UNL1        0.0330
@<TRIPOS>BOND
     1     3     2    1
     2     3     4    2
     3     2     1    2
     4     5     4    1
     5     4     6    1
     6    11     8    2
     7     1     8    1
     8     1     7    1
     9     8     9   am
    10     6     7    2
    11     6    25    1
    12     9    12    1
    13     9    10    1
    14    26    25    2
    15    12    13    1
    16    25    27    2
    17    25    28    1
    18    13    18    2
    19    13    14    1
    20    28    29    1
    21    28    30    1
    22    18    17    1
    23    14    15    2
    24    31    30    2
    25    31    32    1
    26    30    36    1
    27    32    33    2
    28    36    35    2
    29    17    16    2
    30    15    16    1
    31    33    35    1
    32    33    34    1
    33    16    19    1
    34    19    21    2
    35    19    22    1
    36    19    20    2
    37    24    22    1
    38    22    23    1
