@<TRIPOS>MOLECULE
41008_out_ligand_01.pdbqt
 27 29 0 0 0
SMALL
GASTEIGER

@<TRIPOS>ATOM
      1  N         19.7260  -22.4260   -8.6080 N.am    1  UNL1       -0.3260
      2  C         19.1990  -23.5760   -8.0290 C.2     1  UNL1        0.2350
      3  O         19.7340  -24.6810   -8.0310 O.2     1  UNL1       -0.2720
      4  H         19.1200  -21.6130   -8.6120 H       1  UNL1        0.1690
      5  C         20.9550  -22.2830   -9.2810 C.2     1  UNL1        0.0340
      6  C         21.0990  -22.3380  -10.6700 C.2     1  UNL1        0.0310
      7  C         22.3590  -22.1930  -11.2610 C.2     1  UNL1        0.0270
      8  C         23.4810  -21.9820  -10.4590 C.2     1  UNL1        0.0740
      9  C         23.3580  -21.9400   -9.0700 C.2     1  UNL1        0.0270
     10  C         22.0950  -22.0880   -8.4870 C.2     1  UNL1        0.0310
     11  S         25.0750  -21.8280  -11.2070 S.O2    1  UNL1        0.2390
     12  O         25.0120  -22.3110  -12.5670 O.2     1  UNL1       -0.2060
     13  O         25.6380  -20.5430  -10.8670 O.2     1  UNL1       -0.2060
     14  N         25.9690  -22.9670  -10.3570 N.3     1  UNL1       -0.2250
     15  H         25.5470  -23.8890  -10.4650 H       1  UNL1        0.1360
     16  H         26.9470  -22.9230  -10.6430 H       1  UNL1        0.1360
     17  C         17.8360  -23.3200   -7.3190 C.3     1  UNL1        0.0680
     18  C         17.0950  -24.6920   -7.3040 C.3     1  UNL1        0.0240
     19  C         15.6760  -24.4000   -7.7720 C.3     1  UNL1        0.0020
     20  C         15.8840  -23.3210   -8.8170 C.3     1  UNL1        0.0020
     21  C         16.9080  -22.4000   -8.1660 C.3     1  UNL1        0.0240
     22  C         18.0430  -22.6460   -5.9520 C.2     1  UNL1       -0.0400
     23  C         18.6950  -21.4120   -5.8000 C.2     1  UNL1        0.0080
     24  C         18.8690  -20.8380   -4.5370 C.2     1  UNL1        0.0010
     25  C         18.4080  -21.4940   -3.3990 C.2     1  UNL1        0.0000
     26  C         17.7830  -22.7310   -3.5210 C.2     1  UNL1        0.0010
     27  C         17.6110  -23.3040   -4.7820 C.2     1  UNL1        0.0080
@<TRIPOS>BOND
     1    12    11    2
     2     7     6    1
     3     7     8    2
     4    11    13    2
     5    11     8    1
     6    11    14    1
     7     6     5    2
     8    16    14    1
     9    15    14    1
    10     8     9    1
    11     5     1    1
    12     5    10    1
    13     9    10    2
    14    20    21    1
    15    20    19    1
    16     4     1    1
    17     1     2   am
    18    21    17    1
    19     3     2    2
    20     2    17    1
    21    19    18    1
    22    17    18    1
    23    17    22    1
    24    22    23    2
    25    22    27    1
    26    23    24    1
    27    27    26    2
    28    24    25    2
    29    26    25    1
