@<TRIPOS>MOLECULE
41016_out_ligand_01.pdbqt
 36 38 0 0 0
SMALL
GASTEIGER

@<TRIPOS>ATOM
      1  C         21.8480  -23.0490   -8.5450 C.2     1  UNL1       -0.0580
      2  C         21.2400  -22.0540   -7.7670 C.2     1  UNL1        0.0090
      3  C         19.9570  -22.2430   -7.2500 C.2     1  UNL1        0.0260
      4  C         19.2800  -23.4350   -7.5150 C.2     1  UNL1        0.0790
      5  C         19.8640  -24.4270   -8.3060 C.2     1  UNL1        0.0260
      6  C         21.1490  -24.2330   -8.8140 C.2     1  UNL1        0.0090
      7  C         23.2310  -22.8320   -9.1170 C.3     1  UNL1        0.0470
      8  C         23.2600  -21.7010  -10.1450 C.3     1  UNL1        0.1070
      9  C         24.6140  -21.5820  -10.8140 C.2     1  UNL1        0.2180
     10  N         24.8380  -22.5370  -11.7760 N.am    1  UNL1       -0.3530
     11  H         24.0920  -23.1660  -12.0430 H       1  UNL1        0.1630
     12  O         25.4430  -20.7360  -10.4920 O.2     1  UNL1       -0.2740
     13  C         26.0610  -22.5780  -12.5620 C.3     1  UNL1        0.1140
     14  C         26.7100  -23.9650  -12.4840 C.3     1  UNL1        0.0370
     15  C         25.7540  -22.1020  -13.9790 C.2     1  UNL1       -0.0290
     16  C         26.0520  -20.7840  -14.3890 C.2     1  UNL1       -0.0530
     17  C         25.7220  -20.3740  -15.6930 C.2     1  UNL1        0.0140
     18  C         26.7040  -19.7870  -13.4650 C.3     1  UNL1        0.0490
     19  C         25.0900  -21.2380  -16.6020 C.2     1  UNL1       -0.0560
     20  C         24.7600  -20.7470  -17.9840 C.3     1  UNL1        0.0490
     21  C         24.7700  -22.5410  -16.1950 C.2     1  UNL1       -0.0560
     22  C         25.1000  -22.9520  -14.8940 C.2     1  UNL1        0.0170
     23  C         24.0790  -23.5060  -17.1230 C.3     1  UNL1        0.0490
     24  S         17.6510  -23.6750   -6.8520 S.O2    1  UNL1        0.2590
     25  O         17.0880  -22.3790   -6.5460 O.2     1  UNL1       -0.2010
     26  O         17.7300  -24.7230   -5.8600 O.2     1  UNL1       -0.2010
     27  N         16.8210  -24.2980   -8.1490 N.3     1  UNL1       -0.3070
     28  H         17.0850  -25.2270   -8.4710 H       1  UNL1        0.1730
     29  C         15.9780  -23.4510   -8.9860 C.3     1  UNL1        0.1220
     30  C         14.9800  -24.3410   -9.7260 C.3     1  UNL1        0.0380
     31  C         16.8440  -22.6090   -9.9100 C.2     1  UNL1       -0.0350
     32  C         17.9910  -23.1800  -10.4860 C.2     1  UNL1        0.0090
     33  C         18.7880  -22.4460  -11.3690 C.2     1  UNL1        0.0010
     34  C         18.4470  -21.1340  -11.6950 C.2     1  UNL1        0.0000
     35  C         17.3110  -20.5510  -11.1360 C.2     1  UNL1        0.0010
     36  C         16.5110  -21.2840  -10.2550 C.2     1  UNL1        0.0090
@<TRIPOS>BOND
     1    20    19    1
     2    23    21    1
     3    19    21    2
     4    19    17    1
     5    21    22    1
     6    17    16    2
     7    22    15    2
     8    16    15    1
     9    16    18    1
    10    15    13    1
    11    13    14    1
    12    13    10    1
    13    11    10    1
    14    10     9   am
    15    34    33    2
    16    34    35    1
    17    33    32    1
    18    35    36    2
    19     9    12    2
    20     9     8    1
    21    32    31    2
    22    36    31    1
    23     8     7    1
    24    31    29    1
    25    30    29    1
    26     7     1    1
    27    29    27    1
    28     6     1    2
    29     6     5    1
    30     1     2    1
    31    28    27    1
    32     5     4    2
    33    27    24    1
    34     2     3    2
    35     4     3    1
    36     4    24    1
    37    24    25    2
    38    24    26    2
