@<TRIPOS>MOLECULE
41055_out_ligand_01.pdbqt
 41 44 0 0 0
SMALL
GASTEIGER

@<TRIPOS>ATOM
      1  C         23.1500  -22.8230   -8.9250 C.3     1  UNL1        0.2780
      2  O         22.4810  -21.8990   -8.0740 O.2     1  UNL1       -0.3420
      3  C         21.2240  -22.2160   -7.6330 C.2     1  UNL1        0.0690
      4  C         20.4210  -21.4330   -6.8010 C.2     1  UNL1        0.0380
      5  C         19.1350  -21.8650   -6.4600 C.2     1  UNL1        0.0280
      6  C         18.6600  -23.0840   -6.9480 C.2     1  UNL1        0.0790
      7  C         19.4490  -23.8690   -7.7890 C.2     1  UNL1        0.0280
      8  C         20.7300  -23.4300   -8.1260 C.2     1  UNL1        0.0380
      9  S         17.0170  -23.6080   -6.5260 S.O2    1  UNL1        0.2590
     10  O         16.5760  -22.8590   -5.3690 O.2     1  UNL1       -0.2010
     11  O         17.0100  -25.0530   -6.5480 O.2     1  UNL1       -0.2010
     12  N         16.1530  -23.1050   -7.8610 N.3     1  UNL1       -0.3070
     13  H         15.8360  -22.1390   -7.8160 H       1  UNL1        0.1730
     14  C         16.4400  -23.6780   -9.1780 C.3     1  UNL1        0.1220
     15  C         15.1340  -24.2380   -9.7490 C.3     1  UNL1        0.0380
     16  C         17.0940  -22.6390  -10.0710 C.2     1  UNL1       -0.0350
     17  C         16.5230  -21.3760  -10.2970 C.2     1  UNL1        0.0090
     18  C         17.1740  -20.4330  -11.0940 C.2     1  UNL1        0.0010
     19  C         18.4080  -20.7330  -11.6690 C.2     1  UNL1        0.0000
     20  C         18.9950  -21.9760  -11.4430 C.2     1  UNL1        0.0010
     21  C         18.3460  -22.9190  -10.6460 C.2     1  UNL1        0.0090
     22  C         23.7330  -22.2240  -10.2130 C.2     1  UNL1        0.2460
     23  O         24.1050  -21.0550  -10.2460 O.2     1  UNL1       -0.2710
     24  N         23.7870  -23.1370  -11.2510 N.am    1  UNL1       -0.3250
     25  H         23.3690  -24.0410  -11.0510 H       1  UNL1        0.1690
     26  C         24.2660  -22.9390  -12.5570 C.2     1  UNL1        0.0340
     27  C         23.5750  -22.0130  -13.3540 C.2     1  UNL1        0.0310
     28  C         23.9850  -21.7530  -14.6630 C.2     1  UNL1        0.0270
     29  C         25.0910  -22.4250  -15.1820 C.2     1  UNL1        0.0740
     30  C         25.7740  -23.3660  -14.4110 C.2     1  UNL1        0.0270
     31  C         25.3640  -23.6140  -13.0960 C.2     1  UNL1        0.0310
     32  S         25.5780  -22.1210  -16.8640 S.O2    1  UNL1        0.2430
     33  O         26.3580  -23.2480  -17.3300 O.2     1  UNL1       -0.2060
     34  O         24.3970  -21.6860  -17.5820 O.2     1  UNL1       -0.2060
     35  N         26.6230  -20.7780  -16.7170 N.3     1  UNL1       -0.2030
     36  C         26.3750  -19.6640  -17.6960 C.3     1  UNL1        0.1380
     37  C         26.9400  -18.3270  -17.1790 C.3     1  UNL1        0.2870
     38  N         26.2840  -17.8720  -15.9360 N.3     1  UNL1        0.0860
     39  C         27.1200  -16.9000  -15.2380 C.3     1  UNL1        0.3100
     40  C         25.9230  -19.0120  -15.0660 C.3     1  UNL1        0.2870
     41  C         26.7600  -20.2810  -15.3070 C.3     1  UNL1        0.1380
@<TRIPOS>BOND
     1    36    37    1
     2    36    35    1
     3    34    32    2
     4    33    32    2
     5    37    38    1
     6    32    35    1
     7    32    29    1
     8    35    41    1
     9    38    39    1
    10    38    40    1
    11    41    40    1
    12    29    28    2
    13    29    30    1
    14    28    27    1
    15    30    31    2
    16    27    26    2
    17    31    26    1
    18    26    24    1
    19    19    20    2
    20    19    18    1
    21    20    21    1
    22    24    25    1
    23    24    22   am
    24    18    17    2
    25    21    16    2
    26    17    16    1
    27    23    22    2
    28    22     1    1
    29    16    14    1
    30    15    14    1
    31    14    12    1
    32     1     2    1
    33     8     7    1
    34     8     3    2
    35     2     3    1
    36    12    13    1
    37    12     9    1
    38     7     6    2
    39     3     4    1
    40     6     9    1
    41     6     5    1
    42     4     5    2
    43    11     9    2
    44     9    10    2
