@<TRIPOS>MOLECULE
41068_out_ligand_01.pdbqt
 41 44 0 0 0
SMALL
GASTEIGER

@<TRIPOS>ATOM
      1  C         16.7600  -21.5270  -10.5250 C.3     1  UNL1        0.2780
      2  O         16.3040  -22.8220  -10.1490 O.2     1  UNL1       -0.3420
      3  C         16.0490  -23.0490   -8.8240 C.2     1  UNL1        0.0690
      4  C         15.9360  -24.3010   -8.2150 C.2     1  UNL1        0.0380
      5  C         15.7220  -24.3920   -6.8360 C.2     1  UNL1        0.0280
      6  C         15.6010  -23.2280   -6.0730 C.2     1  UNL1        0.0800
      7  C         15.7280  -21.9730   -6.6690 C.2     1  UNL1        0.0280
      8  C         15.9520  -21.8910   -8.0450 C.2     1  UNL1        0.0380
      9  S         15.3470  -23.3440   -4.3140 S.O2    1  UNL1        0.2630
     10  O         14.8830  -24.6860   -4.0320 O.2     1  UNL1       -0.2000
     11  O         14.5860  -22.1850   -3.8960 O.2     1  UNL1       -0.2000
     12  N         16.9170  -23.2500   -3.6960 N.pl3   1  UNL1       -0.2810
     13  H         17.2290  -24.1470   -3.3290 H       1  UNL1        0.1790
     14  C         17.8780  -22.4390   -4.3630 C.2     1  UNL1        0.0450
     15  C         18.2100  -21.1780   -3.8730 C.2     1  UNL1        0.0300
     16  C         19.1220  -20.3820   -4.5660 C.2     1  UNL1        0.0050
     17  C         19.7060  -20.8490   -5.7470 C.2     1  UNL1        0.0370
     18  C         19.3830  -22.1150   -6.2360 C.2     1  UNL1        0.0700
     19  C         18.4670  -22.9080   -5.5380 C.2     1  UNL1        0.0660
     20  O         19.8850  -22.6900   -7.3720 O.2     1  UNL1       -0.3560
     21  C         19.3960  -23.9830   -7.7090 C.3     1  UNL1        0.2100
     22  C         18.0780  -21.4920  -11.3110 C.2     1  UNL1        0.2460
     23  O         18.1010  -21.0740  -12.4650 O.2     1  UNL1       -0.2710
     24  N         19.1560  -21.9560  -10.5780 N.am    1  UNL1       -0.3250
     25  H         18.9320  -22.2750   -9.6390 H       1  UNL1        0.1690
     26  C         20.4860  -22.1210  -11.0050 C.2     1  UNL1        0.0340
     27  C         21.0160  -21.5230  -12.1500 C.2     1  UNL1        0.0310
     28  C         22.3460  -21.7510  -12.5200 C.2     1  UNL1        0.0270
     29  C         23.1550  -22.5720  -11.7310 C.2     1  UNL1        0.0790
     30  C         22.6340  -23.1930  -10.5960 C.2     1  UNL1        0.0270
     31  C         21.3040  -22.9570  -10.2310 C.2     1  UNL1        0.0310
     32  S         24.8310  -22.8990  -12.2320 S.O2    1  UNL1        0.2600
     33  O         24.7990  -24.0130  -13.1580 O.2     1  UNL1       -0.2000
     34  O         25.6390  -22.9530  -11.0320 O.2     1  UNL1       -0.2000
     35  N         25.2700  -21.5120  -13.0980 N.3     1  UNL1       -0.3030
     36  C         26.3610  -20.6740  -12.5230 C.3     1  UNL1        0.1650
     37  C         26.3890  -19.2960  -13.2180 C.3     1  UNL1        0.2920
     38  N         26.5470  -19.4170  -14.6850 N.3     1  UNL1        0.0870
     39  C         26.5440  -18.0980  -15.3130 C.3     1  UNL1        0.3100
     40  C         25.4550  -20.2540  -15.2290 C.3     1  UNL1        0.2920
     41  C         25.4160  -21.6510  -14.5740 C.3     1  UNL1        0.1650
@<TRIPOS>BOND
     1    39    38    1
     2    40    38    1
     3    40    41    1
     4    38    37    1
     5    41    35    1
     6    37    36    1
     7    33    32    2
     8    35    36    1
     9    35    32    1
    10    28    27    1
    11    28    29    2
    12    23    22    2
    13    32    29    1
    14    32    34    2
    15    27    26    2
    16    29    30    1
    17    22    24   am
    18    22     1    1
    19    26    24    1
    20    26    31    1
    21    30    31    2
    22    24    25    1
    23     1     2    1
    24     2     3    1
    25     3     4    2
    26     3     8    1
    27     4     5    1
    28     8     7    2
    29    21    20    1
    30    20    18    1
    31     5     6    2
    32     7     6    1
    33    18    17    2
    34    18    19    1
    35     6     9    1
    36    17    16    1
    37    19    14    2
    38    16    15    2
    39    14    15    1
    40    14    12    1
    41     9    10    2
    42     9    11    2
    43     9    12    1
    44    12    13    1
