@<TRIPOS>MOLECULE
4106_out_ligand_01.pdbqt
 30 32 0 0 0
SMALL
GASTEIGER

@<TRIPOS>ATOM
      1  C         22.2400  -23.1500   -9.1000 C.2     1  UNL1        0.0800
      2  C         21.6910  -22.2280   -8.2080 C.2     1  UNL1        0.0270
      3  C         20.4320  -22.4680   -7.6460 C.2     1  UNL1        0.0310
      4  C         19.7080  -23.6140   -7.9890 C.2     1  UNL1        0.0340
      5  C         20.2610  -24.5170   -8.9100 C.2     1  UNL1        0.0310
      6  C         21.5220  -24.2900   -9.4680 C.2     1  UNL1        0.0270
      7  S         23.8340  -22.8390   -9.8260 S.O2    1  UNL1        0.2630
      8  O         24.0060  -21.4010   -9.8900 O.2     1  UNL1       -0.2000
      9  O         24.8040  -23.6740   -9.1500 O.2     1  UNL1       -0.2000
     10  N         23.6470  -23.3480  -11.4230 N.pl3   1  UNL1       -0.2800
     11  H         23.9380  -24.3110  -11.5640 H       1  UNL1        0.1790
     12  C         23.8010  -22.4210  -12.4930 C.2     1  UNL1        0.0490
     13  C         22.7170  -21.6480  -12.9370 C.2     1  UNL1       -0.0350
     14  C         22.9020  -20.8080  -14.0460 C.2     1  UNL1        0.0090
     15  C         21.3490  -21.7340  -12.3230 C.3     1  UNL1        0.0500
     16  C         24.1410  -20.7150  -14.6820 C.2     1  UNL1        0.0070
     17  C         25.2290  -21.4560  -14.2140 C.2     1  UNL1       -0.0600
     18  C         26.5570  -21.3830  -14.9070 C.3     1  UNL1        0.0480
     19  C         25.0450  -22.3160  -13.1270 C.2     1  UNL1        0.0370
     20  N         18.4330  -23.9240   -7.4780 N.am    1  UNL1       -0.3270
     21  C         17.2050  -23.7430   -8.0930 C.2     1  UNL1        0.2260
     22  O         17.0240  -23.2640   -9.2080 O.2     1  UNL1       -0.2730
     23  H         18.4110  -24.2610   -6.5220 H       1  UNL1        0.1690
     24  C         16.0210  -24.2630   -7.2850 C.3     1  UNL1        0.1410
     25  C         15.8350  -23.6140   -5.9320 C.2     1  UNL1       -0.0500
     26  C         14.8070  -22.6850   -5.7220 C.2     1  UNL1        0.0070
     27  C         14.6250  -22.1080   -4.4650 C.2     1  UNL1        0.0010
     28  C         15.4680  -22.4490   -3.4100 C.2     1  UNL1        0.0000
     29  C         16.4980  -23.3670   -3.6110 C.2     1  UNL1        0.0010
     30  C         16.6840  -23.9460   -4.8670 C.2     1  UNL1        0.0070
@<TRIPOS>BOND
     1    18    17    1
     2    16    17    2
     3    16    14    1
     4    17    19    1
     5    14    13    2
     6    19    12    2
     7    13    12    1
     8    13    15    1
     9    12    10    1
    10    11    10    1
    11    10     7    1
    12     8     7    2
    13     7     9    2
    14     7     1    1
    15     6     1    2
    16     6     5    1
    17    22    21    2
    18     1     2    1
    19     5     4    2
    20     2     3    2
    21    21    20   am
    22    21    24    1
    23     4     3    1
    24     4    20    1
    25    20    23    1
    26    24    25    1
    27    25    26    2
    28    25    30    1
    29    26    27    1
    30    30    29    2
    31    27    28    2
    32    29    28    1
