@<TRIPOS>MOLECULE
41074_out_ligand_01.pdbqt
 40 43 0 0 0
SMALL
GASTEIGER

@<TRIPOS>ATOM
      1  O         16.4760  -23.1080  -10.3240 O.2     1  UNL1       -0.3420
      2  C         16.1500  -23.2180   -9.0000 C.2     1  UNL1        0.0690
      3  C         16.0420  -21.9960   -8.3280 C.2     1  UNL1        0.0380
      4  C         15.7620  -21.9580   -6.9610 C.2     1  UNL1        0.0280
      5  C         15.5910  -23.1550   -6.2640 C.2     1  UNL1        0.0800
      6  C         15.7140  -24.3830   -6.9200 C.2     1  UNL1        0.0280
      7  C         15.9860  -24.4120   -8.2920 C.2     1  UNL1        0.0380
      8  S         15.2870  -23.1240   -4.5110 S.O2    1  UNL1        0.2630
      9  O         14.4300  -21.9860   -4.2450 O.2     1  UNL1       -0.2000
     10  O         14.9060  -24.4570   -4.0990 O.2     1  UNL1       -0.2000
     11  N         16.7920  -22.7350   -3.8700 N.pl3   1  UNL1       -0.2810
     12  H         16.7260  -22.3080   -2.9470 H       1  UNL1        0.1790
     13  C         17.8730  -22.3620   -4.7130 C.2     1  UNL1        0.0430
     14  C         18.5130  -21.1350   -4.5850 C.2     1  UNL1        0.0300
     15  C         19.5690  -20.8050   -5.4350 C.2     1  UNL1        0.0090
     16  C         19.9940  -21.6930   -6.4360 C.2     1  UNL1       -0.0560
     17  C         21.1150  -21.2760   -7.3500 C.3     1  UNL1        0.0490
     18  C         19.3180  -22.9200   -6.5970 C.2     1  UNL1       -0.0540
     19  C         18.2660  -23.2440   -5.7220 C.2     1  UNL1        0.0370
     20  C         19.7080  -23.8990   -7.6720 C.3     1  UNL1        0.0490
     21  C         16.6240  -21.8030  -10.8710 C.3     1  UNL1        0.2780
     22  C         18.0570  -21.3780  -11.2200 C.2     1  UNL1        0.2460
     23  O         18.2720  -20.2860  -11.7400 O.2     1  UNL1       -0.2710
     24  N         19.0020  -22.3380  -10.9110 N.am    1  UNL1       -0.3250
     25  H         18.6310  -23.2090  -10.5460 H       1  UNL1        0.1690
     26  C         20.3920  -22.2920  -11.1420 C.2     1  UNL1        0.0340
     27  C         20.8350  -21.4930  -12.2040 C.2     1  UNL1        0.0300
     28  C         22.2000  -21.3720  -12.4870 C.2     1  UNL1        0.0190
     29  C         23.1320  -22.0840  -11.7280 C.2     1  UNL1        0.0320
     30  C         22.6990  -22.8710  -10.6590 C.2     1  UNL1        0.0190
     31  C         21.3340  -22.9770  -10.3690 C.2     1  UNL1        0.0300
     32  C         24.5880  -21.9460  -11.9710 C.2     1  UNL1        0.2530
     33  O         25.2870  -21.5560  -11.0370 O.2     1  UNL1       -0.2670
     34  N         25.1030  -22.2330  -13.2310 N.am    1  UNL1       -0.3450
     35  C         26.5160  -21.9290  -13.4620 C.3     1  UNL1        0.1560
     36  C         24.4850  -23.1030  -14.2310 C.3     1  UNL1        0.1560
     37  C         27.0100  -22.3090  -14.8730 C.3     1  UNL1        0.2910
     38  N         26.0330  -21.9500  -15.9120 N.3     1  UNL1        0.0870
     39  C         26.5350  -22.2450  -17.2490 C.3     1  UNL1        0.3100
     40  C         24.7210  -22.5870  -15.6710 C.3     1  UNL1        0.2910
@<TRIPOS>BOND
     1    39    38    1
     2    38    40    1
     3    38    37    1
     4    40    36    1
     5    37    35    1
     6    36    34    1
     7    35    34    1
     8    34    32   am
     9    28    27    1
    10    28    29    2
    11    27    26    2
    12    32    29    1
    13    32    33    2
    14    23    22    2
    15    29    30    1
    16    22    24   am
    17    22    21    1
    18    26    24    1
    19    26    31    1
    20    24    25    1
    21    21     1    1
    22    30    31    2
    23     1     2    1
    24     2     3    2
    25     2     7    1
    26     3     4    1
    27     7     6    2
    28    20    18    1
    29    17    16    1
    30     4     5    2
    31     6     5    1
    32    18    16    2
    33    18    19    1
    34    16    15    1
    35     5     8    1
    36    19    13    2
    37    15    14    2
    38    13    14    1
    39    13    11    1
    40     8     9    2
    41     8    10    2
    42     8    11    1
    43    11    12    1
