@<TRIPOS>MOLECULE
41079_out_ligand_01.pdbqt
 38 41 0 0 0
SMALL
GASTEIGER

@<TRIPOS>ATOM
      1  N         22.9670  -22.5000  -11.1500 N.am    1  UNL1       -0.3270
      2  C         23.4550  -21.9530   -9.9790 C.2     1  UNL1        0.2220
      3  O         24.2530  -21.0250   -9.8800 O.2     1  UNL1       -0.2730
      4  H         22.2560  -23.2160  -11.0590 H       1  UNL1        0.1690
      5  C         22.8880  -22.6080   -8.7330 C.3     1  UNL1        0.1080
      6  C         22.1210  -23.8790   -9.0840 C.3     1  UNL1        0.0480
      7  C         20.6240  -23.6780   -9.0480 C.2     1  UNL1       -0.0580
      8  C         19.8740  -24.1420   -7.9580 C.2     1  UNL1        0.0090
      9  C         18.4910  -23.9600   -7.9250 C.2     1  UNL1        0.0260
     10  C         17.8570  -23.3080   -8.9860 C.2     1  UNL1        0.0790
     11  C         18.5870  -22.8650  -10.0920 C.2     1  UNL1        0.0260
     12  C         19.9690  -23.0480  -10.1190 C.2     1  UNL1        0.0090
     13  S         16.1010  -23.0580   -8.9230 S.O2    1  UNL1        0.2590
     14  O         15.7430  -22.0410   -9.8870 O.2     1  UNL1       -0.2010
     15  O         15.4730  -24.3610   -8.9220 O.2     1  UNL1       -0.2010
     16  N         15.8910  -22.4290   -7.3930 N.3     1  UNL1       -0.3110
     17  H         16.3360  -21.5350   -7.2000 H       1  UNL1        0.1720
     18  C         15.1030  -23.1270   -6.3730 C.3     1  UNL1        0.0930
     19  C         15.9670  -24.2220   -5.7460 C.3     1  UNL1        0.0260
     20  C         17.1390  -23.6800   -4.9250 C.3     1  UNL1        0.0020
     21  C         16.8380  -22.3590   -4.2130 C.3     1  UNL1        0.0000
     22  C         15.3470  -22.1460   -4.0070 C.3     1  UNL1        0.0020
     23  C         14.5910  -22.1140   -5.3370 C.3     1  UNL1        0.0260
     24  C         23.3570  -22.1900  -12.4700 C.2     1  UNL1        0.0340
     25  C         22.6390  -21.3350  -13.3130 C.2     1  UNL1        0.0300
     26  C         23.1190  -21.0320  -14.5920 C.2     1  UNL1        0.0190
     27  C         24.3130  -21.6000  -15.0380 C.2     1  UNL1        0.0320
     28  C         25.0430  -22.4530  -14.2090 C.2     1  UNL1        0.0190
     29  C         24.5570  -22.7530  -12.9320 C.2     1  UNL1        0.0300
     30  C         24.8710  -21.2170  -16.3500 C.2     1  UNL1        0.2530
     31  N         25.7140  -20.1130  -16.4200 N.am    1  UNL1       -0.3450
     32  C         25.9380  -19.1570  -15.3280 C.3     1  UNL1        0.1560
     33  C         26.2720  -19.7370  -17.7220 C.3     1  UNL1        0.1560
     34  C         27.1210  -18.2090  -15.6060 C.3     1  UNL1        0.2910
     35  N         27.0680  -17.4900  -16.8930 N.3     1  UNL1        0.0870
     36  C         26.5910  -16.1190  -16.7400 C.3     1  UNL1        0.3100
     37  C         26.2730  -18.2100  -17.9100 C.3     1  UNL1        0.2910
     38  O         24.5570  -21.9070  -17.3150 O.2     1  UNL1       -0.2670
@<TRIPOS>BOND
     1    37    33    1
     2    37    35    1
     3    33    31    1
     4    38    30    2
     5    35    36    1
     6    35    34    1
     7    31    30   am
     8    31    32    1
     9    30    27    1
    10    34    32    1
    11    27    26    2
    12    27    28    1
    13    26    25    1
    14    28    29    2
    15    25    24    2
    16    29    24    1
    17    24     1    1
    18     1     4    1
    19     1     2   am
    20    12    11    1
    21    12     7    2
    22    11    10    2
    23     2     3    2
    24     2     5    1
    25    14    13    2
    26     6     7    1
    27     6     5    1
    28     7     8    1
    29    10    13    1
    30    10     9    1
    31    13    15    2
    32    13    16    1
    33     8     9    2
    34    16    17    1
    35    16    18    1
    36    18    19    1
    37    18    23    1
    38    19    20    1
    39    23    22    1
    40    20    21    1
    41    21    22    1
