@<TRIPOS>MOLECULE
41093_out_ligand_01.pdbqt
 30 32 0 0 0
SMALL
GASTEIGER

@<TRIPOS>ATOM
      1  C         17.5170  -23.2340   -8.8650 C.2     1  UNL1        0.0810
      2  C         18.9040  -23.4030   -8.9940 C.2     1  UNL1        0.0420
      3  C         19.5890  -22.8040  -10.0550 C.2     1  UNL1        0.0330
      4  C         18.8920  -22.0210  -10.9780 C.2     1  UNL1        0.0170
      5  C         17.5100  -21.8550  -10.8500 C.2     1  UNL1        0.0090
      6  C         16.8000  -22.4520   -9.7930 C.2     1  UNL1       -0.0390
      7  C         15.3120  -22.2420   -9.7230 C.3     1  UNL1        0.0500
      8  S         16.7070  -24.0530   -7.4940 S.O2    1  UNL1        0.2460
      9  O         17.7340  -24.6670   -6.6780 O.2     1  UNL1       -0.2060
     10  O         15.6100  -24.8260   -8.0300 O.2     1  UNL1       -0.2060
     11  N         16.1270  -22.7030   -6.6280 N.pl3   1  UNL1       -0.1810
     12  H         15.9790  -21.9390   -7.2860 H       1  UNL1        0.1460
     13  C         16.9500  -22.3080   -5.5170 C.2     1  UNL1        0.0280
     14  C         18.0870  -21.5350   -5.7740 C.2     1  UNL1        0.0250
     15  C         18.9030  -21.1070   -4.7290 C.2     1  UNL1        0.0020
     16  C         18.5800  -21.4450   -3.4180 C.2     1  UNL1        0.0010
     17  C         17.4440  -22.2100   -3.1530 C.2     1  UNL1        0.0080
     18  C         16.6120  -22.6510   -4.1960 C.2     1  UNL1       -0.0400
     19  C         15.4020  -23.4760   -3.8620 C.3     1  UNL1        0.0500
     20  C         21.0600  -22.9970  -10.1430 C.2     1  UNL1        0.2520
     21  O         21.6320  -23.6810   -9.3040 O.2     1  UNL1       -0.2680
     22  N         21.6930  -22.3940  -11.2070 N.am    1  UNL1       -0.3520
     23  H         21.1580  -21.8550  -11.8760 H       1  UNL1        0.1630
     24  C         23.1390  -22.4600  -11.3780 C.3     1  UNL1        0.0880
     25  C         23.5320  -22.1290  -12.8170 C.3     1  UNL1        0.0550
     26  C         25.0510  -22.1200  -12.9770 C.3     1  UNL1        0.2740
     27  N         25.6710  -21.1740  -12.0390 N.3     1  UNL1        0.0840
     28  C         27.1200  -21.1340  -12.2400 C.3     1  UNL1        0.3090
     29  C         25.3580  -21.5260  -10.6460 C.3     1  UNL1        0.2740
     30  C         23.8500  -21.5170  -10.4050 C.3     1  UNL1        0.0550
@<TRIPOS>BOND
     1    26    25    1
     2    26    27    1
     3    25    24    1
     4    28    27    1
     5    27    29    1
     6    23    22    1
     7    24    22    1
     8    24    30    1
     9    22    20   am
    10     4     5    2
    11     4     3    1
    12     5     6    1
    13    29    30    1
    14    20     3    1
    15    20    21    2
    16     3     2    2
    17     6     7    1
    18     6     1    2
    19     2     1    1
    20     1     8    1
    21    10     8    2
    22     8     9    2
    23     8    11    1
    24    12    11    1
    25    11    13    1
    26    14    13    2
    27    14    15    1
    28    13    18    1
    29    15    16    2
    30    18    19    1
    31    18    17    2
    32    16    17    1
