@<TRIPOS>MOLECULE
41094_out_ligand_01.pdbqt
 30 32 0 0 0
SMALL
GASTEIGER

@<TRIPOS>ATOM
      1  C         17.6380  -23.5260   -8.6580 C.2     1  UNL1        0.0810
      2  C         19.0290  -23.7150   -8.6740 C.2     1  UNL1        0.0420
      3  C         19.8090  -23.1050   -9.6620 C.2     1  UNL1        0.0330
      4  C         19.1980  -22.3190  -10.6420 C.2     1  UNL1        0.0170
      5  C         17.8130  -22.1290  -10.6230 C.2     1  UNL1        0.0090
      6  C         17.0110  -22.7320   -9.6380 C.2     1  UNL1       -0.0390
      7  C         15.5290  -22.4730   -9.6710 C.3     1  UNL1        0.0500
      8  S         16.7140  -24.3190   -7.3460 S.O2    1  UNL1        0.2460
      9  O         17.6570  -24.9750   -6.4710 O.2     1  UNL1       -0.2060
     10  O         15.6130  -25.0400   -7.9510 O.2     1  UNL1       -0.2060
     11  N         16.0320  -22.9530   -6.5810 N.pl3   1  UNL1       -0.1810
     12  H         15.1350  -23.2440   -6.1890 H       1  UNL1        0.1460
     13  C         16.8680  -22.3870   -5.5610 C.2     1  UNL1        0.0230
     14  C         16.6170  -22.6640   -4.2180 C.2     1  UNL1        0.0240
     15  C         17.4530  -22.1360   -3.2340 C.2     1  UNL1        0.0020
     16  C         18.5480  -21.3480   -3.5960 C.2     1  UNL1        0.0070
     17  C         18.8270  -21.0960   -4.9440 C.2     1  UNL1       -0.0600
     18  C         19.9950  -20.2420   -5.3370 C.3     1  UNL1        0.0480
     19  C         17.9730  -21.6180   -5.9260 C.2     1  UNL1        0.0310
     20  C         21.2740  -23.3520   -9.6580 C.2     1  UNL1        0.2520
     21  O         21.7510  -24.1610   -8.8720 O.2     1  UNL1       -0.2680
     22  N         22.0200  -22.6160  -10.5540 N.am    1  UNL1       -0.3520
     23  H         21.5650  -21.9300  -11.1410 H       1  UNL1        0.1630
     24  C         23.4640  -22.8000  -10.6850 C.3     1  UNL1        0.0880
     25  C         24.2010  -21.5270  -10.2500 C.3     1  UNL1        0.0550
     26  C         25.5980  -21.4720  -10.8600 C.3     1  UNL1        0.2740
     27  N         25.5920  -21.4800  -12.3290 N.3     1  UNL1        0.0840
     28  C         25.8770  -20.1630  -12.8920 C.3     1  UNL1        0.3090
     29  C         24.3760  -22.0520  -12.9220 C.3     1  UNL1        0.2740
     30  C         23.8470  -23.2310  -12.1100 C.3     1  UNL1        0.0550
@<TRIPOS>BOND
     1    29    27    1
     2    29    30    1
     3    28    27    1
     4    27    26    1
     5    30    24    1
     6    23    22    1
     7    26    25    1
     8    24    22    1
     9    24    25    1
    10     4     5    2
    11     4     3    1
    12     5     6    1
    13    22    20   am
    14     7     6    1
    15     3    20    1
    16     3     2    2
    17    20    21    2
    18     6     1    2
    19     2     1    1
    20     1     8    1
    21    10     8    2
    22     8    11    1
    23     8     9    2
    24    11    12    1
    25    11    13    1
    26    19    13    2
    27    19    17    1
    28    13    14    1
    29    18    17    1
    30    17    16    2
    31    14    15    2
    32    16    15    1
