@<TRIPOS>MOLECULE
41104_out_ligand_01.pdbqt
 31 33 0 0 0
SMALL
GASTEIGER

@<TRIPOS>ATOM
      1  C         17.4500  -23.2320   -8.9880 C.2     1  UNL1        0.0970
      2  C         18.8410  -23.3840   -9.1100 C.2     1  UNL1        0.0430
      3  C         19.5390  -22.7160  -10.1230 C.2     1  UNL1        0.0330
      4  C         18.8380  -21.9130  -11.0290 C.2     1  UNL1        0.0190
      5  C         17.4530  -21.7650  -10.9040 C.2     1  UNL1        0.0260
      6  C         16.7520  -22.4180   -9.8820 C.2     1  UNL1        0.0570
      7 CL         15.0410  -22.1780   -9.8420 Cl      1  UNL1       -0.0830
      8  S         16.6220  -24.0810   -7.6690 S.O2    1  UNL1        0.2470
      9  O         15.5510  -24.8600   -8.2540 O.2     1  UNL1       -0.2050
     10  O         17.6320  -24.6970   -6.8380 O.2     1  UNL1       -0.2050
     11  N         15.9530  -22.7770   -6.7910 N.pl3   1  UNL1       -0.1810
     12  H         15.7990  -22.0280   -7.4720 H       1  UNL1        0.1460
     13  C         16.7950  -22.2990   -5.7280 C.2     1  UNL1        0.0290
     14  C         16.5000  -22.6320   -4.3990 C.2     1  UNL1       -0.0400
     15  C         17.3740  -22.1970   -3.3930 C.2     1  UNL1        0.0090
     16  C         15.3070  -23.4680   -4.0360 C.3     1  UNL1        0.0500
     17  C         18.5110  -21.4430   -3.7060 C.2     1  UNL1        0.0070
     18  C         18.8080  -21.1270   -5.0340 C.2     1  UNL1       -0.0600
     19  C         20.0250  -20.3190   -5.3790 C.3     1  UNL1        0.0480
     20  C         17.9390  -21.5550   -6.0430 C.2     1  UNL1        0.0310
     21  C         21.0110  -22.9120  -10.2190 C.2     1  UNL1        0.2520
     22  O         21.6090  -23.4780   -9.3130 O.2     1  UNL1       -0.2680
     23  N         21.6270  -22.3950  -11.3420 N.am    1  UNL1       -0.3520
     24  H         21.1120  -21.7360  -11.9100 H       1  UNL1        0.1630
     25  C         23.0810  -22.4290  -11.4950 C.3     1  UNL1        0.0880
     26  C         23.7480  -21.4490  -10.5310 C.3     1  UNL1        0.0550
     27  C         25.2760  -21.5060  -10.6450 C.3     1  UNL1        0.2740
     28  N         25.7530  -21.8600  -11.9870 N.3     1  UNL1        0.0840
     29  C         27.1210  -21.3980  -12.2020 C.3     1  UNL1        0.3090
     30  C         24.8490  -21.3950  -13.0350 C.3     1  UNL1        0.2740
     31  C         23.5060  -22.1280  -12.9440 C.3     1  UNL1        0.0550
@<TRIPOS>BOND
     1    30    31    1
     2    30    28    1
     3    31    25    1
     4    29    28    1
     5    28    27    1
     6    24    23    1
     7    25    23    1
     8    25    26    1
     9    23    21   am
    10     4     5    2
    11     4     3    1
    12     5     6    1
    13    27    26    1
    14    21     3    1
    15    21    22    2
    16     3     2    2
    17     6     7    1
    18     6     1    2
    19     2     1    1
    20     1     8    1
    21     9     8    2
    22     8    10    2
    23     8    11    1
    24    12    11    1
    25    11    13    1
    26    20    13    2
    27    20    18    1
    28    13    14    1
    29    19    18    1
    30    18    17    2
    31    14    16    1
    32    14    15    2
    33    17    15    1
