@<TRIPOS>MOLECULE
41102_out_ligand_01.pdbqt
 30 32 0 0 0
SMALL
GASTEIGER

@<TRIPOS>ATOM
      1  C         17.6360  -23.5930   -8.6140 C.2     1  UNL1        0.0970
      2  C         19.0260  -23.8210   -8.6070 C.2     1  UNL1        0.0430
      3  C         19.8380  -23.2470   -9.5910 C.2     1  UNL1        0.0330
      4  C         19.2520  -22.4670  -10.5930 C.2     1  UNL1        0.0190
      5  C         17.8730  -22.2390  -10.5960 C.2     1  UNL1        0.0260
      6  C         17.0570  -22.7950   -9.6030 C.2     1  UNL1        0.0570
      7 CL         15.3710  -22.4520   -9.7120 Cl      1  UNL1       -0.0830
      8  S         16.6670  -24.3260   -7.3210 S.O2    1  UNL1        0.2470
      9  O         15.5550  -25.0040   -7.9590 O.2     1  UNL1       -0.2050
     10  O         17.5710  -25.0330   -6.4450 O.2     1  UNL1       -0.2050
     11  N         15.9910  -22.9570   -6.5630 N.pl3   1  UNL1       -0.1810
     12  H         15.1020  -23.2450   -6.1510 H       1  UNL1        0.1460
     13  C         16.8350  -22.3810   -5.5550 C.2     1  UNL1        0.0230
     14  C         16.5810  -22.6280   -4.2060 C.2     1  UNL1        0.0240
     15  C         17.4360  -22.1070   -3.2340 C.2     1  UNL1        0.0020
     16  C         18.5460  -21.3510   -3.6120 C.2     1  UNL1        0.0070
     17  C         18.8120  -21.1060   -4.9650 C.2     1  UNL1       -0.0600
     18  C         20.0350  -20.3400   -5.3740 C.3     1  UNL1        0.0480
     19  C         17.9550  -21.6430   -5.9360 C.2     1  UNL1        0.0310
     20  C         21.3100  -23.4620   -9.6370 C.2     1  UNL1        0.2520
     21  O         21.8390  -24.1980   -8.8110 O.2     1  UNL1       -0.2680
     22  N         22.0010  -22.8210  -10.6430 N.am    1  UNL1       -0.3520
     23  H         21.5190  -22.2150  -11.2920 H       1  UNL1        0.1630
     24  C         23.4590  -22.8700  -10.7180 C.3     1  UNL1        0.0880
     25  C         23.9340  -23.1890  -12.1420 C.3     1  UNL1        0.0550
     26  C         24.2630  -21.9180  -12.9210 C.3     1  UNL1        0.2740
     27  N         25.2860  -21.0810  -12.2840 N.3     1  UNL1        0.0840
     28  C         26.5860  -21.2040  -12.9400 C.3     1  UNL1        0.3090
     29  C         25.4150  -21.2880  -10.8340 C.3     1  UNL1        0.2740
     30  C         24.0640  -21.5630  -10.1850 C.3     1  UNL1        0.0550
@<TRIPOS>BOND
     1    28    27    1
     2    26    27    1
     3    26    25    1
     4    27    29    1
     5    25    24    1
     6    23    22    1
     7    29    30    1
     8    24    22    1
     9    24    30    1
    10    22    20   am
    11     5     4    2
    12     5     6    1
    13     4     3    1
    14     7     6    1
    15    20     3    1
    16    20    21    2
    17     6     1    2
    18     3     2    2
    19     1     2    1
    20     1     8    1
    21     9     8    2
    22     8    11    1
    23     8    10    2
    24    11    12    1
    25    11    13    1
    26    19    13    2
    27    19    17    1
    28    13    14    1
    29    18    17    1
    30    17    16    2
    31    14    15    2
    32    16    15    1
