@<TRIPOS>MOLECULE
41107_out_ligand_01.pdbqt
 29 32 0 0 0
SMALL
GASTEIGER

@<TRIPOS>ATOM
      1  C         22.3470  -22.1550  -11.6750 C.2     1  UNL1        0.0330
      2  C         22.4060  -22.6310  -10.3680 C.2     1  UNL1        0.0190
      3  C         21.2330  -22.7480   -9.6100 C.2     1  UNL1        0.0310
      4  C         19.9760  -22.3980  -10.1300 C.2     1  UNL1        0.0430
      5  C         19.9400  -21.8510  -11.4300 C.2     1  UNL1       -0.0300
      6  C         21.1170  -21.7490  -12.1970 C.2     1  UNL1        0.0260
      7  C         18.6500  -21.3930  -12.0520 C.3     1  UNL1        0.0420
      8  C         17.7050  -20.9240  -10.9690 C.3     1  UNL1        0.0250
      9  C         17.5150  -22.0400   -9.9580 C.3     1  UNL1        0.1330
     10  N         18.7630  -22.5410   -9.3590 N.am    1  UNL1       -0.3130
     11  C         18.6980  -23.3940   -8.2350 C.2     1  UNL1        0.2580
     12  O         19.5630  -24.1750   -7.8470 O.2     1  UNL1       -0.2670
     13  C         23.5640  -22.0240  -12.5250 C.2     1  UNL1        0.2560
     14  N         23.4000  -21.2440  -13.6560 N.am    1  UNL1       -0.3230
     15  H         22.5200  -20.7530  -13.7510 H       1  UNL1        0.1690
     16  O         24.5940  -22.5720  -12.1490 O.2     1  UNL1       -0.2670
     17  C         24.3550  -20.9750  -14.6600 C.2     1  UNL1        0.0350
     18  C         25.1510  -19.8360  -14.4930 C.2     1  UNL1        0.0290
     19  C         26.1200  -19.4980  -15.4400 C.2     1  UNL1        0.0030
     20  C         26.2980  -20.2950  -16.5690 C.2     1  UNL1        0.0070
     21  C         25.4990  -21.4270  -16.7640 C.2     1  UNL1       -0.0600
     22  C         25.7050  -22.3070  -17.9600 C.3     1  UNL1        0.0480
     23  C         24.5370  -21.7650  -15.7970 C.2     1  UNL1        0.0360
     24  C         17.4580  -23.3890   -7.4300 C.2     1  UNL1        0.0320
     25  C         17.2550  -22.3910   -6.4700 C.2     1  UNL1        0.0170
     26  C         16.0890  -22.4060   -5.7030 C.2     1  UNL1        0.0010
     27  C         15.1450  -23.4180   -5.8890 C.2     1  UNL1        0.0000
     28  C         15.3640  -24.4240   -6.8330 C.2     1  UNL1        0.0010
     29  C         16.5270  -24.4160   -7.6030 C.2     1  UNL1        0.0170
@<TRIPOS>BOND
     1    22    21    1
     2    21    20    2
     3    21    23    1
     4    20    19    1
     5    23    17    2
     6    19    18    2
     7    17    18    1
     8    17    14    1
     9    15    14    1
    10    14    13   am
    11    13    16    2
    12    13     1    1
    13     6     1    2
    14     6     5    1
    15     7     5    1
    16     7     8    1
    17     1     2    1
    18     5     4    2
    19     8     9    1
    20     2     3    2
    21     4     3    1
    22     4    10    1
    23     9    10    1
    24    10    11   am
    25    11    12    2
    26    11    24    1
    27    29    24    2
    28    29    28    1
    29    24    25    1
    30    28    27    2
    31    25    26    2
    32    27    26    1
