@<TRIPOS>MOLECULE
41108_out_ligand_01.pdbqt
 29 32 0 0 0
SMALL
GASTEIGER

@<TRIPOS>ATOM
      1  C         22.5130  -22.2290  -11.7290 C.2     1  UNL1        0.0330
      2  C         22.5710  -23.0000  -10.5690 C.2     1  UNL1        0.0190
      3  C         21.4200  -23.1830   -9.7900 C.2     1  UNL1        0.0310
      4  C         20.1890  -22.6100  -10.1440 C.2     1  UNL1        0.0430
      5  C         20.1460  -21.8130  -11.3090 C.2     1  UNL1       -0.0300
      6  C         21.3070  -21.6200  -12.0820 C.2     1  UNL1        0.0260
      7  C         18.8880  -21.1140  -11.7520 C.3     1  UNL1        0.0420
      8  C         17.6610  -21.7870  -11.1730 C.3     1  UNL1        0.0250
      9  C         17.8420  -21.9490   -9.6740 C.3     1  UNL1        0.1330
     10  N         19.0090  -22.7770   -9.3330 N.am    1  UNL1       -0.3130
     11  C         18.9390  -23.7150   -8.2870 C.2     1  UNL1        0.2580
     12  O         19.6550  -24.7050   -8.1540 O.2     1  UNL1       -0.2670
     13  C         23.7100  -22.0020  -12.5860 C.2     1  UNL1        0.2560
     14  N         23.4560  -21.3360  -13.7710 N.am    1  UNL1       -0.3230
     15  H         22.5210  -20.9750  -13.9040 H       1  UNL1        0.1690
     16  O         24.7990  -22.3800  -12.1710 O.2     1  UNL1       -0.2670
     17  C         24.3780  -21.0190  -14.7910 C.2     1  UNL1        0.0350
     18  C         24.4490  -21.8910  -15.8830 C.2     1  UNL1        0.0300
     19  C         25.3400  -21.6530  -16.9340 C.2     1  UNL1        0.0090
     20  C         26.1880  -20.5420  -16.9040 C.2     1  UNL1       -0.0620
     21  C         27.1210  -20.2610  -18.0430 C.3     1  UNL1        0.0480
     22  C         26.1080  -19.6630  -15.8190 C.2     1  UNL1        0.0090
     23  C         25.2150  -19.9040  -14.7680 C.2     1  UNL1        0.0300
     24  C         17.9020  -23.5230   -7.2410 C.2     1  UNL1        0.0320
     25  C         18.1470  -22.6980   -6.1380 C.2     1  UNL1        0.0170
     26  C         17.1670  -22.5460   -5.1580 C.2     1  UNL1        0.0010
     27  C         15.9540  -23.2300   -5.2710 C.2     1  UNL1        0.0000
     28  C         15.7220  -24.0730   -6.3590 C.2     1  UNL1        0.0010
     29  C         16.6990  -24.2290   -7.3430 C.2     1  UNL1        0.0170
@<TRIPOS>BOND
     1    21    20    1
     2    19    20    2
     3    19    18    1
     4    20    22    1
     5    18    17    2
     6    22    23    2
     7    17    23    1
     8    17    14    1
     9    15    14    1
    10    14    13   am
    11    13    16    2
    12    13     1    1
    13     6     1    2
    14     6     5    1
    15     7     5    1
    16     7     8    1
    17     1     2    1
    18     5     4    2
    19     8     9    1
    20     2     3    2
    21     4     3    1
    22     4    10    1
    23     9    10    1
    24    10    11   am
    25    11    12    2
    26    11    24    1
    27    29    24    2
    28    29    28    1
    29    24    25    1
    30    28    27    2
    31    25    26    2
    32    27    26    1
