@<TRIPOS>MOLECULE
41109_out_ligand_01.pdbqt
 30 33 0 0 0
SMALL
GASTEIGER

@<TRIPOS>ATOM
      1  C         22.0530  -22.1220   -9.8560 C.2     1  UNL1        0.0330
      2  C         21.9840  -22.3300   -8.4800 C.2     1  UNL1        0.0190
      3  C         20.7400  -22.4860   -7.8560 C.2     1  UNL1        0.0310
      4  C         19.5370  -22.4390   -8.5810 C.2     1  UNL1        0.0430
      5  C         19.6240  -22.3000   -9.9820 C.2     1  UNL1       -0.0300
      6  C         20.8750  -22.1250  -10.6050 C.2     1  UNL1        0.0260
      7  C         18.3960  -22.2970  -10.8490 C.3     1  UNL1        0.0420
      8  C         17.3200  -23.1390  -10.2020 C.3     1  UNL1        0.0250
      9  C         17.0600  -22.6230   -8.8000 C.3     1  UNL1        0.1330
     10  N         18.2510  -22.5760   -7.9360 N.am    1  UNL1       -0.3130
     11  C         18.0930  -22.3530   -6.5500 C.2     1  UNL1        0.2580
     12  O         18.9360  -21.9150   -5.7700 O.2     1  UNL1       -0.2670
     13  C         23.3530  -21.9350  -10.5620 C.2     1  UNL1        0.2560
     14  N         23.4840  -22.6650  -11.7290 N.am    1  UNL1       -0.3220
     15  H         22.7470  -23.3270  -11.9200 H       1  UNL1        0.1690
     16  O         24.1870  -21.2020  -10.0450 O.2     1  UNL1       -0.2670
     17  C         24.5700  -22.6680  -12.6410 C.2     1  UNL1        0.0410
     18  C         25.7420  -23.3890  -12.3890 C.2     1  UNL1        0.0300
     19  C         26.8020  -23.3750  -13.2930 C.2     1  UNL1        0.0030
     20  C         26.7070  -22.6350  -14.4640 C.2     1  UNL1        0.0070
     21  C         25.5510  -21.8950  -14.7520 C.2     1  UNL1       -0.0540
     22  C         25.5130  -21.1130  -16.0390 C.3     1  UNL1        0.0490
     23  C         24.4680  -21.9050  -13.8370 C.2     1  UNL1       -0.0290
     24  C         23.2140  -21.1150  -14.1280 C.3     1  UNL1        0.0510
     25  C         16.7740  -22.6420   -5.9460 C.2     1  UNL1        0.0320
     26  C         16.6430  -23.7310   -5.0810 C.2     1  UNL1        0.0170
     27  C         15.3970  -24.0190   -4.5250 C.2     1  UNL1        0.0010
     28  C         14.2900  -23.2290   -4.8460 C.2     1  UNL1        0.0000
     29  C         14.4210  -22.1550   -5.7290 C.2     1  UNL1        0.0010
     30  C         15.6650  -21.8630   -6.2890 C.2     1  UNL1        0.0170
@<TRIPOS>BOND
     1    22    21    1
     2    21    20    2
     3    21    23    1
     4    20    19    1
     5    24    23    1
     6    23    17    2
     7    19    18    2
     8    17    18    1
     9    17    14    1
    10    15    14    1
    11    14    13   am
    12     7     8    1
    13     7     5    1
    14     6     5    1
    15     6     1    2
    16    13    16    2
    17    13     1    1
    18     8     9    1
    19     5     4    2
    20     1     2    1
    21     9    10    1
    22     4    10    1
    23     4     3    1
    24     2     3    2
    25    10    11   am
    26    11    25    1
    27    11    12    2
    28    30    25    2
    29    30    29    1
    30    25    26    1
    31    29    28    2
    32    26    27    2
    33    28    27    1
