@<TRIPOS>MOLECULE
41113_out_ligand_01.pdbqt
 29 32 0 0 0
SMALL
GASTEIGER

@<TRIPOS>ATOM
      1  C         22.6960  -22.2300  -11.8200 C.2     1  UNL1        0.0330
      2  C         22.7790  -23.0050  -10.6650 C.2     1  UNL1        0.0190
      3  C         21.6410  -23.2060   -9.8730 C.2     1  UNL1        0.0310
      4  C         20.3980  -22.6450  -10.2070 C.2     1  UNL1        0.0430
      5  C         20.3290  -21.8420  -11.3650 C.2     1  UNL1       -0.0300
      6  C         21.4780  -21.6330  -12.1540 C.2     1  UNL1        0.0260
      7  C         19.0590  -21.1530  -11.7850 C.3     1  UNL1        0.0420
      8  C         17.8470  -21.8400  -11.1910 C.3     1  UNL1        0.0250
      9  C         18.0540  -22.0080   -9.6970 C.3     1  UNL1        0.1330
     10  N         19.2320  -22.8300   -9.3800 N.am    1  UNL1       -0.3130
     11  C         19.1830  -23.7850   -8.3470 C.2     1  UNL1        0.2580
     12  O         19.9080  -24.7710   -8.2390 O.2     1  UNL1       -0.2670
     13  C         23.8780  -21.9850  -12.6970 C.2     1  UNL1        0.2560
     14  O         24.9660  -22.4170  -12.3350 O.2     1  UNL1       -0.2670
     15  N         23.6170  -21.2430  -13.8340 N.am    1  UNL1       -0.3230
     16  H         22.6900  -20.8450  -13.9180 H       1  UNL1        0.1690
     17  C         24.5250  -20.8910  -14.8540 C.2     1  UNL1        0.0350
     18  C         25.3830  -19.7870  -14.7900 C.2     1  UNL1        0.0320
     19  C         26.2590  -19.5090  -15.8440 C.2     1  UNL1        0.0440
     20  C         26.2810  -20.3360  -16.9580 C.2     1  UNL1        0.1160
     21  F         27.1210  -20.0700  -17.9660 F       1  UNL1       -0.2060
     22  C         25.4420  -21.4410  -17.0390 C.2     1  UNL1        0.0440
     23  C         24.5660  -21.7180  -15.9860 C.2     1  UNL1        0.0320
     24  C         18.1600  -23.6170   -7.2850 C.2     1  UNL1        0.0320
     25  C         18.3930  -22.7630   -6.2010 C.2     1  UNL1        0.0170
     26  C         17.4230  -22.6320   -5.2040 C.2     1  UNL1        0.0010
     27  C         16.2390  -23.3650   -5.2840 C.2     1  UNL1        0.0000
     28  C         16.0200  -24.2370   -6.3520 C.2     1  UNL1        0.0010
     29  C         16.9840  -24.3720   -7.3510 C.2     1  UNL1        0.0170
@<TRIPOS>BOND
     1    21    20    1
     2    22    20    2
     3    22    23    1
     4    20    19    1
     5    23    17    2
     6    19    18    2
     7    17    18    1
     8    17    15    1
     9    16    15    1
    10    15    13   am
    11    13    14    2
    12    13     1    1
    13     6     1    2
    14     6     5    1
    15     1     2    1
    16     7     5    1
    17     7     8    1
    18     5     4    2
    19     8     9    1
    20     2     3    2
    21     4     3    1
    22     4    10    1
    23     9    10    1
    24    10    11   am
    25    11    12    2
    26    11    24    1
    27    29    24    2
    28    29    28    1
    29    24    25    1
    30    28    27    2
    31    25    26    2
    32    27    26    1
