@<TRIPOS>MOLECULE
41112_out_ligand_01.pdbqt
 29 32 0 0 0
SMALL
GASTEIGER

@<TRIPOS>ATOM
      1  C         21.6420  -21.7050  -12.2810 C.2     1  UNL1        0.0330
      2  C         20.3160  -21.2770  -12.2410 C.2     1  UNL1        0.0190
      3  C         19.4550  -21.7550  -11.2430 C.2     1  UNL1        0.0310
      4  C         19.8880  -22.6680  -10.2680 C.2     1  UNL1        0.0430
      5  C         21.2380  -23.0770  -10.3050 C.2     1  UNL1       -0.0300
      6  C         22.1040  -22.5840  -11.3010 C.2     1  UNL1        0.0260
      7  C         21.8160  -24.0150   -9.2780 C.3     1  UNL1        0.0420
      8  C         20.7280  -24.8360   -8.6200 C.3     1  UNL1        0.0250
      9  C         19.6290  -23.9090   -8.1340 C.3     1  UNL1        0.1330
     10  N         19.0120  -23.1430   -9.2270 N.am    1  UNL1       -0.3130
     11  C         17.6200  -22.9370   -9.2600 C.2     1  UNL1        0.2580
     12  O         16.9500  -22.6840  -10.2590 O.2     1  UNL1       -0.2670
     13  C         22.5970  -21.2220  -13.3190 C.2     1  UNL1        0.2560
     14  O         22.2490  -20.2950  -14.0400 O.2     1  UNL1       -0.2670
     15  N         23.8200  -21.8690  -13.3300 N.am    1  UNL1       -0.3230
     16  H         23.9970  -22.5260  -12.5820 H       1  UNL1        0.1690
     17  C         24.8930  -21.6480  -14.2190 C.2     1  UNL1        0.0370
     18  C         25.9850  -20.9110  -13.7320 C.2     1  UNL1        0.0290
     19  C         27.0940  -20.6490  -14.5420 C.2     1  UNL1        0.0050
     20  C         27.1200  -21.1250  -15.8490 C.2     1  UNL1        0.0420
     21  C         26.0420  -21.8570  -16.3290 C.2     1  UNL1        0.1180
     22  F         26.0730  -22.3170  -17.5880 F       1  UNL1       -0.2060
     23  C         24.9330  -22.1230  -15.5300 C.2     1  UNL1        0.0710
     24  C         16.8650  -23.0460   -7.9870 C.2     1  UNL1        0.0320
     25  C         16.8170  -21.9700   -7.0930 C.2     1  UNL1        0.0170
     26  C         16.0860  -22.0870   -5.9090 C.2     1  UNL1        0.0010
     27  C         15.3940  -23.2660   -5.6300 C.2     1  UNL1        0.0000
     28  C         15.4220  -24.3290   -6.5350 C.2     1  UNL1        0.0010
     29  C         16.1510  -24.2180   -7.7200 C.2     1  UNL1        0.0170
@<TRIPOS>BOND
     1    22    21    1
     2    21    20    2
     3    21    23    1
     4    20    19    1
     5    23    17    2
     6    19    18    2
     7    17    18    1
     8    17    15    1
     9    14    13    2
    10    15    13   am
    11    15    16    1
    12    13     1    1
    13     1     2    2
    14     1     6    1
    15     2     3    1
    16     6     5    2
    17     3     4    2
    18     5     4    1
    19     5     7    1
    20     4    10    1
    21    12    11    2
    22     7     8    1
    23    11    10   am
    24    11    24    1
    25    10     9    1
    26     8     9    1
    27    24    29    2
    28    24    25    1
    29    29    28    1
    30    25    26    2
    31    28    27    2
    32    26    27    1
