@<TRIPOS>MOLECULE
41110_out_ligand_01.pdbqt
 30 33 0 0 0
SMALL
GASTEIGER

@<TRIPOS>ATOM
      1  C         22.0190  -21.5690  -12.4980 C.2     1  UNL1        0.0330
      2  C         22.4630  -22.2320  -11.3550 C.2     1  UNL1        0.0190
      3  C         21.5760  -22.4730  -10.2980 C.2     1  UNL1        0.0310
      4  C         20.2330  -22.0650  -10.3470 C.2     1  UNL1        0.0430
      5  C         19.7810  -21.4600  -11.5390 C.2     1  UNL1       -0.0300
      6  C         20.6770  -21.2010  -12.5940 C.2     1  UNL1        0.0260
      7  C         18.3470  -21.0400  -11.7110 C.3     1  UNL1        0.0420
      8  C         17.4540  -21.9440  -10.8910 C.3     1  UNL1        0.0250
      9  C         17.9130  -21.9190   -9.4460 C.3     1  UNL1        0.1330
     10  N         19.3240  -22.2900   -9.2470 N.am    1  UNL1       -0.3130
     11  C         19.7960  -22.5440   -7.9400 C.2     1  UNL1        0.2580
     12  O         20.9600  -22.4810   -7.5490 O.2     1  UNL1       -0.2670
     13  C         22.9290  -21.2760  -13.6440 C.2     1  UNL1        0.2560
     14  N         24.0670  -22.0620  -13.6910 N.am    1  UNL1       -0.3220
     15  H         24.2220  -22.6670  -12.8980 H       1  UNL1        0.1690
     16  O         22.6210  -20.3670  -14.4030 O.2     1  UNL1       -0.2670
     17  C         25.0890  -22.0570  -14.6710 C.2     1  UNL1        0.0410
     18  C         25.6700  -23.2860  -15.0520 C.2     1  UNL1       -0.0350
     19  C         26.6860  -23.2970  -16.0240 C.2     1  UNL1        0.0090
     20  C         25.2500  -24.6020  -14.4510 C.3     1  UNL1        0.0500
     21  C         27.1210  -22.1140  -16.6190 C.2     1  UNL1        0.0070
     22  C         26.5390  -20.8970  -16.2640 C.2     1  UNL1       -0.0600
     23  C         27.0220  -19.6140  -16.8750 C.3     1  UNL1        0.0480
     24  C         25.5350  -20.8790  -15.2830 C.2     1  UNL1        0.0370
     25  C         18.8060  -22.9010   -6.9020 C.2     1  UNL1        0.0320
     26  C         18.1400  -24.1290   -6.9660 C.2     1  UNL1        0.0170
     27  C         17.2230  -24.4650   -5.9700 C.2     1  UNL1        0.0010
     28  C         16.9870  -23.5830   -4.9130 C.2     1  UNL1        0.0000
     29  C         17.6730  -22.3670   -4.8410 C.2     1  UNL1        0.0010
     30  C         18.5910  -22.0260   -5.8340 C.2     1  UNL1        0.0170
@<TRIPOS>BOND
     1    23    22    1
     2    21    22    2
     3    21    19    1
     4    22    24    1
     5    19    18    2
     6    24    17    2
     7    18    17    1
     8    18    20    1
     9    17    14    1
    10    16    13    2
    11    14    13   am
    12    14    15    1
    13    13     1    1
    14     6     1    2
    15     6     5    1
    16     1     2    1
    17     7     5    1
    18     7     8    1
    19     5     4    2
    20     2     3    2
    21     8     9    1
    22     4     3    1
    23     4    10    1
    24     9    10    1
    25    10    11   am
    26    11    12    2
    27    11    25    1
    28    26    25    2
    29    26    27    1
    30    25    30    1
    31    27    28    2
    32    30    29    2
    33    28    29    1
