@<TRIPOS>MOLECULE
41111_out_ligand_01.pdbqt
 30 33 0 0 0
SMALL
GASTEIGER

@<TRIPOS>ATOM
      1  C         20.1470  -22.2120  -10.2800 C.2     1  UNL1        0.0330
      2  C         19.9850  -21.7050  -11.5680 C.2     1  UNL1        0.0190
      3  C         21.0940  -21.5800  -12.4170 C.2     1  UNL1        0.0310
      4  C         22.3850  -21.9510  -12.0080 C.2     1  UNL1        0.0430
      5  C         22.5340  -22.4830  -10.7090 C.2     1  UNL1       -0.0300
      6  C         21.4160  -22.6200   -9.8630 C.2     1  UNL1        0.0260
      7  C         23.8640  -22.9560  -10.1880 C.3     1  UNL1        0.0420
      8  C         25.0050  -22.3050  -10.9430 C.3     1  UNL1        0.0250
      9  C         24.7740  -22.4740  -12.4340 C.3     1  UNL1        0.1330
     10  N         23.5230  -21.8460  -12.8850 N.am    1  UNL1       -0.3130
     11  C         23.4760  -21.1410  -14.1020 C.2     1  UNL1        0.2580
     12  O         22.6610  -20.2700  -14.4030 O.2     1  UNL1       -0.2670
     13  C         18.9980  -22.3670   -9.3430 C.2     1  UNL1        0.2560
     14  N         19.3380  -22.8150   -8.0800 N.am    1  UNL1       -0.3230
     15  H         20.2990  -23.0960   -7.9360 H       1  UNL1        0.1690
     16  O         17.8740  -22.1230   -9.7640 O.2     1  UNL1       -0.2670
     17  C         18.4750  -23.0180   -6.9820 C.2     1  UNL1        0.0350
     18  C         17.4340  -23.9410   -6.9690 C.2     1  UNL1        0.0300
     19  C         16.6200  -24.0740   -5.8390 C.2     1  UNL1        0.0090
     20  C         16.8290  -23.2830   -4.7000 C.2     1  UNL1       -0.0560
     21  C         15.9290  -23.4580   -3.5080 C.3     1  UNL1        0.0490
     22  C         17.8750  -22.3430   -4.7040 C.2     1  UNL1       -0.0540
     23  C         18.6860  -22.2220   -5.8470 C.2     1  UNL1        0.0370
     24  C         18.1450  -21.4670   -3.5110 C.3     1  UNL1        0.0490
     25  C         24.5010  -21.4460  -15.1310 C.2     1  UNL1        0.0320
     26  C         25.5010  -20.5030  -15.3930 C.2     1  UNL1        0.0170
     27  C         26.4620  -20.7670  -16.3690 C.2     1  UNL1        0.0010
     28  C         26.4140  -21.9620  -17.0900 C.2     1  UNL1        0.0000
     29  C         25.4010  -22.8910  -16.8460 C.2     1  UNL1        0.0010
     30  C         24.4370  -22.6320  -15.8710 C.2     1  UNL1        0.0170
@<TRIPOS>BOND
     1    28    29    2
     2    28    27    1
     3    29    30    1
     4    27    26    2
     5    30    25    2
     6    26    25    1
     7    25    11    1
     8    12    11    2
     9    11    10   am
    10    10     9    1
    11    10     4    1
    12     9     8    1
    13     3     4    2
    14     3     2    1
    15     4     5    1
    16     2     1    2
    17     8     7    1
    18     5     7    1
    19     5     6    2
    20     1     6    1
    21     1    13    1
    22    16    13    2
    23    13    14   am
    24    14    15    1
    25    14    17    1
    26    17    18    2
    27    17    23    1
    28    18    19    1
    29    23    22    2
    30    19    20    2
    31    22    20    1
    32    22    24    1
    33    20    21    1
