@<TRIPOS>MOLECULE
41114_out_ligand_01.pdbqt
 29 32 0 0 0
SMALL
GASTEIGER

@<TRIPOS>ATOM
      1  C         23.5660  -22.1290  -12.5690 C.2     1  UNL1        0.0330
      2  C         23.7400  -22.8800  -11.4090 C.2     1  UNL1        0.0190
      3  C         22.6730  -23.0530  -10.5180 C.2     1  UNL1        0.0310
      4  C         21.4090  -22.4880  -10.7580 C.2     1  UNL1        0.0430
      5  C         21.2490  -21.7130  -11.9270 C.2     1  UNL1       -0.0300
      6  C         22.3290  -21.5290  -12.8130 C.2     1  UNL1        0.0260
      7  C         19.9520  -21.0240  -12.2560 C.3     1  UNL1        0.0420
      8  C         18.7900  -21.6910  -11.5490 C.3     1  UNL1        0.0250
      9  C         19.1170  -21.8240  -10.0730 C.3     1  UNL1        0.1330
     10  N         20.3150  -22.6400   -9.8300 N.am    1  UNL1       -0.3130
     11  C         20.3530  -23.5560   -8.7620 C.2     1  UNL1        0.2580
     12  O         21.0860  -24.5380   -8.6760 O.2     1  UNL1       -0.2670
     13  C         24.6720  -21.9110  -13.5450 C.2     1  UNL1        0.2560
     14  O         25.8110  -22.2150  -13.2100 O.2     1  UNL1       -0.2670
     15  N         24.2870  -21.3400  -14.7420 N.am    1  UNL1       -0.3220
     16  H         23.3270  -21.0240  -14.8230 H       1  UNL1        0.1690
     17  C         25.0940  -21.0430  -15.8660 C.2     1  UNL1        0.0520
     18  C         25.8950  -19.9010  -15.9510 C.2     1  UNL1        0.0310
     19  C         26.6780  -19.6590  -17.0860 C.2     1  UNL1        0.0020
     20  C         26.6730  -20.5590  -18.1490 C.2     1  UNL1        0.0020
     21  C         25.8850  -21.7050  -18.0810 C.2     1  UNL1        0.0210
     22  C         25.1030  -21.9450  -16.9470 C.2     1  UNL1        0.0370
     23 BR         24.0530  -23.5340  -16.9190 Br      1  UNL1       -0.0490
     24  C         19.4220  -23.3460   -7.6260 C.2     1  UNL1        0.0320
     25  C         19.5350  -22.1790   -6.8630 C.2     1  UNL1        0.0170
     26  C         18.6560  -21.9590   -5.8030 C.2     1  UNL1        0.0010
     27  C         17.6580  -22.8920   -5.5170 C.2     1  UNL1        0.0000
     28  C         17.5280  -24.0440   -6.2970 C.2     1  UNL1        0.0010
     29  C         18.4050  -24.2710   -7.3570 C.2     1  UNL1        0.0170
@<TRIPOS>BOND
     1    20    21    2
     2    20    19    1
     3    21    22    1
     4    19    18    2
     5    22    23    1
     6    22    17    2
     7    18    17    1
     8    17    15    1
     9    16    15    1
    10    15    13   am
    11    13    14    2
    12    13     1    1
    13     6     1    2
    14     6     5    1
    15     1     2    1
    16     7     5    1
    17     7     8    1
    18     5     4    2
    19     8     9    1
    20     2     3    2
    21     4     3    1
    22     4    10    1
    23     9    10    1
    24    10    11   am
    25    11    12    2
    26    11    24    1
    27    24    29    2
    28    24    25    1
    29    29    28    1
    30    25    26    2
    31    28    27    2
    32    26    27    1
