@<TRIPOS>MOLECULE
41118_out_ligand_01.pdbqt
 29 32 0 0 0
SMALL
GASTEIGER

@<TRIPOS>ATOM
      1  C         22.7010  -22.1650  -11.7520 C.2     1  UNL1        0.0320
      2  C         22.7310  -23.0120  -10.6460 C.2     1  UNL1        0.0190
      3  C         21.5700  -23.2250   -9.8890 C.2     1  UNL1        0.0310
      4  C         20.3460  -22.6250  -10.2220 C.2     1  UNL1        0.0430
      5  C         20.3190  -21.7890  -11.3610 C.2     1  UNL1       -0.0300
      6  C         21.4920  -21.5630  -12.1080 C.2     1  UNL1        0.0260
      7  C         19.0650  -21.0860  -11.8050 C.3     1  UNL1        0.0420
      8  C         17.8350  -21.7890  -11.2740 C.3     1  UNL1        0.0250
      9  C         17.9860  -21.9900   -9.7780 C.3     1  UNL1        0.1330
     10  N         19.1550  -22.8110   -9.4290 N.am    1  UNL1       -0.3130
     11  C         19.0800  -23.7460   -8.3780 C.2     1  UNL1        0.2580
     12  O         19.8150  -24.7170   -8.2120 O.2     1  UNL1       -0.2670
     13  C         23.9070  -21.8870  -12.5820 C.2     1  UNL1        0.2520
     14  O         24.9570  -21.5550  -12.0450 O.2     1  UNL1       -0.2680
     15  N         23.7680  -22.0670  -13.9440 N.am    1  UNL1       -0.3520
     16  H         22.9600  -22.5780  -14.2760 H       1  UNL1        0.1630
     17  C         24.9090  -21.9620  -14.8540 C.3     1  UNL1        0.0840
     18  C         24.7650  -20.6790  -15.6840 C.3     1  UNL1        0.0250
     19  C         25.6340  -20.6130  -16.9360 C.3     1  UNL1        0.0020
     20  C         24.9620  -21.2460  -18.1530 C.3     1  UNL1        0.0000
     21  C         24.8840  -22.7680  -18.1380 C.3     1  UNL1        0.0000
     22  C         24.2180  -23.3770  -16.9040 C.3     1  UNL1        0.0020
     23  C         25.0850  -23.2640  -15.6510 C.3     1  UNL1        0.0250
     24  C         18.0120  -23.5760   -7.3620 C.2     1  UNL1        0.0320
     25  C         16.7870  -24.2390   -7.4990 C.2     1  UNL1        0.0170
     26  C         15.7890  -24.0500   -6.5410 C.2     1  UNL1        0.0010
     27  C         16.0100  -23.1910   -5.4640 C.2     1  UNL1        0.0000
     28  C         17.2230  -22.5100   -5.3430 C.2     1  UNL1        0.0010
     29  C         18.2240  -22.6950   -6.2970 C.2     1  UNL1        0.0170
@<TRIPOS>BOND
     1    20    21    1
     2    20    19    1
     3    21    22    1
     4    19    18    1
     5    22    23    1
     6    18    17    1
     7    23    17    1
     8    17    15    1
     9    16    15    1
    10    15    13   am
    11    13    14    2
    12    13     1    1
    13     6     1    2
    14     6     5    1
    15     7     5    1
    16     7     8    1
    17     1     2    1
    18     5     4    2
    19     8     9    1
    20     2     3    2
    21     4     3    1
    22     4    10    1
    23     9    10    1
    24    10    11   am
    25    11    12    2
    26    11    24    1
    27    25    24    2
    28    25    26    1
    29    24    29    1
    30    26    27    2
    31    29    28    2
    32    27    28    1
