@<TRIPOS>MOLECULE
41117_out_ligand_01.pdbqt
 27 30 0 0 0
SMALL
GASTEIGER

@<TRIPOS>ATOM
      1  C         21.7820  -21.7760  -12.1860 C.2     1  UNL1        0.0320
      2  C         22.0320  -22.6780  -11.1540 C.2     1  UNL1        0.0190
      3  C         21.0290  -22.9800  -10.2210 C.2     1  UNL1        0.0310
      4  C         19.7440  -22.4190  -10.2990 C.2     1  UNL1        0.0430
      5  C         19.4920  -21.5290  -11.3660 C.2     1  UNL1       -0.0300
      6  C         20.5090  -21.2100  -12.2900 C.2     1  UNL1        0.0260
      7  C         18.1580  -20.8570  -11.5470 C.3     1  UNL1        0.0420
      8  C         17.0630  -21.6730  -10.8950 C.3     1  UNL1        0.0250
      9  C         17.4500  -21.9560   -9.4560 C.3     1  UNL1        0.1330
     10  N         18.7100  -22.7060   -9.3300 N.am    1  UNL1       -0.3130
     11  C         18.8760  -23.6420   -8.2880 C.2     1  UNL1        0.2580
     12  O         19.7320  -24.5200   -8.2090 O.2     1  UNL1       -0.2670
     13  C         22.8090  -21.4060  -13.2020 C.2     1  UNL1        0.2520
     14  O         22.4940  -20.7300  -14.1760 O.2     1  UNL1       -0.2680
     15  N         24.1010  -21.8320  -12.9620 N.am    1  UNL1       -0.3520
     16  H         24.3360  -22.1510  -12.0330 H       1  UNL1        0.1630
     17  C         25.1930  -21.4310  -13.8350 C.3     1  UNL1        0.0840
     18  C         25.8690  -20.1510  -13.3460 C.3     1  UNL1        0.0250
     19  C         26.8820  -20.6100  -12.2970 C.3     1  UNL1        0.0020
     20  C         27.1180  -22.1000  -12.5450 C.3     1  UNL1        0.0020
     21  C         26.3330  -22.4430  -13.8080 C.3     1  UNL1        0.0250
     22  C         17.9320  -23.5830   -7.1470 C.2     1  UNL1        0.0320
     23  C         16.7270  -24.2940   -7.1940 C.2     1  UNL1        0.0170
     24  C         15.8410  -24.2200   -6.1180 C.2     1  UNL1        0.0010
     25  C         16.1560  -23.4300   -5.0080 C.2     1  UNL1        0.0000
     26  C         17.3490  -22.7050   -4.9740 C.2     1  UNL1        0.0010
     27  C         18.2380  -22.7730   -6.0480 C.2     1  UNL1        0.0170
@<TRIPOS>BOND
     1    14    13    2
     2    17    21    1
     3    17    18    1
     4    17    15    1
     5    21    20    1
     6    18    19    1
     7    13    15   am
     8    13     1    1
     9    15    16    1
    10    20    19    1
    11     6     1    2
    12     6     5    1
    13     1     2    1
    14     7     5    1
    15     7     8    1
    16     5     4    2
    17     2     3    2
    18     8     9    1
    19     4     3    1
    20     4    10    1
    21     9    10    1
    22    10    11   am
    23    11    12    2
    24    11    22    1
    25    23    22    2
    26    23    24    1
    27    22    27    1
    28    24    25    2
    29    27    26    2
    30    25    26    1
