@<TRIPOS>MOLECULE
41115_out_ligand_01.pdbqt
 29 32 0 0 0
SMALL
GASTEIGER

@<TRIPOS>ATOM
      1  C         21.6060  -21.6720  -12.2320 C.2     1  UNL1        0.0330
      2  C         20.2860  -21.2320  -12.1620 C.2     1  UNL1        0.0190
      3  C         19.4350  -21.7220  -11.1620 C.2     1  UNL1        0.0310
      4  C         19.8720  -22.6590  -10.2130 C.2     1  UNL1        0.0430
      5  C         21.2180  -23.0820  -10.2780 C.2     1  UNL1       -0.0300
      6  C         22.0740  -22.5770  -11.2770 C.2     1  UNL1        0.0260
      7  C         21.8010  -24.0470   -9.2800 C.3     1  UNL1        0.0420
      8  C         20.7130  -24.8710   -8.6230 C.3     1  UNL1        0.0250
      9  C         19.6320  -23.9420   -8.1000 C.3     1  UNL1        0.1330
     10  N         19.0060  -23.1470   -9.1670 N.am    1  UNL1       -0.3130
     11  C         17.6170  -22.9240   -9.1730 C.2     1  UNL1        0.2580
     12  O         16.9340  -22.6400  -10.1540 O.2     1  UNL1       -0.2670
     13  C         22.5500  -21.1770  -13.2720 C.2     1  UNL1        0.2560
     14  O         22.1730  -20.2830  -14.0200 O.2     1  UNL1       -0.2670
     15  N         23.7990  -21.7750  -13.2540 N.am    1  UNL1       -0.3230
     16  H         23.9920  -22.4030  -12.4850 H       1  UNL1        0.1690
     17  C         24.8730  -21.5390  -14.1370 C.2     1  UNL1        0.0360
     18  C         26.0460  -20.8700  -13.7780 C.2     1  UNL1        0.0290
     19  C         27.0670  -20.6690  -14.7140 C.2     1  UNL1        0.0040
     20  C         26.9230  -21.1330  -16.0190 C.2     1  UNL1        0.0190
     21  C         25.7550  -21.7970  -16.3820 C.2     1  UNL1        0.0130
     22 BR         25.5500  -22.4290  -18.1530 Br      1  UNL1       -0.0510
     23  C         24.7330  -22.0010  -15.4530 C.2     1  UNL1        0.0480
     24  C         16.8810  -23.0510   -7.8900 C.2     1  UNL1        0.0320
     25  C         17.1050  -22.1060   -6.8830 C.2     1  UNL1        0.0170
     26  C         16.4340  -22.2220   -5.6650 C.2     1  UNL1        0.0010
     27  C         15.5570  -23.2880   -5.4500 C.2     1  UNL1        0.0000
     28  C         15.3550  -24.2450   -6.4460 C.2     1  UNL1        0.0010
     29  C         16.0230  -24.1330   -7.6660 C.2     1  UNL1        0.0170
@<TRIPOS>BOND
     1    22    21    1
     2    21    20    2
     3    21    23    1
     4    20    19    1
     5    23    17    2
     6    19    18    2
     7    17    18    1
     8    17    15    1
     9    14    13    2
    10    13    15   am
    11    13     1    1
    12    15    16    1
    13     1     2    2
    14     1     6    1
    15     2     3    1
    16     6     5    2
    17     3     4    2
    18     5     4    1
    19     5     7    1
    20     4    10    1
    21    12    11    2
    22     7     8    1
    23    11    10   am
    24    11    24    1
    25    10     9    1
    26     8     9    1
    27    24    29    2
    28    24    25    1
    29    29    28    1
    30    25    26    2
    31    28    27    2
    32    26    27    1
