@<TRIPOS>MOLECULE
41129_out_ligand_01.pdbqt
 31 34 0 0 0
SMALL
GASTEIGER

@<TRIPOS>ATOM
      1  C         23.4780  -22.5740  -11.5990 C.2     1  UNL1        0.0320
      2  C         23.3240  -23.3580  -10.4570 C.2     1  UNL1        0.0190
      3  C         22.0830  -23.4190   -9.8070 C.2     1  UNL1        0.0310
      4  C         20.9620  -22.7200  -10.2830 C.2     1  UNL1        0.0430
      5  C         21.1230  -21.9440  -11.4500 C.2     1  UNL1       -0.0300
      6  C         22.3750  -21.8770  -12.0940 C.2     1  UNL1        0.0260
      7  C         19.9950  -21.1360  -12.0370 C.3     1  UNL1        0.0420
      8  C         18.6520  -21.6640  -11.5780 C.3     1  UNL1        0.0250
      9  C         18.6650  -21.8070  -10.0680 C.3     1  UNL1        0.1330
     10  N         19.6920  -22.7470   -9.5980 N.am    1  UNL1       -0.3130
     11  C         19.4140  -23.6480   -8.5500 C.2     1  UNL1        0.2580
     12  O         20.0180  -24.6900   -8.3040 O.2     1  UNL1       -0.2670
     13  C         24.7760  -22.4580  -12.3200 C.2     1  UNL1        0.2510
     14  N         24.7020  -22.1940  -13.6670 N.am    1  UNL1       -0.3530
     15  H         23.8100  -22.2020  -14.1450 H       1  UNL1        0.1630
     16  O         25.8330  -22.6310  -11.7240 O.2     1  UNL1       -0.2680
     17  C         25.8960  -22.1070  -14.4730 C.3     1  UNL1        0.1610
     18  C         26.2580  -20.6690  -14.7260 C.2     1  UNL1       -0.0410
     19  C         26.8310  -19.8920  -13.7100 C.2     1  UNL1        0.0090
     20  C         27.1160  -18.5400  -13.9270 C.2     1  UNL1        0.0070
     21  C         26.8180  -17.9410  -15.1580 C.2     1  UNL1       -0.0620
     22  C         27.1210  -16.4930  -15.4040 C.3     1  UNL1        0.0480
     23  C         26.2460  -18.7170  -16.1740 C.2     1  UNL1        0.0070
     24  C         25.9620  -20.0670  -15.9580 C.2     1  UNL1        0.0090
     25  C         18.2700  -23.3490   -7.6550 C.2     1  UNL1        0.0320
     26  C         18.4220  -22.4730   -6.5750 C.2     1  UNL1        0.0170
     27  C         17.3320  -22.2030   -5.7460 C.2     1  UNL1        0.0070
     28  C         16.0920  -22.8100   -5.9830 C.2     1  UNL1       -0.0620
     29  C         14.9180  -22.5340   -5.0910 C.3     1  UNL1        0.0480
     30  C         15.9620  -23.7150   -7.0470 C.2     1  UNL1        0.0070
     31  C         17.0480  -23.9890   -7.8780 C.2     1  UNL1        0.0170
@<TRIPOS>BOND
     1    23    24    1
     2    23    21    2
     3    24    18    2
     4    22    21    1
     5    21    20    1
     6    18    17    1
     7    18    19    1
     8    17    14    1
     9    15    14    1
    10    20    19    2
    11    14    13   am
    12    13    16    2
    13    13     1    1
    14     6     1    2
    15     6     5    1
    16     7     8    1
    17     7     5    1
    18     1     2    1
    19     8     9    1
    20     5     4    2
    21     2     3    2
    22     4     3    1
    23     4    10    1
    24     9    10    1
    25    10    11   am
    26    11    12    2
    27    11    25    1
    28    31    25    2
    29    31    30    1
    30    25    26    1
    31    30    28    2
    32    26    27    2
    33    28    27    1
    34    28    29    1
