@<TRIPOS>MOLECULE
41124_out_ligand_01.pdbqt
 24 26 0 0 0
SMALL
GASTEIGER

@<TRIPOS>ATOM
      1  C         19.9200  -23.4920   -8.6190 C.2     1  UNL1        0.2580
      2  O         20.7860  -24.3600   -8.5540 O.2     1  UNL1       -0.2670
      3  N         19.6860  -22.6240   -9.7030 N.am    1  UNL1       -0.3130
      4  C         18.4000  -21.9180   -9.8200 C.3     1  UNL1        0.1330
      5  C         17.9410  -21.7460  -11.2550 C.3     1  UNL1        0.0250
      6  C         18.9810  -20.9440  -12.0090 C.3     1  UNL1        0.0420
      7  C         20.3520  -21.5460  -11.8330 C.2     1  UNL1       -0.0300
      8  C         21.3310  -21.2360  -12.8030 C.2     1  UNL1        0.0260
      9  C         22.6340  -21.7440  -12.7090 C.2     1  UNL1        0.0320
     10  C         22.9500  -22.5790  -11.6400 C.2     1  UNL1        0.0190
     11  C         21.9840  -22.8720  -10.6620 C.2     1  UNL1        0.0310
     12  C         20.6730  -22.3650  -10.7280 C.2     1  UNL1        0.0430
     13  C         19.0420  -23.3670   -7.4250 C.2     1  UNL1        0.0320
     14  C         19.1650  -22.2410   -6.6020 C.2     1  UNL1        0.0170
     15  C         18.3500  -22.1150   -5.4700 C.2     1  UNL1        0.0070
     16  C         17.4070  -23.1060   -5.1590 C.2     1  UNL1       -0.0620
     17  C         16.5210  -22.9510   -3.9510 C.3     1  UNL1        0.0480
     18  C         17.2670  -24.2100   -6.0160 C.2     1  UNL1        0.0070
     19  C         18.0830  -24.3420   -7.1460 C.2     1  UNL1        0.0170
     20  C         23.6220  -21.3790  -13.7660 C.2     1  UNL1        0.2490
     21  N         23.2370  -20.4700  -14.7120 N.am    1  UNL1       -0.3660
     22  H         23.8800  -20.3390  -15.4860 H       1  UNL1        0.1590
     23  H         22.2720  -20.2260  -14.8710 H       1  UNL1        0.1590
     24  O         24.7320  -21.8930  -13.8170 O.2     1  UNL1       -0.2680
@<TRIPOS>BOND
     1    22    21    1
     2    23    21    1
     3    21    20   am
     4    24    20    2
     5    20     9    1
     6     8     9    1
     7     8     7    2
     8     9    10    2
     9     6     7    1
    10     6     5    1
    11     7    12    1
    12    10    11    1
    13     5     4    1
    14    12    11    2
    15    12     3    1
    16     4     3    1
    17     3     1   am
    18     1     2    2
    19     1    13    1
    20    13    19    2
    21    13    14    1
    22    19    18    1
    23    14    15    2
    24    18    16    2
    25    15    16    1
    26    16    17    1
