@<TRIPOS>MOLECULE
41126_out_ligand_01.pdbqt
 26 28 0 0 0
SMALL
GASTEIGER

@<TRIPOS>ATOM
      1  C         21.9810  -21.6430  -12.3290 C.2     1  UNL1        0.0320
      2  C         20.6410  -21.2580  -12.3490 C.2     1  UNL1        0.0190
      3  C         19.7530  -21.7440  -11.3800 C.2     1  UNL1        0.0310
      4  C         20.1640  -22.6410  -10.3800 C.2     1  UNL1        0.0430
      5  C         21.5180  -23.0430  -10.3800 C.2     1  UNL1       -0.0300
      6  C         22.4110  -22.5380  -11.3480 C.2     1  UNL1        0.0260
      7  C         22.0720  -23.9870   -9.3480 C.3     1  UNL1        0.0420
      8  C         20.9690  -24.8230   -8.7350 C.3     1  UNL1        0.0250
      9  C         19.8560  -23.9060   -8.2640 C.3     1  UNL1        0.1330
     10  N         19.2640  -23.1200   -9.3590 N.am    1  UNL1       -0.3130
     11  C         17.8750  -22.8850   -9.3970 C.2     1  UNL1        0.2580
     12  O         17.2150  -22.5790  -10.3880 O.2     1  UNL1       -0.2670
     13  C         17.1060  -23.0240   -8.1370 C.2     1  UNL1        0.0320
     14  C         16.2480  -24.1170   -7.9830 C.2     1  UNL1        0.0170
     15  C         15.5060  -24.2550   -6.8090 C.2     1  UNL1        0.0070
     16  C         15.5940  -23.2900   -5.7970 C.2     1  UNL1       -0.0620
     17  C         14.8160  -23.4550   -4.5240 C.3     1  UNL1        0.0480
     18  C         16.4490  -22.1910   -5.9660 C.2     1  UNL1        0.0070
     19  C         17.1940  -22.0490   -7.1380 C.2     1  UNL1        0.0170
     20  C         22.9720  -21.1520  -13.3280 C.2     1  UNL1        0.2510
     21  N         24.2980  -21.4140  -13.0540 N.am    1  UNL1       -0.3530
     22  H         24.5330  -22.0460  -12.3030 H       1  UNL1        0.1630
     23  O         22.5850  -20.5740  -14.3370 O.2     1  UNL1       -0.2680
     24  C         25.3420  -21.0850  -13.9930 C.3     1  UNL1        0.1490
     25  C         26.1890  -20.0160  -13.3770 C.2     1  UNL1       -0.0180
     26  C         26.3900  -19.8840  -12.0590 C.2     1  UNL1        0.0080
@<TRIPOS>BOND
     1    23    20    2
     2    24    25    1
     3    24    21    1
     4    25    26    2
     5    20    21   am
     6    20     1    1
     7    21    22    1
     8     2     1    2
     9     2     3    1
    10     1     6    1
    11     3     4    2
    12     6     5    2
    13    12    11    2
    14     4     5    1
    15     4    10    1
    16     5     7    1
    17    11    10   am
    18    11    13    1
    19    10     9    1
    20     7     8    1
    21     8     9    1
    22    13    14    2
    23    13    19    1
    24    14    15    1
    25    19    18    2
    26    15    16    2
    27    18    16    1
    28    16    17    1
