@<TRIPOS>MOLECULE
41123_out_ligand_01.pdbqt
 31 34 0 0 0
SMALL
GASTEIGER

@<TRIPOS>ATOM
      1  C         23.1940  -21.9540  -12.1540 C.2     1  UNL1        0.0330
      2  C         23.4320  -22.3570  -10.8410 C.2     1  UNL1        0.0190
      3  C         22.3750  -22.4280   -9.9250 C.2     1  UNL1        0.0310
      4  C         21.0580  -22.0980  -10.2870 C.2     1  UNL1        0.0430
      5  C         20.8230  -21.7090  -11.6240 C.2     1  UNL1       -0.0300
      6  C         21.8870  -21.6520  -12.5450 C.2     1  UNL1        0.0260
      7  C         19.4450  -21.3780  -12.1280 C.3     1  UNL1        0.0420
      8  C         18.5300  -20.9850  -10.9870 C.3     1  UNL1        0.0250
      9  C         18.6060  -22.0440   -9.9020 C.3     1  UNL1        0.1330
     10  N         19.9620  -22.1960   -9.3550 N.am    1  UNL1       -0.3130
     11  C         20.1600  -22.3840   -7.9730 C.2     1  UNL1        0.2580
     12  O         21.1900  -22.1410   -7.3480 O.2     1  UNL1       -0.2670
     13  C         24.2830  -21.8690  -13.1690 C.2     1  UNL1        0.2560
     14  N         24.1190  -20.8810  -14.1170 N.am    1  UNL1       -0.3210
     15  H         23.2500  -20.3560  -14.1260 H       1  UNL1        0.1690
     16  O         25.2000  -22.6810  -13.1070 O.2     1  UNL1       -0.2670
     17  C         24.9820  -20.5340  -15.1800 C.2     1  UNL1        0.0680
     18  C         25.9080  -19.4910  -15.1140 C.2     1  UNL1        0.0320
     19  C         26.7270  -19.2090  -16.2090 C.2     1  UNL1        0.0020
     20  C         26.6240  -19.9660  -17.3730 C.2     1  UNL1        0.0030
     21  C         25.6980  -21.0090  -17.4520 C.2     1  UNL1        0.0390
     22  C         24.8690  -21.2960  -16.3650 C.2     1  UNL1        0.0950
     23  O         23.9250  -22.2960  -16.3290 O.2     1  UNL1       -0.3490
     24  C         24.1630  -23.5030  -17.0500 C.3     1  UNL1        0.1710
     25  C         23.1330  -23.6840  -18.1510 C.3     1  UNL1        0.0340
     26  C         19.0290  -22.9100   -7.1690 C.2     1  UNL1        0.0320
     27  C         18.4950  -22.1170   -6.1490 C.2     1  UNL1        0.0170
     28  C         17.4430  -22.6050   -5.3730 C.2     1  UNL1        0.0010
     29  C         16.9390  -23.8860   -5.6060 C.2     1  UNL1        0.0000
     30  C         17.4920  -24.6880   -6.6060 C.2     1  UNL1        0.0010
     31  C         18.5430  -24.2050   -7.3870 C.2     1  UNL1        0.0170
@<TRIPOS>BOND
     1    25    24    1
     2    21    20    2
     3    21    22    1
     4    20    19    1
     5    24    23    1
     6    22    23    1
     7    22    17    2
     8    19    18    2
     9    17    18    1
    10    17    14    1
    11    15    14    1
    12    14    13   am
    13    13    16    2
    14    13     1    1
    15     6     1    2
    16     6     5    1
    17     1     2    1
    18     7     5    1
    19     7     8    1
    20     5     4    2
    21     8     9    1
    22     2     3    2
    23     4     3    1
    24     4    10    1
    25     9    10    1
    26    10    11   am
    27    11    12    2
    28    11    26    1
    29    31    26    2
    30    31    30    1
    31    26    27    1
    32    30    29    2
    33    27    28    2
    34    29    28    1
