@<TRIPOS>MOLECULE
41122_out_ligand_01.pdbqt
 30 33 0 0 0
SMALL
GASTEIGER

@<TRIPOS>ATOM
      1  C         21.5940  -21.6610  -12.0940 C.2     1  UNL1        0.0330
      2  C         20.2160  -21.5800  -12.2850 C.2     1  UNL1        0.0190
      3  C         19.3440  -21.8610  -11.2250 C.2     1  UNL1        0.0310
      4  C         19.8150  -22.2300   -9.9550 C.2     1  UNL1        0.0430
      5  C         21.2120  -22.2390   -9.7560 C.2     1  UNL1       -0.0300
      6  C         22.0880  -21.9740  -10.8270 C.2     1  UNL1        0.0260
      7  C         21.8130  -22.5640   -8.4170 C.3     1  UNL1        0.0420
      8  C         20.8590  -22.1430   -7.3200 C.3     1  UNL1        0.0250
      9  C         19.5150  -22.8090   -7.5490 C.3     1  UNL1        0.1330
     10  N         18.9180  -22.5440   -8.8670 N.am    1  UNL1       -0.3130
     11  C         17.5700  -22.8970   -9.1010 C.2     1  UNL1        0.2580
     12  O         17.0360  -23.0980  -10.1890 O.2     1  UNL1       -0.2670
     13  C         22.5620  -21.3850  -13.1940 C.2     1  UNL1        0.2560
     14  N         23.7420  -22.1010  -13.1200 N.am    1  UNL1       -0.3230
     15  H         23.8880  -22.6570  -12.2860 H       1  UNL1        0.1690
     16  O         22.2600  -20.5430  -14.0320 O.2     1  UNL1       -0.2670
     17  C         24.8190  -22.0800  -14.0330 C.2     1  UNL1        0.0370
     18  C         25.9910  -21.4380  -13.6180 C.2     1  UNL1        0.0290
     19  C         27.1030  -21.3790  -14.4600 C.2     1  UNL1        0.0050
     20  C         27.0570  -21.9630  -15.7250 C.2     1  UNL1        0.0370
     21  C         25.8970  -22.6090  -16.1510 C.2     1  UNL1        0.0700
     22  C         24.7840  -22.6640  -15.3000 C.2     1  UNL1        0.0660
     23  O         25.7220  -23.2240  -17.3610 O.2     1  UNL1       -0.3560
     24  C         24.4920  -22.9900  -18.0350 C.3     1  UNL1        0.2100
     25  C         16.6860  -23.0770   -7.9290 C.2     1  UNL1        0.0320
     26  C         16.3300  -24.3690   -7.5350 C.2     1  UNL1        0.0170
     27  C         15.4810  -24.5430   -6.4420 C.2     1  UNL1        0.0010
     28  C         14.9850  -23.4300   -5.7600 C.2     1  UNL1        0.0000
     29  C         15.3250  -22.1400   -6.1720 C.2     1  UNL1        0.0010
     30  C         16.1730  -21.9590   -7.2640 C.2     1  UNL1        0.0170
@<TRIPOS>BOND
     1    24    23    1
     2    23    21    1
     3    21    20    2
     4    21    22    1
     5    20    19    1
     6    22    17    2
     7    19    18    2
     8    17    18    1
     9    17    14    1
    10    16    13    2
    11    13    14   am
    12    13     1    1
    13    14    15    1
    14     2     1    2
    15     2     3    1
    16     1     6    1
    17     3     4    2
    18     6     5    2
    19    12    11    2
    20     4     5    1
    21     4    10    1
    22     5     7    1
    23    11    10   am
    24    11    25    1
    25    10     9    1
    26     7     8    1
    27    25    26    2
    28    25    30    1
    29     9     8    1
    30    26    27    1
    31    30    29    2
    32    27    28    2
    33    29    28    1
