@<TRIPOS>MOLECULE
41128_out_ligand_01.pdbqt
 30 33 0 0 0
SMALL
GASTEIGER

@<TRIPOS>ATOM
      1  C         17.7660  -22.8860   -9.2450 C.2     1  UNL1        0.2580
      2  O         17.0640  -22.6360  -10.2210 O.2     1  UNL1       -0.2670
      3  N         19.1540  -23.1120   -9.2670 N.am    1  UNL1       -0.3130
      4  C         19.7950  -23.9230   -8.2210 C.3     1  UNL1        0.1330
      5  C         20.8560  -24.8550   -8.7770 C.3     1  UNL1        0.0250
      6  C         21.9390  -24.0300   -9.4440 C.3     1  UNL1        0.0420
      7  C         21.3460  -23.0430  -10.4140 C.2     1  UNL1       -0.0300
      8  C         22.1900  -22.5190  -11.4110 C.2     1  UNL1        0.0260
      9  C         21.7080  -21.6010  -12.3470 C.2     1  UNL1        0.0320
     10  C         20.3850  -21.1750  -12.2650 C.2     1  UNL1        0.0190
     11  C         19.5460  -21.6770  -11.2610 C.2     1  UNL1        0.0310
     12  C         20.0010  -22.6210  -10.3250 C.2     1  UNL1        0.0430
     13  C         22.6390  -21.0840  -13.3840 C.2     1  UNL1        0.2510
     14  O         22.2470  -20.2800  -14.2210 O.2     1  UNL1       -0.2680
     15  N         23.9380  -21.5310  -13.3090 N.am    1  UNL1       -0.3530
     16  H         24.2520  -22.0150  -12.4770 H       1  UNL1        0.1630
     17  C         24.9460  -21.0040  -14.1980 C.3     1  UNL1        0.1610
     18  C         24.8610  -21.6670  -15.5470 C.2     1  UNL1       -0.0410
     19  C         24.6070  -23.0430  -15.6450 C.2     1  UNL1        0.0090
     20  C         24.4960  -23.6550  -16.8960 C.2     1  UNL1        0.0010
     21  C         24.6290  -22.8940  -18.0570 C.2     1  UNL1        0.0000
     22  C         24.8710  -21.5240  -17.9700 C.2     1  UNL1        0.0010
     23  C         24.9840  -20.9110  -16.7200 C.2     1  UNL1        0.0090
     24  C         17.0630  -22.9690   -7.9380 C.2     1  UNL1        0.0320
     25  C         16.1040  -23.9600   -7.7070 C.2     1  UNL1        0.0170
     26  C         15.4650  -24.0300   -6.4670 C.2     1  UNL1        0.0070
     27  C         15.7830  -23.1190   -5.4530 C.2     1  UNL1       -0.0620
     28  C         15.1210  -23.2220   -4.1100 C.3     1  UNL1        0.0480
     29  C         16.7740  -22.1550   -5.6810 C.2     1  UNL1        0.0070
     30  C         17.4150  -22.0810   -6.9200 C.2     1  UNL1        0.0170
@<TRIPOS>BOND
     1    21    22    2
     2    21    20    1
     3    22    23    1
     4    20    19    2
     5    23    18    2
     6    19    18    1
     7    18    17    1
     8    14    13    2
     9    17    15    1
    10    13    15   am
    11    13     9    1
    12    15    16    1
    13     9    10    2
    14     9     8    1
    15    10    11    1
    16     8     7    2
    17    11    12    2
    18     7    12    1
    19     7     6    1
    20    12     3    1
    21     2     1    2
    22     6     5    1
    23     3     1   am
    24     3     4    1
    25     1    24    1
    26     5     4    1
    27    24    25    2
    28    24    30    1
    29    25    26    1
    30    30    29    2
    31    26    27    2
    32    29    27    1
    33    27    28    1
