@<TRIPOS>MOLECULE
41120_out_ligand_01.pdbqt
 30 33 0 0 0
SMALL
GASTEIGER

@<TRIPOS>ATOM
      1  C         22.4680  -22.3130  -11.6160 C.2     1  UNL1        0.0330
      2  C         22.4860  -23.1460  -10.4990 C.2     1  UNL1        0.0190
      3  C         21.3290  -23.3080   -9.7230 C.2     1  UNL1        0.0310
      4  C         20.1210  -22.6720  -10.0500 C.2     1  UNL1        0.0430
      5  C         20.1070  -21.8500  -11.1980 C.2     1  UNL1       -0.0300
      6  C         21.2760  -21.6740  -11.9650 C.2     1  UNL1        0.0260
      7  C         18.8710  -21.1090  -11.6350 C.3     1  UNL1        0.0420
      8  C         17.6240  -21.7660  -11.0800 C.3     1  UNL1        0.0250
      9  C         17.7890  -21.9540   -9.5830 C.3     1  UNL1        0.1330
     10  N         18.9350  -22.8100   -9.2380 N.am    1  UNL1       -0.3130
     11  C         18.8410  -23.7320   -8.1780 C.2     1  UNL1        0.2580
     12  O         19.5490  -24.7230   -8.0100 O.2     1  UNL1       -0.2670
     13  C         23.6720  -22.0960  -12.4690 C.2     1  UNL1        0.2560
     14  O         24.7410  -22.5590  -12.0920 O.2     1  UNL1       -0.2670
     15  N         23.4390  -21.4110  -13.6490 N.am    1  UNL1       -0.3230
     16  H         22.4740  -21.2140  -13.8800 H       1  UNL1        0.1690
     17  C         24.3920  -21.0340  -14.6190 C.2     1  UNL1        0.0360
     18  C         25.2110  -19.9050  -14.5120 C.2     1  UNL1        0.0320
     19  C         26.1300  -19.5940  -15.5200 C.2     1  UNL1        0.0460
     20  C         26.2300  -20.4110  -16.6400 C.2     1  UNL1        0.1380
     21  F         27.1170  -20.0930  -17.5950 F       1  UNL1       -0.2040
     22  C         25.4180  -21.5330  -16.7640 C.2     1  UNL1        0.0740
     23 CL         25.5320  -22.5510  -18.1490 Cl      1  UNL1       -0.0810
     24  C         24.5000  -21.8450  -15.7580 C.2     1  UNL1        0.0560
     25  C         17.7880  -23.5220   -7.1560 C.2     1  UNL1        0.0320
     26  C         18.0250  -22.6990   -6.0490 C.2     1  UNL1        0.0170
     27  C         17.0270  -22.5290   -5.0890 C.2     1  UNL1        0.0010
     28  C         15.8040  -23.1900   -5.2290 C.2     1  UNL1        0.0000
     29  C         15.5790  -24.0300   -6.3200 C.2     1  UNL1        0.0010
     30  C         16.5730  -24.2050   -7.2830 C.2     1  UNL1        0.0170
@<TRIPOS>BOND
     1    23    22    1
     2    21    20    1
     3    22    20    2
     4    22    24    1
     5    20    19    1
     6    24    17    2
     7    19    18    2
     8    17    18    1
     9    17    15    1
    10    16    15    1
    11    15    13   am
    12    13    14    2
    13    13     1    1
    14     6     1    2
    15     6     5    1
    16     7     5    1
    17     7     8    1
    18     1     2    1
    19     5     4    2
    20     8     9    1
    21     2     3    2
    22     4     3    1
    23     4    10    1
    24     9    10    1
    25    10    11   am
    26    11    12    2
    27    11    25    1
    28    30    25    2
    29    30    29    1
    30    25    26    1
    31    29    28    2
    32    26    27    2
    33    28    27    1
