@<TRIPOS>MOLECULE
41125_out_ligand_01.pdbqt
 27 29 0 0 0
SMALL
GASTEIGER

@<TRIPOS>ATOM
      1  C         23.0780  -21.9720  -12.6330 C.2     1  UNL1        0.0320
      2  C         23.3150  -22.7740  -11.5200 C.2     1  UNL1        0.0190
      3  C         22.3040  -22.9830  -10.5710 C.2     1  UNL1        0.0310
      4  C         21.0250  -22.4210  -10.7160 C.2     1  UNL1        0.0430
      5  C         20.7870  -21.6280  -11.8590 C.2     1  UNL1       -0.0300
      6  C         21.8110  -21.4060  -12.8010 C.2     1  UNL1        0.0260
      7  C         19.4580  -20.9640  -12.1080 C.3     1  UNL1        0.0420
      8  C         18.3530  -21.6730  -11.3570 C.3     1  UNL1        0.0250
      9  C         18.7570  -21.8180   -9.9010 C.3     1  UNL1        0.1330
     10  N         19.9880  -22.6040   -9.7280 N.am    1  UNL1       -0.3130
     11  C         20.1120  -23.5070   -8.6540 C.2     1  UNL1        0.2580
     12  O         20.8880  -24.4570   -8.5850 O.2     1  UNL1       -0.2670
     13  C         19.2220  -23.3260   -7.4810 C.2     1  UNL1        0.0320
     14  C         19.3550  -22.1750   -6.7000 C.2     1  UNL1        0.0170
     15  C         18.5140  -21.9820   -5.6030 C.2     1  UNL1        0.0070
     16  C         17.5220  -22.9230   -5.2950 C.2     1  UNL1       -0.0620
     17  C         16.6380  -22.7260   -4.0970 C.3     1  UNL1        0.0480
     18  C         17.3900  -24.0690   -6.0920 C.2     1  UNL1        0.0070
     19  C         18.2270  -24.2660   -7.1910 C.2     1  UNL1        0.0170
     20  C         24.1200  -21.7090  -13.6660 C.2     1  UNL1        0.2510
     21  N         23.7080  -21.7710  -14.9830 N.am    1  UNL1       -0.3570
     22  H         22.8380  -22.2460  -15.1810 H       1  UNL1        0.1620
     23  O         25.2780  -21.4870  -13.3280 O.2     1  UNL1       -0.2680
     24  C         24.6710  -21.6650  -16.0600 C.3     1  UNL1        0.1230
     25  C         24.9050  -23.0030  -16.7570 C.3     1  UNL1        0.0190
     26  C         24.2760  -23.1150  -18.1500 C.3     1  UNL1       -0.0030
     27  C         22.9280  -23.8180  -18.1530 C.3     1  UNL1        0.0050
@<TRIPOS>BOND
     1    27    26    1
     2    26    25    1
     3    25    24    1
     4    24    21    1
     5    22    21    1
     6    21    20   am
     7    20    23    2
     8    20     1    1
     9     6     1    2
    10     6     5    1
    11     1     2    1
    12     7     5    1
    13     7     8    1
    14     5     4    2
    15     2     3    2
    16     8     9    1
    17     4     3    1
    18     4    10    1
    19     9    10    1
    20    10    11   am
    21    11    12    2
    22    11    13    1
    23    13    19    2
    24    13    14    1
    25    19    18    1
    26    14    15    2
    27    18    16    2
    28    15    16    1
    29    16    17    1
