@<TRIPOS>MOLECULE
41127_out_ligand_01.pdbqt
 30 33 0 0 0
SMALL
GASTEIGER

@<TRIPOS>ATOM
      1  C         19.3610  -23.5560   -8.3750 C.2     1  UNL1        0.2580
      2  O         20.2040  -24.4500   -8.3610 O.2     1  UNL1       -0.2670
      3  N         19.1260  -22.6460   -9.4230 N.am    1  UNL1       -0.3130
      4  C         17.8350  -21.9460   -9.5260 C.3     1  UNL1        0.1330
      5  C         17.3580  -21.8020  -10.9590 C.3     1  UNL1        0.0250
      6  C         18.3780  -21.0020  -11.7410 C.3     1  UNL1        0.0420
      7  C         19.7580  -21.5750  -11.5650 C.2     1  UNL1       -0.0300
      8  C         20.7220  -21.2650  -12.5450 C.2     1  UNL1        0.0260
      9  C         22.0310  -21.7420  -12.4460 C.2     1  UNL1        0.0320
     10  C         22.3730  -22.5480  -11.3620 C.2     1  UNL1        0.0190
     11  C         21.4220  -22.8450  -10.3750 C.2     1  UNL1        0.0310
     12  C         20.1020  -22.3710  -10.4510 C.2     1  UNL1        0.0430
     13  C         22.9990  -21.3870  -13.5210 C.2     1  UNL1        0.2520
     14  O         22.6780  -20.5880  -14.3930 O.2     1  UNL1       -0.2680
     15  N         24.2440  -21.9770  -13.4490 N.am    1  UNL1       -0.3520
     16  H         24.4610  -22.5820  -12.6700 H       1  UNL1        0.1630
     17  C         25.2530  -21.7800  -14.4780 C.3     1  UNL1        0.0840
     18  C         25.1430  -22.8010  -15.6210 C.3     1  UNL1        0.0250
     19  C         25.3030  -24.2700  -15.2440 C.3     1  UNL1        0.0020
     20  C         26.6320  -24.6230  -14.5800 C.3     1  UNL1        0.0000
     21  C         26.6980  -24.1800  -13.1250 C.3     1  UNL1        0.0000
     22  C         27.1210  -22.7330  -12.8960 C.3     1  UNL1        0.0020
     23  C         26.6720  -21.6770  -13.9050 C.3     1  UNL1        0.0250
     24  C         18.5150  -23.4590   -7.1600 C.2     1  UNL1        0.0320
     25  C         17.5100  -24.4020   -6.9160 C.2     1  UNL1        0.0170
     26  C         16.7120  -24.2820   -5.7770 C.2     1  UNL1        0.0070
     27  C         16.9070  -23.2210   -4.8810 C.2     1  UNL1       -0.0620
     28  C         16.0220  -23.0740   -3.6780 C.3     1  UNL1        0.0480
     29  C         17.8900  -22.2620   -5.1570 C.2     1  UNL1        0.0070
     30  C         18.6910  -22.3760   -6.2950 C.2     1  UNL1        0.0170
@<TRIPOS>BOND
     1    18    19    1
     2    18    17    1
     3    19    20    1
     4    20    21    1
     5    17    23    1
     6    17    15    1
     7    14    13    2
     8    23    22    1
     9    13    15   am
    10    13     9    1
    11    15    16    1
    12    21    22    1
    13     8     9    1
    14     8     7    2
    15     9    10    2
    16     6     7    1
    17     6     5    1
    18     7    12    1
    19    10    11    1
    20     5     4    1
    21    12    11    2
    22    12     3    1
    23     4     3    1
    24     3     1   am
    25     1     2    2
    26     1    24    1
    27    24    25    2
    28    24    30    1
    29    25    26    1
    30    30    29    2
    31    26    27    2
    32    29    27    1
    33    27    28    1
