@<TRIPOS>MOLECULE
41121_out_ligand_01.pdbqt
 32 35 0 0 0
SMALL
GASTEIGER

@<TRIPOS>ATOM
      1  C         21.4260  -21.7990  -11.9510 C.2     1  UNL1        0.0330
      2  C         21.7260  -22.5900  -10.8420 C.2     1  UNL1        0.0190
      3  C         20.7360  -22.8730   -9.8910 C.2     1  UNL1        0.0310
      4  C         19.4200  -22.4000  -10.0260 C.2     1  UNL1        0.0430
      5  C         19.1210  -21.6210  -11.1650 C.2     1  UNL1       -0.0300
      6  C         20.1230  -21.3240  -12.1110 C.2     1  UNL1        0.0260
      7  C         17.7480  -21.0520  -11.4060 C.3     1  UNL1        0.0420
      8  C         16.6980  -21.8420  -10.6520 C.3     1  UNL1        0.0250
      9  C         17.1180  -21.9630   -9.1990 C.3     1  UNL1        0.1330
     10  N         18.4030  -22.6590   -9.0340 N.am    1  UNL1       -0.3130
     11  C         18.5960  -23.5550   -7.9640 C.2     1  UNL1        0.2580
     12  O         19.4420  -24.4440   -7.9000 O.2     1  UNL1       -0.2670
     13  C         22.4440  -21.4590  -12.9870 C.2     1  UNL1        0.2560
     14  O         22.1530  -20.6190  -13.8290 O.2     1  UNL1       -0.2670
     15  N         23.6550  -22.1160  -12.8540 N.am    1  UNL1       -0.3230
     16  H         23.7810  -22.6800  -12.0240 H       1  UNL1        0.1690
     17  C         24.7760  -22.0210  -13.7050 C.2     1  UNL1        0.0350
     18  C         26.0550  -21.6670  -13.2740 C.2     1  UNL1        0.0290
     19  C         27.1150  -21.5920  -14.1820 C.2     1  UNL1        0.0030
     20  C         26.9060  -21.8640  -15.5320 C.2     1  UNL1        0.0160
     21  C         25.6280  -22.2070  -15.9900 C.2     1  UNL1        0.0500
     22  C         24.5720  -22.2890  -15.0650 C.2     1  UNL1        0.0450
     23  C         25.3920  -22.5250  -17.4460 C.3     1  UNL1        0.4170
     24  F         24.6450  -23.6470  -17.6380 F       1  UNL1       -0.1660
     25  F         24.7380  -21.5220  -18.0950 F       1  UNL1       -0.1660
     26  F         26.5480  -22.7260  -18.1390 F       1  UNL1       -0.1660
     27  C         17.7000  -23.4440   -6.7870 C.2     1  UNL1        0.0320
     28  C         16.5130  -24.1830   -6.7230 C.2     1  UNL1        0.0170
     29  C         15.6750  -24.0500   -5.6150 C.2     1  UNL1        0.0010
     30  C         16.0150  -23.1710   -4.5860 C.2     1  UNL1        0.0000
     31  C         17.1850  -22.4140   -4.6630 C.2     1  UNL1        0.0010
     32  C         18.0280  -22.5430   -5.7680 C.2     1  UNL1        0.0170
@<TRIPOS>BOND
     1    26    23    1
     2    25    23    1
     3    24    23    1
     4    23    21    1
     5    21    20    2
     6    21    22    1
     7    20    19    1
     8    22    17    2
     9    19    18    2
    10    14    13    2
    11    17    18    1
    12    17    15    1
    13    13    15   am
    14    13     1    1
    15    15    16    1
    16     6     1    2
    17     6     5    1
    18     1     2    1
    19     7     5    1
    20     7     8    1
    21     5     4    2
    22     2     3    2
    23     8     9    1
    24     4     3    1
    25     4    10    1
    26     9    10    1
    27    10    11   am
    28    11    12    2
    29    11    27    1
    30    27    28    2
    31    27    32    1
    32    28    29    1
    33    32    31    2
    34    29    30    2
    35    31    30    1
