@<TRIPOS>MOLECULE
41133_out_ligand_01.pdbqt
 31 34 0 0 0
SMALL
GASTEIGER

@<TRIPOS>ATOM
      1  C         22.8130  -22.2190  -11.8800 C.2     1  UNL1        0.0330
      2  C         22.8610  -23.0540  -10.7660 C.2     1  UNL1        0.0190
      3  C         21.7140  -23.2580   -9.9860 C.2     1  UNL1        0.0310
      4  C         20.4840  -22.6590  -10.3060 C.2     1  UNL1        0.0430
      5  C         20.4380  -21.8340  -11.4510 C.2     1  UNL1       -0.0300
      6  C         21.5980  -21.6180  -12.2220 C.2     1  UNL1        0.0260
      7  C         19.1780  -21.1320  -11.8800 C.3     1  UNL1        0.0420
      8  C         17.9550  -21.8280  -11.3200 C.3     1  UNL1        0.0250
      9  C         18.1340  -22.0150   -9.8250 C.3     1  UNL1        0.1330
     10  N         19.3070  -22.8370   -9.4900 N.am    1  UNL1       -0.3130
     11  C         19.2470  -23.7670   -8.4340 C.2     1  UNL1        0.2580
     12  O         19.9810  -24.7400   -8.2750 O.2     1  UNL1       -0.2670
     13  C         24.0040  -21.9580  -12.7390 C.2     1  UNL1        0.2560
     14  N         23.7890  -21.0930  -13.7920 N.am    1  UNL1       -0.3210
     15  H         22.8440  -20.7720  -13.9730 H       1  UNL1        0.1690
     16  O         25.0500  -22.5410  -12.4760 O.2     1  UNL1       -0.2670
     17  C         24.7190  -20.6300  -14.7500 C.2     1  UNL1        0.0680
     18  C         25.5690  -19.5430  -14.5400 C.2     1  UNL1        0.0320
     19  C         26.4590  -19.1430  -15.5390 C.2     1  UNL1        0.0020
     20  C         26.5020  -19.8250  -16.7530 C.2     1  UNL1        0.0030
     21  C         25.6520  -20.9100  -16.9770 C.2     1  UNL1        0.0390
     22  C         24.7580  -21.3180  -15.9830 C.2     1  UNL1        0.0950
     23  O         23.8780  -22.3710  -16.0990 O.2     1  UNL1       -0.3540
     24  C         24.2130  -23.3930  -17.0300 C.3     1  UNL1        0.2100
     25  C         18.1950  -23.5880   -7.4030 C.2     1  UNL1        0.0320
     26  C         16.9820  -24.2780   -7.4970 C.2     1  UNL1        0.0170
     27  C         15.9970  -24.0810   -6.5270 C.2     1  UNL1        0.0070
     28  C         16.2150  -23.1930   -5.4640 C.2     1  UNL1       -0.0620
     29  C         15.1400  -22.9540   -4.4440 C.3     1  UNL1        0.0480
     30  C         17.4180  -22.4780   -5.4020 C.2     1  UNL1        0.0070
     31  C         18.4060  -22.6700   -6.3700 C.2     1  UNL1        0.0170
@<TRIPOS>BOND
     1    24    23    1
     2    21    20    2
     3    21    22    1
     4    20    19    1
     5    23    22    1
     6    22    17    2
     7    19    18    2
     8    17    18    1
     9    17    14    1
    10    15    14    1
    11    14    13   am
    12    13    16    2
    13    13     1    1
    14     6     1    2
    15     6     5    1
    16     1     2    1
    17     7     5    1
    18     7     8    1
    19     5     4    2
    20     8     9    1
    21     2     3    2
    22     4     3    1
    23     4    10    1
    24     9    10    1
    25    10    11   am
    26    11    12    2
    27    11    25    1
    28    26    25    2
    29    26    27    1
    30    25    31    1
    31    27    28    2
    32    31    30    2
    33    28    30    1
    34    28    29    1
