@<TRIPOS>MOLECULE
41135_out_ligand_01.pdbqt
 32 35 0 0 0
SMALL
GASTEIGER

@<TRIPOS>ATOM
      1  C         22.9320  -22.1340  -12.0950 C.2     1  UNL1        0.0330
      2  C         23.0350  -22.8190  -10.8860 C.2     1  UNL1        0.0190
      3  C         21.9290  -22.9080  -10.0320 C.2     1  UNL1        0.0310
      4  C         20.6950  -22.3180  -10.3530 C.2     1  UNL1        0.0430
      5  C         20.5830  -21.6850  -11.6090 C.2     1  UNL1       -0.0300
      6  C         21.7020  -21.5820  -12.4590 C.2     1  UNL1        0.0260
      7  C         19.2900  -21.0710  -12.0700 C.3     1  UNL1        0.0420
      8  C         18.1230  -21.8010  -11.4380 C.3     1  UNL1        0.0250
      9  C         18.2950  -21.8010   -9.9310 C.3     1  UNL1        0.1330
     10  N         19.5580  -22.4000   -9.4680 N.am    1  UNL1       -0.3130
     11  C         19.7100  -22.7090   -8.0980 C.2     1  UNL1        0.2580
     12  O         20.7620  -22.7480   -7.4650 O.2     1  UNL1       -0.2670
     13  C         24.0820  -22.0070  -13.0370 C.2     1  UNL1        0.2560
     14  N         23.9510  -21.0110  -13.9810 N.am    1  UNL1       -0.3210
     15  H         23.0690  -20.5110  -14.0420 H       1  UNL1        0.1690
     16  O         25.0150  -22.7950  -12.9250 O.2     1  UNL1       -0.2670
     17  C         24.8750  -20.6180  -14.9750 C.2     1  UNL1        0.0680
     18  C         25.8090  -19.5960  -14.7990 C.2     1  UNL1        0.0320
     19  C         26.6850  -19.2590  -15.8320 C.2     1  UNL1        0.0020
     20  C         26.6290  -19.9380  -17.0450 C.2     1  UNL1        0.0030
     21  C         25.6960  -20.9610  -17.2350 C.2     1  UNL1        0.0390
     22  C         24.8200  -21.3110  -16.2050 C.2     1  UNL1        0.0950
     23  O         23.8580  -22.2920  -16.2790 O.2     1  UNL1       -0.3490
     24  C         24.1380  -23.4820  -17.0140 C.3     1  UNL1        0.1710
     25  C         23.1480  -23.6560  -18.1530 C.3     1  UNL1        0.0340
     26  C         18.4910  -23.0130   -7.3150 C.2     1  UNL1        0.0320
     27  C         18.1340  -22.1770   -6.2540 C.2     1  UNL1        0.0170
     28  C         16.9990  -22.4710   -5.4970 C.2     1  UNL1        0.0070
     29  C         16.2330  -23.6120   -5.7790 C.2     1  UNL1       -0.0620
     30  C         14.9990  -23.9120   -4.9800 C.3     1  UNL1        0.0480
     31  C         16.6080  -24.4480   -6.8420 C.2     1  UNL1        0.0070
     32  C         17.7420  -24.1590   -7.6020 C.2     1  UNL1        0.0170
@<TRIPOS>BOND
     1    25    24    1
     2    21    20    2
     3    21    22    1
     4    20    19    1
     5    24    23    1
     6    23    22    1
     7    22    17    2
     8    19    18    2
     9    17    18    1
    10    17    14    1
    11    15    14    1
    12    14    13   am
    13    13    16    2
    14    13     1    1
    15     6     1    2
    16     6     5    1
    17     1     2    1
    18     7     5    1
    19     7     8    1
    20     5     4    2
    21     8     9    1
    22     2     3    2
    23     4     3    1
    24     4    10    1
    25     9    10    1
    26    10    11   am
    27    11    12    2
    28    11    26    1
    29    32    26    2
    30    32    31    1
    31    26    27    1
    32    31    29    2
    33    27    28    2
    34    29    28    1
    35    29    30    1
