@<TRIPOS>MOLECULE
41134_out_ligand_01.pdbqt
 31 34 0 0 0
SMALL
GASTEIGER

@<TRIPOS>ATOM
      1  C         21.7040  -21.6240  -12.3130 C.2     1  UNL1        0.0330
      2  C         20.4490  -21.0400  -12.1550 C.2     1  UNL1        0.0190
      3  C         19.6190  -21.4370  -11.0980 C.2     1  UNL1        0.0310
      4  C         20.0140  -22.4210  -10.1770 C.2     1  UNL1        0.0430
      5  C         21.2970  -22.9890  -10.3330 C.2     1  UNL1       -0.0300
      6  C         22.1330  -22.5780  -11.3890 C.2     1  UNL1        0.0260
      7  C         21.8370  -24.0160   -9.3730 C.3     1  UNL1        0.0420
      8  C         20.7120  -24.7170   -8.6390 C.3     1  UNL1        0.0250
      9  C         19.7790  -23.6770   -8.0480 C.3     1  UNL1        0.1330
     10  N         19.1740  -22.8140   -9.0740 N.am    1  UNL1       -0.3130
     11  C         17.8190  -22.4390   -8.9850 C.2     1  UNL1        0.2580
     12  O         17.1060  -22.0790   -9.9200 O.2     1  UNL1       -0.2670
     13  C         22.6230  -21.2320  -13.4190 C.2     1  UNL1        0.2560
     14  N         23.8040  -21.9510  -13.4720 N.am    1  UNL1       -0.3230
     15  H         23.9850  -22.5890  -12.7080 H       1  UNL1        0.1690
     16  O         22.2870  -20.3100  -14.1510 O.2     1  UNL1       -0.2670
     17  C         24.8390  -21.8320  -14.4240 C.2     1  UNL1        0.0370
     18  C         25.9390  -21.0410  -14.0720 C.2     1  UNL1        0.0290
     19  C         27.0070  -20.8770  -14.9550 C.2     1  UNL1        0.0050
     20  C         26.9900  -21.5050  -16.2010 C.2     1  UNL1        0.0370
     21  C         25.9030  -22.3000  -16.5640 C.2     1  UNL1        0.0700
     22  C         24.8330  -22.4590  -15.6710 C.2     1  UNL1        0.0660
     23  O         25.7650  -22.9730  -17.7480 O.2     1  UNL1       -0.3560
     24  C         24.4440  -23.3070  -18.1530 C.3     1  UNL1        0.2100
     25  C         17.1630  -22.4890   -7.6550 C.2     1  UNL1        0.0320
     26  C         15.8710  -23.0050   -7.5160 C.2     1  UNL1        0.0170
     27  C         15.2790  -23.0590   -6.2530 C.2     1  UNL1        0.0070
     28  C         15.9810  -22.6230   -5.1200 C.2     1  UNL1       -0.0620
     29  C         15.3330  -22.6540   -3.7680 C.3     1  UNL1        0.0480
     30  C         17.2810  -22.1180   -5.2710 C.2     1  UNL1        0.0070
     31  C         17.8770  -22.0620   -6.5320 C.2     1  UNL1        0.0170
@<TRIPOS>BOND
     1    24    23    1
     2    23    21    1
     3    21    20    2
     4    21    22    1
     5    20    19    1
     6    22    17    2
     7    19    18    2
     8    17    18    1
     9    17    14    1
    10    16    13    2
    11    14    13   am
    12    14    15    1
    13    13     1    1
    14     1     2    2
    15     1     6    1
    16     2     3    1
    17     6     5    2
    18     3     4    2
    19     5     4    1
    20     5     7    1
    21     4    10    1
    22    12    11    2
    23     7     8    1
    24    10    11   am
    25    10     9    1
    26    11    25    1
    27     8     9    1
    28    25    26    2
    29    25    31    1
    30    26    27    1
    31    31    30    2
    32    27    28    2
    33    30    28    1
    34    28    29    1
