@<TRIPOS>MOLECULE
41130_out_ligand_01.pdbqt
 31 34 0 0 0
SMALL
GASTEIGER

@<TRIPOS>ATOM
      1  C         18.9620  -22.1020   -7.0760 C.2     1  UNL1        0.2580
      2  O         19.6880  -21.5460   -6.2540 O.2     1  UNL1       -0.2670
      3  N         19.2310  -22.2690   -8.4480 N.am    1  UNL1       -0.3130
      4  C         18.1340  -22.5160   -9.3970 C.3     1  UNL1        0.1330
      5  C         18.3240  -21.7900  -10.7150 C.3     1  UNL1        0.0250
      6  C         19.6060  -22.2690  -11.3620 C.3     1  UNL1        0.0420
      7  C         20.7580  -22.1890  -10.3950 C.2     1  UNL1       -0.0300
      8  C         22.0600  -22.1520  -10.9340 C.2     1  UNL1        0.0260
      9  C         23.1820  -22.0980  -10.1040 C.2     1  UNL1        0.0320
     10  C         22.9970  -22.0680   -8.7230 C.2     1  UNL1        0.0190
     11  C         21.7050  -22.1210   -8.1830 C.2     1  UNL1        0.0310
     12  C         20.5630  -22.1820   -8.9970 C.2     1  UNL1        0.0430
     13  C         24.5310  -22.0540  -10.7320 C.2     1  UNL1        0.2510
     14  O         25.1950  -21.0240  -10.6880 O.2     1  UNL1       -0.2680
     15  N         24.9450  -23.2000  -11.3760 N.am    1  UNL1       -0.3530
     16  H         24.2650  -23.9180  -11.5790 H       1  UNL1        0.1630
     17  C         26.1740  -23.2340  -12.1380 C.3     1  UNL1        0.1610
     18  C         25.8880  -23.1860  -13.6190 C.2     1  UNL1       -0.0400
     19  C         25.9610  -21.9670  -14.3100 C.2     1  UNL1        0.0100
     20  C         25.6760  -21.9090  -15.6760 C.2     1  UNL1        0.0240
     21  C         25.3100  -23.0670  -16.3560 C.2     1  UNL1        0.0340
     22 CL         24.9570  -22.9970  -18.0380 Cl      1  UNL1       -0.0840
     23  C         25.2260  -24.2850  -15.6810 C.2     1  UNL1        0.0240
     24  C         25.5110  -24.3430  -14.3140 C.2     1  UNL1        0.0100
     25  C         17.6790  -22.6240   -6.5440 C.2     1  UNL1        0.0320
     26  C         17.6820  -23.8130   -5.8100 C.2     1  UNL1        0.0170
     27  C         16.4810  -24.3260   -5.3180 C.2     1  UNL1        0.0070
     28  C         15.2720  -23.6600   -5.5600 C.2     1  UNL1       -0.0620
     29  C         13.9770  -24.2340   -5.0640 C.3     1  UNL1        0.0480
     30  C         15.2750  -22.4890   -6.3310 C.2     1  UNL1        0.0070
     31  C         16.4740  -21.9710   -6.8260 C.2     1  UNL1        0.0170
@<TRIPOS>BOND
     1    22    21    1
     2    21    23    2
     3    21    20    1
     4    23    24    1
     5    20    19    2
     6    24    18    2
     7    19    18    1
     8    18    17    1
     9    17    15    1
    10    16    15    1
    11    15    13   am
    12     6     5    1
    13     6     7    1
    14     8     7    2
    15     8     9    1
    16    13    14    2
    17    13     9    1
    18     5     4    1
    19     7    12    1
    20     9    10    2
    21     4     3    1
    22    12     3    1
    23    12    11    2
    24    10    11    1
    25     3     1   am
    26     1    25    1
    27     1     2    2
    28    31    25    2
    29    31    30    1
    30    25    26    1
    31    30    28    2
    32    26    27    2
    33    28    27    1
    34    28    29    1
