@<TRIPOS>MOLECULE
41138_out_ligand_01.pdbqt
 32 35 0 0 0
SMALL
GASTEIGER

@<TRIPOS>ATOM
      1  C         21.4510  -21.5770  -12.2240 C.2     1  UNL1        0.0330
      2  C         20.1110  -21.2050  -12.1340 C.2     1  UNL1        0.0190
      3  C         19.3010  -21.7330  -11.1190 C.2     1  UNL1        0.0310
      4  C         19.7910  -22.6600  -10.1860 C.2     1  UNL1        0.0430
      5  C         21.1440  -23.0490  -10.3000 C.2     1  UNL1       -0.0300
      6  C         21.9600  -22.5040  -11.3110 C.2     1  UNL1        0.0260
      7  C         21.7780  -24.0240   -9.3450 C.3     1  UNL1        0.0420
      8  C         20.7300  -24.8890   -8.6800 C.3     1  UNL1        0.0250
      9  C         19.6490  -23.9980   -8.0970 C.3     1  UNL1        0.1330
     10  N         18.9730  -23.1840   -9.1180 N.am    1  UNL1       -0.3130
     11  C         17.5820  -22.9660   -9.0510 C.2     1  UNL1        0.2580
     12  O         16.8500  -22.6400   -9.9830 O.2     1  UNL1       -0.2670
     13  C         22.3590  -21.0390  -13.2780 C.2     1  UNL1        0.2560
     14  N         23.5860  -21.6730  -13.3740 N.am    1  UNL1       -0.3230
     15  H         23.7210  -22.5000  -12.8060 H       1  UNL1        0.1690
     16  O         21.9500  -20.1270  -13.9850 O.2     1  UNL1       -0.2670
     17  C         24.6480  -21.3530  -14.2440 C.2     1  UNL1        0.0350
     18  C         25.5990  -20.3650  -13.9870 C.2     1  UNL1        0.0290
     19  C         26.6270  -20.1130  -14.9000 C.2     1  UNL1        0.0030
     20  C         26.7180  -20.8480  -16.0820 C.2     1  UNL1        0.0150
     21  C         25.7770  -21.8450  -16.3530 C.2     1  UNL1        0.0110
     22  C         24.7460  -22.0910  -15.4300 C.2     1  UNL1        0.0440
     23  C         25.8210  -22.6670  -17.5990 C.2     1  UNL1        0.1550
     24  C         24.5340  -23.2230  -18.1520 C.3     1  UNL1        0.0960
     25  O         26.8970  -22.8790  -18.1530 O.2     1  UNL1       -0.2930
     26  C         16.9060  -23.1520   -7.7440 C.2     1  UNL1        0.0320
     27  C         16.0270  -24.2260   -7.5820 C.2     1  UNL1        0.0170
     28  C         15.3700  -24.4060   -6.3630 C.2     1  UNL1        0.0070
     29  C         15.5680  -23.5020   -5.3100 C.2     1  UNL1       -0.0620
     30  C         14.8830  -23.7140   -3.9920 C.3     1  UNL1        0.0480
     31  C         16.4450  -22.4220   -5.4870 C.2     1  UNL1        0.0070
     32  C         17.1030  -22.2370   -6.7030 C.2     1  UNL1        0.0170
@<TRIPOS>BOND
     1    25    23    2
     2    24    23    1
     3    23    21    1
     4    21    20    2
     5    21    22    1
     6    20    19    1
     7    22    17    2
     8    19    18    2
     9    17    18    1
    10    17    14    1
    11    16    13    2
    12    14    13   am
    13    14    15    1
    14    13     1    1
    15     1     2    2
    16     1     6    1
    17     2     3    1
    18     6     5    2
    19     3     4    2
    20     5     4    1
    21     5     7    1
    22     4    10    1
    23    12    11    2
    24     7     8    1
    25    10    11   am
    26    10     9    1
    27    11    26    1
    28     8     9    1
    29    26    27    2
    30    26    32    1
    31    27    28    1
    32    32    31    2
    33    28    29    2
    34    31    29    1
    35    29    30    1
