@<TRIPOS>MOLECULE
41137_out_ligand_01.pdbqt
 31 34 0 0 0
SMALL
GASTEIGER

@<TRIPOS>ATOM
      1  C         22.7110  -22.1760  -11.8030 C.2     1  UNL1        0.0330
      2  C         22.7500  -22.8930  -10.6090 C.2     1  UNL1        0.0190
      3  C         21.6030  -22.9870   -9.8100 C.2     1  UNL1        0.0310
      4  C         20.3940  -22.3730  -10.1750 C.2     1  UNL1        0.0430
      5  C         20.3490  -21.7060  -11.4180 C.2     1  UNL1       -0.0300
      6  C         21.5070  -21.5980  -12.2120 C.2     1  UNL1        0.0260
      7  C         19.0850  -21.0620  -11.9180 C.3     1  UNL1        0.0420
      8  C         17.8870  -21.8130  -11.3810 C.3     1  UNL1        0.0250
      9  C         17.9710  -21.8680   -9.8670 C.3     1  UNL1        0.1330
     10  N         19.2150  -22.4560   -9.3440 N.am    1  UNL1       -0.3130
     11  C         19.3030  -22.7790   -7.9720 C.2     1  UNL1        0.2580
     12  O         20.3280  -22.8650   -7.3000 O.2     1  UNL1       -0.2670
     13  C         23.9070  -22.0440  -12.6810 C.2     1  UNL1        0.2560
     14  N         23.8070  -21.0630  -13.6510 N.am    1  UNL1       -0.3230
     15  H         22.9070  -20.6110  -13.7520 H       1  UNL1        0.1690
     16  O         24.8430  -22.8130  -12.5030 O.2     1  UNL1       -0.2670
     17  C         24.7900  -20.6830  -14.5900 C.2     1  UNL1        0.0360
     18  C         25.6060  -19.5590  -14.4500 C.2     1  UNL1        0.0290
     19  C         26.5610  -19.2520  -15.4230 C.2     1  UNL1        0.0040
     20  C         26.7020  -20.0630  -16.5490 C.2     1  UNL1        0.0180
     21  C         25.8820  -21.1790  -16.7130 C.2     1  UNL1        0.0020
     22  C         24.9350  -21.4880  -15.7280 C.2     1  UNL1        0.0480
     23  S         26.0900  -22.2110  -18.1530 S.3     1  UNL1       -0.1340
     24  C         24.4930  -23.0680  -18.1440 C.3     1  UNL1        0.0950
     25  C         18.0450  -23.0280   -7.2370 C.2     1  UNL1        0.0320
     26  C         17.7130  -22.2150   -6.1520 C.2     1  UNL1        0.0170
     27  C         16.5350  -22.4600   -5.4440 C.2     1  UNL1        0.0070
     28  C         15.6910  -23.5170   -5.8130 C.2     1  UNL1       -0.0620
     29  C         14.4470  -23.8030   -5.0240 C.3     1  UNL1        0.0480
     30  C         16.0560  -24.3480   -6.8820 C.2     1  UNL1        0.0070
     31  C         17.2310  -24.1070   -7.5950 C.2     1  UNL1        0.0170
@<TRIPOS>BOND
     1    23    24    1
     2    23    21    1
     3    21    20    2
     4    21    22    1
     5    20    19    1
     6    22    17    2
     7    19    18    2
     8    17    18    1
     9    17    14    1
    10    15    14    1
    11    14    13   am
    12    13    16    2
    13    13     1    1
    14     6     1    2
    15     6     5    1
    16     7     5    1
    17     7     8    1
    18     1     2    1
    19     5     4    2
    20     8     9    1
    21     2     3    2
    22     4     3    1
    23     4    10    1
    24     9    10    1
    25    10    11   am
    26    11    12    2
    27    11    25    1
    28    31    25    2
    29    31    30    1
    30    25    26    1
    31    30    28    2
    32    26    27    2
    33    28    27    1
    34    28    29    1
