@<TRIPOS>MOLECULE
41132_out_ligand_01.pdbqt
 31 34 0 0 0
SMALL
GASTEIGER

@<TRIPOS>ATOM
      1  C         19.2430  -23.3680   -8.3400 C.2     1  UNL1        0.2580
      2  O         20.2080  -24.1170   -8.2020 O.2     1  UNL1       -0.2670
      3  N         19.0100  -22.4880   -9.4190 N.am    1  UNL1       -0.3130
      4  C         17.6230  -22.1680   -9.7950 C.3     1  UNL1        0.1330
      5  C         17.4960  -20.9890  -10.7410 C.3     1  UNL1        0.0250
      6  C         18.2940  -21.2740  -11.9960 C.3     1  UNL1        0.0420
      7  C         19.7130  -21.6160  -11.6330 C.2     1  UNL1       -0.0300
      8  C         20.7150  -21.3680  -12.5910 C.2     1  UNL1        0.0260
      9  C         22.0530  -21.6570  -12.3170 C.2     1  UNL1        0.0320
     10  C         22.3970  -22.1680  -11.0660 C.2     1  UNL1        0.0190
     11  C         21.4000  -22.4280  -10.1170 C.2     1  UNL1        0.0310
     12  C         20.0410  -22.1980  -10.3900 C.2     1  UNL1        0.0430
     13  C         23.0710  -21.3870  -13.3640 C.2     1  UNL1        0.2510
     14  O         22.7530  -20.7990  -14.3920 O.2     1  UNL1       -0.2680
     15  N         24.3410  -21.8640  -13.1040 N.am    1  UNL1       -0.3570
     16  H         24.4720  -22.4760  -12.3100 H       1  UNL1        0.1620
     17  C         25.3720  -21.8660  -14.1260 C.3     1  UNL1        0.1270
     18  C         26.3450  -20.6880  -13.9840 C.3     1  UNL1        0.0580
     19  C         26.3300  -19.6880  -15.1190 C.2     1  UNL1       -0.0570
     20  C         26.6350  -18.3370  -14.8970 C.2     1  UNL1        0.0070
     21  C         26.6280  -17.4250  -15.9550 C.2     1  UNL1        0.0010
     22  C         26.3240  -17.8530  -17.2460 C.2     1  UNL1        0.0000
     23  C         26.0260  -19.1940  -17.4830 C.2     1  UNL1        0.0010
     24  C         26.0320  -20.1080  -16.4250 C.2     1  UNL1        0.0070
     25  C         18.2370  -23.4290   -7.2540 C.2     1  UNL1        0.0320
     26  C         18.3260  -22.5260   -6.1920 C.2     1  UNL1        0.0170
     27  C         17.3620  -22.5480   -5.1830 C.2     1  UNL1        0.0070
     28  C         16.3040  -23.4680   -5.2320 C.2     1  UNL1       -0.0620
     29  C         15.2450  -23.4610   -4.1680 C.3     1  UNL1        0.0480
     30  C         16.2040  -24.3440   -6.3230 C.2     1  UNL1        0.0070
     31  C         17.1650  -24.3240   -7.3360 C.2     1  UNL1        0.0170
@<TRIPOS>BOND
     1    23    22    2
     2    23    24    1
     3    22    21    1
     4    24    19    2
     5    21    20    2
     6    19    20    1
     7    19    18    1
     8    14    13    2
     9    17    18    1
    10    17    15    1
    11    13    15   am
    12    13     9    1
    13    15    16    1
    14     8     9    1
    15     8     7    2
    16     9    10    2
    17     6     7    1
    18     6     5    1
    19     7    12    1
    20    10    11    1
    21     5     4    1
    22    12    11    2
    23    12     3    1
    24     4     3    1
    25     3     1   am
    26     1     2    2
    27     1    25    1
    28    31    25    2
    29    31    30    1
    30    25    26    1
    31    30    28    2
    32    26    27    2
    33    28    27    1
    34    28    29    1
