@<TRIPOS>MOLECULE
41140_out_ligand_01.pdbqt
 31 34 0 0 0
SMALL
GASTEIGER

@<TRIPOS>ATOM
      1  C         23.2720  -22.1020  -12.5100 C.2     1  UNL1        0.0330
      2  C         23.4090  -22.9090  -11.3830 C.2     1  UNL1        0.0190
      3  C         22.3500  -23.0280  -10.4720 C.2     1  UNL1        0.0310
      4  C         21.1340  -22.3520  -10.6590 C.2     1  UNL1        0.0430
      5  C         20.9830  -21.5950  -11.8400 C.2     1  UNL1       -0.0300
      6  C         22.0540  -21.4610  -12.7440 C.2     1  UNL1        0.0260
      7  C         19.6980  -20.8810  -12.1560 C.3     1  UNL1        0.0420
      8  C         18.5370  -21.6340  -11.5440 C.3     1  UNL1        0.0250
      9  C         18.7800  -21.7930  -10.0550 C.3     1  UNL1        0.1330
     10  N         20.0490  -22.4530   -9.7090 N.am    1  UNL1       -0.3130
     11  C         20.2690  -22.8780   -8.3800 C.2     1  UNL1        0.2580
     12  O         21.3540  -23.0870   -7.8400 O.2     1  UNL1       -0.2670
     13  C         24.3760  -21.9310  -13.4970 C.2     1  UNL1        0.2560
     14  N         23.9650  -21.5230  -14.7550 N.am    1  UNL1       -0.3220
     15  H         22.9670  -21.4980  -14.9050 H       1  UNL1        0.1690
     16  O         25.5170  -22.1920  -13.1360 O.2     1  UNL1       -0.2670
     17  C         24.7680  -21.2410  -15.8860 C.2     1  UNL1        0.0410
     18  C         25.4860  -20.0450  -16.0090 C.2     1  UNL1        0.0300
     19  C         26.2770  -19.7880  -17.1320 C.2     1  UNL1        0.0020
     20  C         26.3620  -20.7250  -18.1530 C.2     1  UNL1        0.0010
     21  C         25.6520  -21.9170  -18.0530 C.2     1  UNL1        0.0090
     22  C         24.8420  -22.1920  -16.9310 C.2     1  UNL1       -0.0320
     23  C         24.1120  -23.5180  -16.9100 C.3     1  UNL1        0.0360
     24  C         23.1460  -23.6610  -18.0770 C.3     1  UNL1        0.0100
     25  C         19.0900  -23.0770   -7.5100 C.2     1  UNL1        0.0320
     26  C         18.8070  -22.1370   -6.5180 C.2     1  UNL1        0.0170
     27  C         17.7050  -22.3310   -5.6840 C.2     1  UNL1        0.0070
     28  C         16.8890  -23.4600   -5.8350 C.2     1  UNL1       -0.0620
     29  C         15.7270  -23.6840   -4.9110 C.3     1  UNL1        0.0480
     30  C         17.2070  -24.4140   -6.8130 C.2     1  UNL1        0.0070
     31  C         18.3080  -24.2270   -7.6510 C.2     1  UNL1        0.0170
@<TRIPOS>BOND
     1    20    21    2
     2    20    19    1
     3    24    23    1
     4    21    22    1
     5    19    18    2
     6    22    23    1
     7    22    17    2
     8    18    17    1
     9    17    14    1
    10    15    14    1
    11    14    13   am
    12    13    16    2
    13    13     1    1
    14     6     1    2
    15     6     5    1
    16     1     2    1
    17     7     5    1
    18     7     8    1
    19     5     4    2
    20     8     9    1
    21     2     3    2
    22     4     3    1
    23     4    10    1
    24     9    10    1
    25    10    11   am
    26    11    12    2
    27    11    25    1
    28    31    25    2
    29    31    30    1
    30    25    26    1
    31    30    28    2
    32    26    27    2
    33    28    27    1
    34    28    29    1
