@<TRIPOS>MOLECULE
41142_out_ligand_01.pdbqt
 30 33 0 0 0
SMALL
GASTEIGER

@<TRIPOS>ATOM
      1  C         19.1380  -23.4170   -8.3800 C.2     1  UNL1        0.2580
      2  O         20.0040  -24.2330   -8.0700 O.2     1  UNL1       -0.2670
      3  N         19.1640  -22.5230   -9.4720 N.am    1  UNL1       -0.3130
      4  C         17.8990  -21.9700   -9.9840 C.3     1  UNL1        0.1330
      5  C         18.0630  -20.8220  -10.9620 C.3     1  UNL1        0.0250
      6  C         18.9370  -21.2720  -12.1120 C.3     1  UNL1        0.0420
      7  C         20.2460  -21.7820  -11.5780 C.2     1  UNL1       -0.0300
      8  C         21.3830  -21.6790  -12.4010 C.2     1  UNL1        0.0260
      9  C         22.6290  -22.1310  -11.9620 C.2     1  UNL1        0.0330
     10  C         22.7460  -22.6560  -10.6770 C.2     1  UNL1        0.0190
     11  C         21.6130  -22.7760   -9.8630 C.2     1  UNL1        0.0310
     12  C         20.3390  -22.3780  -10.3010 C.2     1  UNL1        0.0430
     13  C         23.8020  -21.9980  -12.8720 C.2     1  UNL1        0.2560
     14  O         24.7400  -22.7710  -12.7270 O.2     1  UNL1       -0.2670
     15  N         23.7150  -20.9590  -13.7830 N.am    1  UNL1       -0.3230
     16  H         22.9300  -20.3290  -13.6840 H       1  UNL1        0.1690
     17  C         24.6510  -20.6200  -14.7840 C.2     1  UNL1        0.0370
     18  C         25.5510  -19.5840  -14.4910 C.2     1  UNL1        0.0290
     19  C         26.5080  -19.1790  -15.4270 C.2     1  UNL1        0.0050
     20  C         26.5710  -19.8080  -16.6660 C.2     1  UNL1        0.0420
     21  C         25.6760  -20.8300  -16.9560 C.2     1  UNL1        0.1180
     22  F         25.7360  -21.4310  -18.1530 F       1  UNL1       -0.2060
     23  C         24.7190  -21.2410  -16.0310 C.2     1  UNL1        0.0710
     24  C         17.9430  -23.4160   -7.5100 C.2     1  UNL1        0.0320
     25  C         17.8580  -22.5180   -6.4430 C.2     1  UNL1        0.0170
     26  C         16.7320  -22.5350   -5.6190 C.2     1  UNL1        0.0070
     27  C         15.7000  -23.4580   -5.8460 C.2     1  UNL1       -0.0620
     28  C         14.4950  -23.4630   -4.9510 C.3     1  UNL1        0.0480
     29  C         15.8090  -24.3650   -6.9080 C.2     1  UNL1        0.0070
     30  C         16.9330  -24.3520   -7.7370 C.2     1  UNL1        0.0170
@<TRIPOS>BOND
     1    22    21    1
     2    21    20    2
     3    21    23    1
     4    20    19    1
     5    23    17    2
     6    19    18    2
     7    17    18    1
     8    17    15    1
     9    15    16    1
    10    15    13   am
    11    13    14    2
    12    13     9    1
    13     8     9    1
    14     8     7    2
    15     6     7    1
    16     6     5    1
    17     9    10    2
    18     7    12    1
    19     5     4    1
    20    10    11    1
    21    12    11    2
    22    12     3    1
    23     4     3    1
    24     3     1   am
    25     1     2    2
    26     1    24    1
    27    30    24    2
    28    30    29    1
    29    24    25    1
    30    29    27    2
    31    25    26    2
    32    27    26    1
    33    27    28    1
