@<TRIPOS>MOLECULE
41148_out_ligand_01.pdbqt
 28 30 0 0 0
SMALL
GASTEIGER

@<TRIPOS>ATOM
      1  C         21.9020  -21.6440  -12.3400 C.2     1  UNL1        0.0320
      2  C         20.5660  -21.2500  -12.3260 C.2     1  UNL1        0.0190
      3  C         19.6970  -21.7320  -11.3360 C.2     1  UNL1        0.0310
      4  C         20.1250  -22.6350  -10.3500 C.2     1  UNL1        0.0430
      5  C         21.4750  -23.0480  -10.3850 C.2     1  UNL1       -0.0300
      6  C         22.3480  -22.5470  -11.3730 C.2     1  UNL1        0.0260
      7  C         22.0460  -24.0020   -9.3700 C.3     1  UNL1        0.0420
      8  C         20.9510  -24.8310   -8.7340 C.3     1  UNL1        0.0250
      9  C         19.8580  -23.9070   -8.2330 C.3     1  UNL1        0.1330
     10  N         19.2460  -23.1120   -9.3100 N.am    1  UNL1       -0.3130
     11  C         17.8590  -22.8660   -9.3140 C.2     1  UNL1        0.2580
     12  O         17.1780  -22.5510  -10.2870 O.2     1  UNL1       -0.2670
     13  C         22.8750  -21.1620  -13.3600 C.2     1  UNL1        0.2520
     14  N         24.2020  -21.4810  -13.1520 N.am    1  UNL1       -0.3530
     15  H         24.4710  -22.0070  -12.3320 H       1  UNL1        0.1630
     16  O         22.4760  -20.5390  -14.3380 O.2     1  UNL1       -0.2680
     17  C         25.2620  -20.9910  -14.0290 C.3     1  UNL1        0.0800
     18  C         26.0850  -19.9350  -13.2960 C.3     1  UNL1        0.0320
     19  C         26.0990  -22.1830  -14.5270 C.3     1  UNL1        0.0240
     20  C         25.2810  -23.3850  -15.0110 C.3     1  UNL1       -0.0030
     21  C         24.5970  -23.1440  -16.3500 C.3     1  UNL1        0.0050
     22  C         17.1190  -23.0060   -8.0360 C.2     1  UNL1        0.0320
     23  C         17.2820  -22.0660   -7.0120 C.2     1  UNL1        0.0170
     24  C         16.5630  -22.2070   -5.8240 C.2     1  UNL1        0.0070
     25  C         15.6620  -23.2680   -5.6600 C.2     1  UNL1       -0.0620
     26  C         14.9110  -23.4350   -4.3710 C.3     1  UNL1        0.0480
     27  C         15.4990  -24.1970   -6.6970 C.2     1  UNL1        0.0070
     28  C         16.2140  -24.0610   -7.8880 C.2     1  UNL1        0.0170
@<TRIPOS>BOND
     1    21    20    1
     2    20    19    1
     3    19    17    1
     4    16    13    2
     5    17    18    1
     6    17    14    1
     7    13    14   am
     8    13     1    1
     9    14    15    1
    10     1     2    2
    11     1     6    1
    12     2     3    1
    13     6     5    2
    14     3     4    2
    15     5     4    1
    16     5     7    1
    17     4    10    1
    18    12    11    2
    19     7     8    1
    20    11    10   am
    21    11    22    1
    22    10     9    1
    23     8     9    1
    24    22    28    2
    25    22    23    1
    26    28    27    1
    27    23    24    2
    28    27    25    2
    29    24    25    1
    30    25    26    1
