@<TRIPOS>MOLECULE
41149_out_ligand_01.pdbqt
 31 34 0 0 0
SMALL
GASTEIGER

@<TRIPOS>ATOM
      1  C         21.8740  -21.7220  -12.5400 C.2     1  UNL1        0.0330
      2  C         22.2990  -22.4530  -11.4330 C.2     1  UNL1        0.0190
      3  C         21.4020  -22.7500  -10.3990 C.2     1  UNL1        0.0310
      4  C         20.0620  -22.3320  -10.4400 C.2     1  UNL1        0.0430
      5  C         19.6450  -21.5760  -11.5570 C.2     1  UNL1       -0.0300
      6  C         20.5540  -21.2680  -12.5870 C.2     1  UNL1        0.0260
      7  C         18.2430  -21.0420  -11.6820 C.3     1  UNL1        0.0420
      8  C         17.2810  -21.8430  -10.8280 C.3     1  UNL1        0.0250
      9  C         17.8330  -21.9410   -9.4170 C.3     1  UNL1        0.1330
     10  N         19.1410  -22.6110   -9.3650 N.am    1  UNL1       -0.3130
     11  C         19.4420  -23.5100   -8.3240 C.2     1  UNL1        0.2580
     12  O         20.2940  -24.3970   -8.3560 O.2     1  UNL1       -0.2670
     13  C         22.7930  -21.3690  -13.6610 C.2     1  UNL1        0.2560
     14  N         23.7440  -22.3250  -13.9530 N.am    1  UNL1       -0.3220
     15  H         23.6870  -23.2180  -13.4740 H       1  UNL1        0.1690
     16  O         22.6230  -20.3010  -14.2370 O.2     1  UNL1       -0.2670
     17  C         24.7610  -22.2780  -14.9370 C.2     1  UNL1        0.0510
     18  C         24.5210  -22.5070  -16.2950 C.2     1  UNL1        0.0310
     19  C         25.5690  -22.4550  -17.2200 C.2     1  UNL1        0.0020
     20  C         26.8640  -22.1750  -16.8000 C.2     1  UNL1        0.0020
     21  C         27.1190  -21.9370  -15.4500 C.2     1  UNL1        0.0210
     22  C         26.0750  -21.9740  -14.5170 C.2     1  UNL1        0.0260
     23  S         26.4430  -21.6550  -12.7840 S.3     1  UNL1       -0.1320
     24  C         26.3220  -19.8460  -12.7920 C.3     1  UNL1        0.0950
     25  C         18.6640  -23.4110   -7.0650 C.2     1  UNL1        0.0320
     26  C         17.7060  -24.3780   -6.7420 C.2     1  UNL1        0.0170
     27  C         16.9720  -24.2580   -5.5610 C.2     1  UNL1        0.0070
     28  C         17.1700  -23.1600   -4.7110 C.2     1  UNL1       -0.0620
     29  C         16.4000  -23.0470   -3.4280 C.3     1  UNL1        0.0480
     30  C         18.1240  -22.1910   -5.0510 C.2     1  UNL1        0.0070
     31  C         18.8610  -22.3070   -6.2310 C.2     1  UNL1        0.0170
@<TRIPOS>BOND
     1    19    20    2
     2    19    18    1
     3    20    21    1
     4    18    17    2
     5    21    22    2
     6    17    22    1
     7    17    14    1
     8    22    23    1
     9    16    13    2
    10    14    13   am
    11    14    15    1
    12    13     1    1
    13    24    23    1
    14     6     1    2
    15     6     5    1
    16     1     2    1
    17     7     5    1
    18     7     8    1
    19     5     4    2
    20     2     3    2
    21     8     9    1
    22     4     3    1
    23     4    10    1
    24     9    10    1
    25    10    11   am
    26    12    11    2
    27    11    25    1
    28    25    26    2
    29    25    31    1
    30    26    27    1
    31    31    30    2
    32    27    28    2
    33    30    28    1
    34    28    29    1
