@<TRIPOS>MOLECULE
41145_out_ligand_01.pdbqt
 30 33 0 0 0
SMALL
GASTEIGER

@<TRIPOS>ATOM
      1  C         17.7570  -22.8370   -9.1520 C.2     1  UNL1        0.2580
      2  O         17.0450  -22.5410  -10.1100 O.2     1  UNL1       -0.2670
      3  N         19.1400  -23.0950   -9.1940 N.am    1  UNL1       -0.3130
      4  C         19.7820  -23.9000   -8.1450 C.3     1  UNL1        0.1330
      5  C         20.8260  -24.8530   -8.6980 C.3     1  UNL1        0.0250
      6  C         21.9100  -24.0530   -9.3900 C.3     1  UNL1        0.0420
      7  C         21.3170  -23.0780  -10.3720 C.2     1  UNL1       -0.0300
      8  C         22.1540  -22.5900  -11.3960 C.2     1  UNL1        0.0260
      9  C         21.6780  -21.6770  -12.3380 C.2     1  UNL1        0.0330
     10  C         20.3680  -21.2140  -12.2330 C.2     1  UNL1        0.0190
     11  C         19.5360  -21.6870  -11.2100 C.2     1  UNL1        0.0310
     12  C         19.9830  -22.6290  -10.2690 C.2     1  UNL1        0.0430
     13  C         22.6080  -21.1950  -13.4000 C.2     1  UNL1        0.2560
     14  O         22.2550  -20.2510  -14.0970 O.2     1  UNL1       -0.2670
     15  N         23.8150  -21.8620  -13.4630 N.am    1  UNL1       -0.3220
     16  H         24.0190  -22.5320  -12.7300 H       1  UNL1        0.1690
     17  C         24.8720  -21.6660  -14.3830 C.2     1  UNL1        0.0520
     18  C         24.8200  -22.0970  -15.7110 C.2     1  UNL1        0.0310
     19  C         25.8980  -21.8820  -16.5770 C.2     1  UNL1        0.0020
     20  C         27.0470  -21.2370  -16.1250 C.2     1  UNL1        0.0020
     21  C         27.1210  -20.8050  -14.8030 C.2     1  UNL1        0.0210
     22  C         26.0420  -21.0190  -13.9390 C.2     1  UNL1        0.0370
     23 BR         26.2150  -20.4080  -12.1440 Br      1  UNL1       -0.0490
     24  C         17.0680  -22.9380   -7.8420 C.2     1  UNL1        0.0320
     25  C         16.0880  -23.9110   -7.6300 C.2     1  UNL1        0.0170
     26  C         15.4590  -24.0000   -6.3860 C.2     1  UNL1        0.0070
     27  C         15.8080  -23.1230   -5.3510 C.2     1  UNL1       -0.0620
     28  C         15.1560  -23.2330   -4.0030 C.3     1  UNL1        0.0480
     29  C         16.8170  -22.1730   -5.5650 C.2     1  UNL1        0.0070
     30  C         17.4490  -22.0820   -6.8060 C.2     1  UNL1        0.0170
@<TRIPOS>BOND
     1    19    20    2
     2    19    18    1
     3    20    21    1
     4    18    17    2
     5    21    22    2
     6    17    22    1
     7    17    15    1
     8    14    13    2
     9    22    23    1
    10    15    13   am
    11    15    16    1
    12    13     9    1
    13     9    10    2
    14     9     8    1
    15    10    11    1
    16     8     7    2
    17    11    12    2
    18     7    12    1
    19     7     6    1
    20    12     3    1
    21     2     1    2
    22     6     5    1
    23     3     1   am
    24     3     4    1
    25     1    24    1
    26     5     4    1
    27    24    25    2
    28    24    30    1
    29    25    26    1
    30    30    29    2
    31    26    27    2
    32    29    27    1
    33    27    28    1
