@<TRIPOS>MOLECULE
41153_out_ligand_01.pdbqt
 30 33 0 0 0
SMALL
GASTEIGER

@<TRIPOS>ATOM
      1  C         24.1380  -22.9150  -10.9580 C.2     1  UNL1        0.2580
      2  O         24.5630  -23.3590   -9.8940 O.2     1  UNL1       -0.2670
      3  N         22.8040  -22.5560  -11.2540 N.am    1  UNL1       -0.3130
      4  C         22.5410  -21.5870  -12.3320 C.3     1  UNL1        0.1330
      5  C         21.0850  -21.4900  -12.7460 C.3     1  UNL1        0.0250
      6  C         20.2460  -21.1540  -11.5330 C.3     1  UNL1        0.0420
      7  C         20.4880  -22.1730  -10.4560 C.2     1  UNL1       -0.0300
      8  C         19.4500  -22.4240   -9.5370 C.2     1  UNL1        0.0260
      9  C         19.6110  -23.3630   -8.5160 C.2     1  UNL1        0.0330
     10  C         20.8010  -24.0810   -8.4340 C.2     1  UNL1        0.0190
     11  C         21.8410  -23.8200   -9.3360 C.2     1  UNL1        0.0310
     12  C         21.7250  -22.8430  -10.3380 C.2     1  UNL1        0.0430
     13  C         18.4820  -23.5950   -7.5710 C.2     1  UNL1        0.2560
     14  O         18.2070  -24.7500   -7.2670 O.2     1  UNL1       -0.2670
     15  N         17.8230  -22.4500   -7.1600 N.am    1  UNL1       -0.3230
     16  H         18.0890  -21.5830   -7.6090 H       1  UNL1        0.1690
     17  C         16.7500  -22.3630   -6.2470 C.2     1  UNL1        0.0370
     18  C         17.0540  -22.5250   -4.8860 C.2     1  UNL1        0.0290
     19  C         16.0520  -22.4600   -3.9130 C.2     1  UNL1        0.0050
     20  C         14.7340  -22.2340   -4.2950 C.2     1  UNL1        0.0420
     21  C         14.4320  -22.0780   -5.6430 C.2     1  UNL1        0.1180
     22  F         13.1610  -21.8650   -6.0070 F       1  UNL1       -0.2060
     23  C         15.4240  -22.1410   -6.6190 C.2     1  UNL1        0.0710
     24  C         25.1590  -22.7250  -12.0110 C.2     1  UNL1        0.0330
     25  C         26.0300  -21.6370  -11.9270 C.2     1  UNL1        0.0170
     26  C         27.0100  -21.4690  -12.9040 C.2     1  UNL1        0.0020
     27  C         27.1210  -22.3890  -13.9500 C.2     1  UNL1        0.0070
     28  C         26.2540  -23.4900  -14.0320 C.2     1  UNL1       -0.0610
     29  C         26.4150  -24.5010  -15.1290 C.3     1  UNL1        0.0480
     30  C         25.2800  -23.6640  -13.0420 C.2     1  UNL1        0.0230
@<TRIPOS>BOND
     1    29    28    1
     2    28    27    2
     3    28    30    1
     4    27    26    1
     5    30    24    2
     6    26    25    2
     7     5     4    1
     8     5     6    1
     9     4     3    1
    10    24    25    1
    11    24     1    1
    12     6     7    1
    13     3     1   am
    14     3    12    1
    15     1     2    2
    16     7    12    2
    17     7     8    1
    18    12    11    1
    19     8     9    2
    20    11    10    2
    21     9    10    1
    22     9    13    1
    23    16    15    1
    24    13    14    2
    25    13    15   am
    26    15    17    1
    27    23    17    2
    28    23    21    1
    29    17    18    1
    30    22    21    1
    31    21    20    2
    32    18    19    2
    33    20    19    1
