@<TRIPOS>MOLECULE
41157_out_ligand_01.pdbqt
 30 33 0 0 0
SMALL
GASTEIGER

@<TRIPOS>ATOM
      1  C         22.7520  -22.2830  -11.8620 C.2     1  UNL1        0.0330
      2  C         22.8280  -23.0700  -10.7130 C.2     1  UNL1        0.0190
      3  C         21.6920  -23.2580   -9.9150 C.2     1  UNL1        0.0310
      4  C         20.4560  -22.6740  -10.2380 C.2     1  UNL1        0.0430
      5  C         20.3940  -21.8630  -11.3930 C.2     1  UNL1       -0.0300
      6  C         21.5430  -21.6650  -12.1850 C.2     1  UNL1        0.0260
      7  C         19.1330  -21.1530  -11.8040 C.3     1  UNL1        0.0420
      8  C         17.9130  -21.8250  -11.2070 C.3     1  UNL1        0.0250
      9  C         18.1250  -22.0020   -9.7150 C.3     1  UNL1        0.1330
     10  N         19.2910  -22.8420   -9.4050 N.am    1  UNL1       -0.3130
     11  C         19.2370  -23.7930   -8.3700 C.2     1  UNL1        0.2580
     12  O         19.9510  -24.7880   -8.2590 O.2     1  UNL1       -0.2670
     13  C         23.9340  -22.0460  -12.7370 C.2     1  UNL1        0.2560
     14  N         23.7530  -21.0750  -13.7040 N.am    1  UNL1       -0.3230
     15  H         22.8930  -20.5450  -13.6670 H       1  UNL1        0.1690
     16  O         24.9540  -22.6880  -12.5150 O.2     1  UNL1       -0.2670
     17  C         24.6730  -20.6680  -14.6940 C.2     1  UNL1        0.0350
     18  C         24.8770  -21.3470  -15.8950 C.2     1  UNL1        0.0290
     19  C         25.7980  -20.8690  -16.8310 C.2     1  UNL1        0.0030
     20  C         26.5280  -19.7090  -16.5720 C.2     1  UNL1        0.0070
     21  C         26.3480  -19.0200  -15.3700 C.2     1  UNL1       -0.0600
     22  C         27.1020  -17.7540  -15.0950 C.3     1  UNL1        0.0480
     23  C         25.4090  -19.5000  -14.4430 C.2     1  UNL1        0.0360
     24  C         18.2240  -23.6110   -7.3010 C.2     1  UNL1        0.0320
     25  C         18.4560  -22.6600   -6.3010 C.2     1  UNL1        0.0180
     26  C         17.5040  -22.4610   -5.2990 C.2     1  UNL1        0.0250
     27  C         16.3200  -23.2010   -5.3120 C.2     1  UNL1        0.0340
     28 CL         15.1490  -22.9560   -4.0760 Cl      1  UNL1       -0.0840
     29  C         16.0750  -24.1330   -6.3220 C.2     1  UNL1        0.0250
     30  C         17.0250  -24.3360   -7.3250 C.2     1  UNL1        0.0180
@<TRIPOS>BOND
     1    19    20    2
     2    19    18    1
     3    20    21    1
     4    18    17    2
     5    21    22    1
     6    21    23    2
     7    17    23    1
     8    17    14    1
     9    14    15    1
    10    14    13   am
    11    13    16    2
    12    13     1    1
    13     6     1    2
    14     6     5    1
    15     1     2    1
    16     7     5    1
    17     7     8    1
    18     5     4    2
    19     8     9    1
    20     2     3    2
    21     4     3    1
    22     4    10    1
    23     9    10    1
    24    10    11   am
    25    11    12    2
    26    11    24    1
    27    30    24    2
    28    30    29    1
    29    24    25    1
    30    29    27    2
    31    25    26    2
    32    27    26    1
    33    27    28    1
