@<TRIPOS>MOLECULE
41156_out_ligand_01.pdbqt
 29 32 0 0 0
SMALL
GASTEIGER

@<TRIPOS>ATOM
      1  C         21.9320  -21.6690  -12.3810 C.2     1  UNL1        0.0320
      2  C         20.6010  -21.2580  -12.3520 C.2     1  UNL1        0.0190
      3  C         19.7370  -21.7360  -11.3580 C.2     1  UNL1        0.0310
      4  C         20.1690  -22.6390  -10.3720 C.2     1  UNL1        0.0430
      5  C         21.5210  -23.0410  -10.4010 C.2     1  UNL1       -0.0300
      6  C         22.3900  -22.5470  -11.3940 C.2     1  UNL1        0.0260
      7  C         22.1000  -23.9730   -9.3700 C.3     1  UNL1        0.0420
      8  C         21.0110  -24.7950   -8.7130 C.3     1  UNL1        0.0250
      9  C         19.9100  -23.8690   -8.2320 C.3     1  UNL1        0.1330
     10  N         19.2910  -23.1090   -9.3280 N.am    1  UNL1       -0.3130
     11  C         17.9020  -22.8920   -9.3560 C.2     1  UNL1        0.2580
     12  O         17.2240  -22.6350  -10.3490 O.2     1  UNL1       -0.2670
     13  C         22.8980  -21.1860  -13.4080 C.2     1  UNL1        0.2510
     14  O         22.5510  -20.3570  -14.2430 O.2     1  UNL1       -0.2680
     15  N         24.1800  -21.6920  -13.3330 N.am    1  UNL1       -0.3540
     16  H         24.4830  -22.0900  -12.4540 H       1  UNL1        0.1620
     17  C         25.2390  -21.1510  -14.1700 C.3     1  UNL1        0.1550
     18  C         26.5520  -20.9980  -13.3860 C.3     1  UNL1        0.1390
     19  C         26.5200  -21.7130  -12.0430 C.3     1  UNL1        0.0350
     20  C         26.0420  -20.6370  -11.1010 C.3     1  UNL1        0.0290
     21  C         26.7050  -19.4060  -11.6760 C.3     1  UNL1        0.1680
     22  O         26.7490  -19.5930  -13.0970 O.3     1  UNL1       -0.3840
     23  C         17.1510  -22.9840   -8.0780 C.2     1  UNL1        0.0320
     24  C         16.2150  -24.0050   -7.8740 C.2     1  UNL1        0.0180
     25  C         15.5410  -24.0920   -6.6540 C.2     1  UNL1        0.0250
     26  C         15.8130  -23.1690   -5.6440 C.2     1  UNL1        0.0340
     27 CL         14.9790  -23.2760   -4.1430 Cl      1  UNL1       -0.0840
     28  C         16.7600  -22.1620   -5.8380 C.2     1  UNL1        0.0250
     29  C         17.4390  -22.0730   -7.0550 C.2     1  UNL1        0.0180
@<TRIPOS>BOND
     1    14    13    2
     2    17    18    1
     3    17    15    1
     4    13    15   am
     5    13     1    1
     6    18    22    1
     7    18    19    1
     8    15    16    1
     9    22    21    1
    10     1     2    2
    11     1     6    1
    12     2     3    1
    13    19    20    1
    14    21    20    1
    15     6     5    2
    16     3     4    2
    17     5     4    1
    18     5     7    1
    19     4    10    1
    20    12    11    2
    21     7     8    1
    22    11    10   am
    23    11    23    1
    24    10     9    1
    25     8     9    1
    26    23    24    2
    27    23    29    1
    28    24    25    1
    29    29    28    2
    30    25    26    2
    31    28    26    1
    32    26    27    1
