@<TRIPOS>MOLECULE
41151_out_ligand_01.pdbqt
 30 33 0 0 0
SMALL
GASTEIGER

@<TRIPOS>ATOM
      1  C         22.3250  -22.0030  -11.5000 C.2     1  UNL1        0.0330
      2  C         22.3760  -22.4970  -10.1990 C.2     1  UNL1        0.0190
      3  C         21.2020  -22.6170   -9.4470 C.2     1  UNL1        0.0310
      4  C         19.9500  -22.2470   -9.9640 C.2     1  UNL1        0.0430
      5  C         19.9050  -21.7750  -11.2950 C.2     1  UNL1       -0.0300
      6  C         21.0870  -21.6680  -12.0530 C.2     1  UNL1        0.0260
      7  C         18.6100  -21.4020  -11.9660 C.3     1  UNL1        0.0420
      8  C         17.5410  -21.0750  -10.9430 C.3     1  UNL1        0.0250
      9  C         17.4700  -22.1940   -9.9200 C.3     1  UNL1        0.1330
     10  N         18.7370  -22.3750   -9.1960 N.am    1  UNL1       -0.3130
     11  C         18.7450  -22.6100   -7.8080 C.2     1  UNL1        0.2580
     12  O         19.6930  -22.4390   -7.0450 O.2     1  UNL1       -0.2670
     13  C         23.5480  -21.8420  -12.3370 C.2     1  UNL1        0.2560
     14  N         23.3120  -21.4320  -13.6350 N.am    1  UNL1       -0.3230
     15  H         22.3460  -21.3270  -13.9150 H       1  UNL1        0.1690
     16  O         24.6310  -22.1060  -11.8310 O.2     1  UNL1       -0.2670
     17  C         24.2610  -21.2180  -14.6560 C.2     1  UNL1        0.0350
     18  C         25.0730  -20.0870  -14.7430 C.2     1  UNL1        0.0300
     19  C         26.0000  -19.9560  -15.7840 C.2     1  UNL1        0.0090
     20  C         26.1350  -20.9560  -16.7520 C.2     1  UNL1       -0.0620
     21  C         27.1160  -20.7930  -17.8740 C.3     1  UNL1        0.0480
     22  C         25.3120  -22.0830  -16.6750 C.2     1  UNL1        0.0090
     23  C         24.3880  -22.2140  -15.6330 C.2     1  UNL1        0.0300
     24  C         17.4940  -23.0900   -7.1770 C.2     1  UNL1        0.0330
     25  C         16.8480  -24.2060   -7.7180 C.2     1  UNL1        0.0170
     26  C         15.6600  -24.6540   -7.1430 C.2     1  UNL1        0.0020
     27  C         15.1180  -23.9850   -6.0430 C.2     1  UNL1        0.0070
     28  C         15.7550  -22.8590   -5.5020 C.2     1  UNL1       -0.0610
     29  C         15.1290  -22.1090   -4.3630 C.3     1  UNL1        0.0480
     30  C         16.9430  -22.4020   -6.0880 C.2     1  UNL1        0.0230
@<TRIPOS>BOND
     1    21    20    1
     2    20    22    2
     3    20    19    1
     4    22    23    1
     5    19    18    2
     6    23    17    2
     7    18    17    1
     8    17    14    1
     9    15    14    1
    10    14    13   am
    11    13    16    2
    12    13     1    1
    13     6     1    2
    14     6     5    1
    15     7     5    1
    16     7     8    1
    17     1     2    1
    18     5     4    2
    19     8     9    1
    20     2     3    2
    21     4     3    1
    22     4    10    1
    23     9    10    1
    24    10    11   am
    25    11    24    1
    26    11    12    2
    27    25    24    2
    28    25    26    1
    29    24    30    1
    30    26    27    2
    31    30    28    2
    32    27    28    1
    33    28    29    1
