@<TRIPOS>MOLECULE
41152_out_ligand_01.pdbqt
 31 34 0 0 0
SMALL
GASTEIGER

@<TRIPOS>ATOM
      1  C         18.5610  -22.5980   -7.8100 C.2     1  UNL1        0.2580
      2  O         19.5110  -22.4290   -7.0490 O.2     1  UNL1       -0.2670
      3  N         18.5520  -22.3480   -9.1960 N.am    1  UNL1       -0.3130
      4  C         17.2860  -22.1090   -9.9030 C.3     1  UNL1        0.1330
      5  C         17.3980  -21.0120  -10.9460 C.3     1  UNL1        0.0250
      6  C         18.4340  -21.4090  -11.9760 C.3     1  UNL1        0.0420
      7  C         19.7210  -21.8230  -11.3130 C.2     1  UNL1       -0.0300
      8  C         20.8970  -21.7840  -12.0880 C.2     1  UNL1        0.0260
      9  C         22.1260  -22.1640  -11.5450 C.2     1  UNL1        0.0330
     10  C         22.1740  -22.6300  -10.2320 C.2     1  UNL1        0.0190
     11  C         21.0040  -22.6820   -9.4630 C.2     1  UNL1        0.0310
     12  C         19.7630  -22.2720   -9.9750 C.2     1  UNL1        0.0430
     13  C         23.3420  -22.0940  -12.4050 C.2     1  UNL1        0.2560
     14  O         24.3280  -22.7340  -12.0600 O.2     1  UNL1       -0.2670
     15  N         23.2060  -21.3200  -13.5430 N.am    1  UNL1       -0.3230
     16  H         22.2850  -20.9520  -13.7400 H       1  UNL1        0.1690
     17  C         24.1890  -21.0490  -14.5190 C.2     1  UNL1        0.0350
     18  C         25.0920  -19.9930  -14.4420 C.2     1  UNL1        0.0300
     19  C         26.0370  -19.7960  -15.4540 C.2     1  UNL1        0.0090
     20  C         26.0990  -20.6510  -16.5640 C.2     1  UNL1       -0.0560
     21  C         27.1210  -20.3890  -17.6360 C.3     1  UNL1        0.0490
     22  C         25.1780  -21.7080  -16.6610 C.2     1  UNL1       -0.0540
     23  C         25.1830  -22.6490  -17.8350 C.3     1  UNL1        0.0490
     24  C         24.2390  -21.8990  -15.6300 C.2     1  UNL1        0.0370
     25  C         17.3140  -23.1020   -7.1820 C.2     1  UNL1        0.0330
     26  C         16.7220  -24.2880   -7.6290 C.2     1  UNL1        0.0170
     27  C         15.5670  -24.7590   -7.0070 C.2     1  UNL1        0.0020
     28  C         15.0130  -24.0530   -5.9360 C.2     1  UNL1        0.0070
     29  C         15.6050  -22.8690   -5.4750 C.2     1  UNL1       -0.0610
     30  C         15.0380  -22.1450   -4.2900 C.3     1  UNL1        0.0480
     31  C         16.7740  -22.4080   -6.0930 C.2     1  UNL1        0.0230
@<TRIPOS>BOND
     1    23    22    1
     2    21    20    1
     3    22    20    2
     4    22    24    1
     5    20    19    1
     6    24    17    2
     7    19    18    2
     8    17    18    1
     9    17    15    1
    10    16    15    1
    11    15    13   am
    12    13    14    2
    13    13     9    1
    14     8     9    1
    15     8     7    2
    16     6     7    1
    17     6     5    1
    18     9    10    2
    19     7    12    1
    20     5     4    1
    21    10    11    1
    22    12    11    2
    23    12     3    1
    24     4     3    1
    25     3     1   am
    26     1    25    1
    27     1     2    2
    28    26    25    2
    29    26    27    1
    30    25    31    1
    31    27    28    2
    32    31    29    2
    33    28    29    1
    34    29    30    1
