@<TRIPOS>MOLECULE
41159_out_ligand_01.pdbqt
 31 34 0 0 0
SMALL
GASTEIGER

@<TRIPOS>ATOM
      1  C         23.0380  -22.0610  -12.3670 C.2     1  UNL1        0.0330
      2  C         23.2140  -22.7860  -11.1900 C.2     1  UNL1        0.0190
      3  C         22.1590  -22.9070  -10.2770 C.2     1  UNL1        0.0310
      4  C         20.9060  -22.3130  -10.5070 C.2     1  UNL1        0.0430
      5  C         20.7200  -21.6430  -11.7340 C.2     1  UNL1       -0.0300
      6  C         21.7870  -21.5070  -12.6430 C.2     1  UNL1        0.0260
      7  C         19.3980  -21.0250  -12.1000 C.3     1  UNL1        0.0420
      8  C         18.2780  -21.7950  -11.4370 C.3     1  UNL1        0.0250
      9  C         18.5250  -21.8420   -9.9410 C.3     1  UNL1        0.1330
     10  N         19.8240  -22.4190   -9.5560 N.am    1  UNL1       -0.3130
     11  C         20.0610  -22.7490   -8.2040 C.2     1  UNL1        0.2580
     12  O         21.1530  -22.8400   -7.6460 O.2     1  UNL1       -0.2670
     13  C         24.1340  -21.8930  -13.3630 C.2     1  UNL1        0.2560
     14  N         23.7130  -21.7800  -14.6750 N.am    1  UNL1       -0.3230
     15  H         22.7280  -21.9250  -14.8530 H       1  UNL1        0.1690
     16  O         25.2900  -21.9020  -12.9560 O.2     1  UNL1       -0.2670
     17  C         24.5140  -21.5730  -15.8190 C.2     1  UNL1        0.0370
     18  C         24.5870  -22.6260  -16.7410 C.2     1  UNL1        0.0290
     19  C         25.3520  -22.5020  -17.9010 C.2     1  UNL1        0.0050
     20  C         26.0490  -21.3220  -18.1460 C.2     1  UNL1        0.0370
     21  C         25.9860  -20.2610  -17.2410 C.2     1  UNL1        0.0700
     22  C         25.2160  -20.3910  -16.0810 C.2     1  UNL1        0.0660
     23  O         26.7140  -19.1600  -17.6030 O.2     1  UNL1       -0.3560
     24  C         25.9900  -18.0650  -18.1530 C.3     1  UNL1        0.2100
     25  C         18.8940  -22.9970   -7.3310 C.2     1  UNL1        0.0320
     26  C         18.5690  -22.0590   -6.3440 C.2     1  UNL1        0.0180
     27  C         17.4850  -22.3000   -5.4970 C.2     1  UNL1        0.0250
     28  C         16.7470  -23.4780   -5.6340 C.2     1  UNL1        0.0340
     29 CL         15.4110  -23.7700   -4.5910 Cl      1  UNL1       -0.0840
     30  C         17.0860  -24.4230   -6.6040 C.2     1  UNL1        0.0250
     31  C         18.1700  -24.1870   -7.4530 C.2     1  UNL1        0.0180
@<TRIPOS>BOND
     1    24    23    1
     2    20    19    2
     3    20    21    1
     4    19    18    1
     5    23    21    1
     6    21    22    2
     7    18    17    2
     8    22    17    1
     9    17    14    1
    10    15    14    1
    11    14    13   am
    12    13    16    2
    13    13     1    1
    14     6     1    2
    15     6     5    1
    16     1     2    1
    17     7     5    1
    18     7     8    1
    19     5     4    2
    20     8     9    1
    21     2     3    2
    22     4     3    1
    23     4    10    1
    24     9    10    1
    25    10    11   am
    26    11    12    2
    27    11    25    1
    28    31    25    2
    29    31    30    1
    30    25    26    1
    31    30    28    2
    32    26    27    2
    33    28    27    1
    34    28    29    1
