@<TRIPOS>MOLECULE
41150_out_ligand_01.pdbqt
 31 34 0 0 0
SMALL
GASTEIGER

@<TRIPOS>ATOM
      1  C         22.5750  -22.1820   -9.7340 C.2     1  UNL1        0.0320
      2  C         22.5390  -21.9280   -8.3650 C.2     1  UNL1        0.0190
      3  C         21.3220  -21.9770   -7.6720 C.2     1  UNL1        0.0310
      4  C         20.1120  -22.2720   -8.3220 C.2     1  UNL1        0.0430
      5  C         20.1600  -22.5420   -9.7060 C.2     1  UNL1       -0.0300
      6  C         21.3890  -22.5070  -10.3950 C.2     1  UNL1        0.0260
      7  C         18.9300  -22.9120  -10.4910 C.3     1  UNL1        0.0420
      8  C         17.6770  -22.4250   -9.7940 C.3     1  UNL1        0.0250
      9  C         17.7050  -22.8790   -8.3450 C.3     1  UNL1        0.1330
     10  N         18.8620  -22.3490   -7.6090 N.am    1  UNL1       -0.3130
     11  C         18.7200  -21.9050   -6.2790 C.2     1  UNL1        0.2580
     12  O         19.4580  -21.1130   -5.6980 O.2     1  UNL1       -0.2670
     13  C         23.8430  -22.1510  -10.5150 C.2     1  UNL1        0.2510
     14  N         24.0700  -23.2270  -11.3470 N.am    1  UNL1       -0.3530
     15  H         23.5130  -24.0600  -11.2230 H       1  UNL1        0.1630
     16  O         24.6270  -21.2200  -10.3740 O.2     1  UNL1       -0.2680
     17  C         25.3270  -23.3900  -12.0420 C.3     1  UNL1        0.1610
     18  C         25.1260  -23.3280  -13.5330 C.2     1  UNL1       -0.0410
     19  C         25.3920  -24.4510  -14.3280 C.2     1  UNL1        0.0090
     20  C         25.1880  -24.4110  -15.7090 C.2     1  UNL1        0.0070
     21  C         24.6970  -23.2510  -16.3190 C.2     1  UNL1       -0.0620
     22  C         24.5110  -23.1940  -17.8060 C.3     1  UNL1        0.0480
     23  C         24.4360  -22.1260  -15.5280 C.2     1  UNL1        0.0070
     24  C         24.6400  -22.1660  -14.1460 C.2     1  UNL1        0.0090
     25  C         17.5730  -22.4150   -5.4890 C.2     1  UNL1        0.0330
     26  C         17.7900  -23.4370   -4.5610 C.2     1  UNL1        0.0170
     27  C         16.7170  -23.9440   -3.8290 C.2     1  UNL1        0.0020
     28  C         15.4310  -23.4370   -4.0330 C.2     1  UNL1        0.0070
     29  C         15.2020  -22.4210   -4.9710 C.2     1  UNL1       -0.0610
     30  C         13.8100  -21.9230   -5.2270 C.3     1  UNL1        0.0480
     31  C         16.2800  -21.9250   -5.7150 C.2     1  UNL1        0.0230
@<TRIPOS>BOND
     1    22    21    1
     2    21    20    2
     3    21    23    1
     4    20    19    1
     5    23    24    2
     6    19    18    2
     7    24    18    1
     8    18    17    1
     9    17    14    1
    10    14    15    1
    11    14    13   am
    12    13    16    2
    13    13     1    1
    14     7     8    1
    15     7     5    1
    16     6     1    2
    17     6     5    1
    18     8     9    1
    19     1     2    1
    20     5     4    2
    21     2     3    2
    22     9    10    1
    23     4     3    1
    24     4    10    1
    25    10    11   am
    26    11    12    2
    27    11    25    1
    28    31    25    2
    29    31    29    1
    30    25    26    1
    31    30    29    1
    32    29    28    2
    33    26    27    2
    34    28    27    1
