@<TRIPOS>MOLECULE
41154_out_ligand_01.pdbqt
 31 34 0 0 0
SMALL
GASTEIGER

@<TRIPOS>ATOM
      1  C         22.2770  -22.3150  -11.5080 C.2     1  UNL1        0.0330
      2  C         22.3260  -22.8690  -10.2300 C.2     1  UNL1        0.0190
      3  C         21.1500  -23.0130   -9.4830 C.2     1  UNL1        0.0310
      4  C         19.9010  -22.6130   -9.9840 C.2     1  UNL1        0.0430
      5  C         19.8730  -21.9920  -11.2500 C.2     1  UNL1       -0.0300
      6  C         21.0540  -21.8630  -12.0070 C.2     1  UNL1        0.0260
      7  C         18.5910  -21.4770  -11.8440 C.3     1  UNL1        0.0420
      8  C         17.6500  -21.0610  -10.7370 C.3     1  UNL1        0.0250
      9  C         17.4450  -22.2310   -9.7920 C.3     1  UNL1        0.1330
     10  N         18.6850  -22.7800   -9.2220 N.am    1  UNL1       -0.3130
     11  C         18.6060  -23.7030   -8.1560 C.2     1  UNL1        0.2580
     12  O         19.4440  -24.5490   -7.8510 O.2     1  UNL1       -0.2670
     13  C         23.4980  -22.1500  -12.3440 C.2     1  UNL1        0.2560
     14  N         23.3370  -21.3410  -13.4540 N.am    1  UNL1       -0.3230
     15  H         22.4460  -20.8720  -13.5530 H       1  UNL1        0.1690
     16  O         24.5280  -22.7060  -11.9810 O.2     1  UNL1       -0.2670
     17  C         24.2980  -21.0300  -14.4390 C.2     1  UNL1        0.0360
     18  C         25.1630  -19.9610  -14.1690 C.2     1  UNL1        0.0290
     19  C         26.1420  -19.5890  -15.0890 C.2     1  UNL1        0.0040
     20  C         26.2600  -20.2780  -16.2950 C.2     1  UNL1        0.0180
     21  C         25.3970  -21.3380  -16.5910 C.2     1  UNL1        0.0020
     22  C         24.4280  -21.7150  -15.6520 C.2     1  UNL1        0.0480
     23  S         25.6180  -22.1820  -18.1530 S.3     1  UNL1       -0.1340
     24  C         24.2020  -23.3170  -18.1450 C.3     1  UNL1        0.0950
     25  C         17.3920  -23.6910   -7.3110 C.2     1  UNL1        0.0330
     26  C         16.2800  -24.4390   -7.7040 C.2     1  UNL1        0.0170
     27  C         15.1430  -24.4510   -6.8980 C.2     1  UNL1        0.0020
     28  C         15.1250  -23.7310   -5.7010 C.2     1  UNL1        0.0070
     29  C         16.2450  -22.9920   -5.2920 C.2     1  UNL1       -0.0610
     30  C         16.2410  -22.2360   -3.9960 C.3     1  UNL1        0.0480
     31  C         17.3880  -22.9850   -6.1020 C.2     1  UNL1        0.0230
@<TRIPOS>BOND
     1    23    24    1
     2    23    21    1
     3    21    20    2
     4    21    22    1
     5    20    19    1
     6    22    17    2
     7    19    18    2
     8    17    18    1
     9    17    14    1
    10    15    14    1
    11    14    13   am
    12    13    16    2
    13    13     1    1
    14     6     1    2
    15     6     5    1
    16     7     5    1
    17     7     8    1
    18     1     2    1
    19     5     4    2
    20     8     9    1
    21     2     3    2
    22     4     3    1
    23     4    10    1
    24     9    10    1
    25    10    11   am
    26    11    12    2
    27    11    25    1
    28    26    25    2
    29    26    27    1
    30    25    31    1
    31    27    28    2
    32    31    29    2
    33    28    29    1
    34    29    30    1
