@<TRIPOS>MOLECULE
41166_out_ligand_01.pdbqt
 30 33 0 0 0
SMALL
GASTEIGER

@<TRIPOS>ATOM
      1  C         22.7110  -22.1770  -11.8610 C.2     1  UNL1        0.0330
      2  C         22.7750  -23.0170  -10.7510 C.2     1  UNL1        0.0190
      3  C         21.6360  -23.2280   -9.9610 C.2     1  UNL1        0.0310
      4  C         20.4010  -22.6320  -10.2670 C.2     1  UNL1        0.0430
      5  C         20.3410  -21.8040  -11.4090 C.2     1  UNL1       -0.0300
      6  C         21.4940  -21.5800  -12.1890 C.2     1  UNL1        0.0260
      7  C         19.0740  -21.1060  -11.8250 C.3     1  UNL1        0.0420
      8  C         17.8600  -21.8110  -11.2590 C.3     1  UNL1        0.0250
      9  C         18.0510  -22.0020   -9.7660 C.3     1  UNL1        0.1330
     10  N         19.2300  -22.8180   -9.4410 N.am    1  UNL1       -0.3130
     11  C         19.1860  -23.7500   -8.3860 C.2     1  UNL1        0.2580
     12  O         19.9310  -24.7140   -8.2290 O.2     1  UNL1       -0.2670
     13  C         23.8960  -21.9110  -12.7270 C.2     1  UNL1        0.2560
     14  N         23.6510  -21.1000  -13.8210 N.am    1  UNL1       -0.3230
     15  H         22.6890  -20.8450  -13.9980 H       1  UNL1        0.1690
     16  O         24.9590  -22.4460  -12.4320 O.2     1  UNL1       -0.2670
     17  C         24.5820  -20.6530  -14.7820 C.2     1  UNL1        0.0350
     18  C         24.7930  -21.2740  -16.0120 C.2     1  UNL1        0.0290
     19  C         25.7460  -20.7740  -16.9040 C.2     1  UNL1        0.0030
     20  C         26.4970  -19.6460  -16.5740 C.2     1  UNL1        0.0070
     21  C         26.2930  -19.0020  -15.3500 C.2     1  UNL1       -0.0600
     22  C         27.1210  -17.8090  -14.9730 C.3     1  UNL1        0.0480
     23  C         25.3440  -19.5200  -14.4560 C.2     1  UNL1        0.0360
     24  C         18.1390  -23.5850   -7.3480 C.2     1  UNL1        0.0320
     25  C         18.3510  -22.7380   -6.2520 C.2     1  UNL1        0.0200
     26  C         17.3630  -22.6170   -5.2730 C.2     1  UNL1        0.0430
     27  C         16.1860  -23.3530   -5.3900 C.2     1  UNL1        0.1160
     28  F         15.2420  -23.2350   -4.4480 F       1  UNL1       -0.2060
     29  C         15.9800  -24.2150   -6.4630 C.2     1  UNL1        0.0430
     30  C         16.9630  -24.3400   -7.4440 C.2     1  UNL1        0.0200
@<TRIPOS>BOND
     1    19    20    2
     2    19    18    1
     3    20    21    1
     4    18    17    2
     5    21    22    1
     6    21    23    2
     7    17    23    1
     8    17    14    1
     9    15    14    1
    10    14    13   am
    11    13    16    2
    12    13     1    1
    13     6     1    2
    14     6     5    1
    15     1     2    1
    16     7     5    1
    17     7     8    1
    18     5     4    2
    19     8     9    1
    20     2     3    2
    21     4     3    1
    22     4    10    1
    23     9    10    1
    24    10    11   am
    25    11    12    2
    26    11    24    1
    27    30    24    2
    28    30    29    1
    29    24    25    1
    30    29    27    2
    31    25    26    2
    32    27    26    1
    33    27    28    1
