@<TRIPOS>MOLECULE
41160_out_ligand_01.pdbqt
 29 32 0 0 0
SMALL
GASTEIGER

@<TRIPOS>ATOM
      1  C         21.7650  -21.6090  -12.3350 C.2     1  UNL1        0.0320
      2  C         20.4860  -21.0750  -12.1930 C.2     1  UNL1        0.0190
      3  C         19.6640  -21.4900  -11.1350 C.2     1  UNL1        0.0310
      4  C         20.0820  -22.4580  -10.2070 C.2     1  UNL1        0.0430
      5  C         21.3720  -23.0080  -10.3740 C.2     1  UNL1       -0.0300
      6  C         22.2000  -22.5760  -11.4290 C.2     1  UNL1        0.0260
      7  C         21.9300  -24.0380   -9.4290 C.3     1  UNL1        0.0420
      8  C         20.8170  -24.7630   -8.7030 C.3     1  UNL1        0.0250
      9  C         19.8780  -23.7390   -8.0900 C.3     1  UNL1        0.1330
     10  N         19.2550  -22.8660   -9.0960 N.am    1  UNL1       -0.3130
     11  C         17.9070  -22.4810   -8.9730 C.2     1  UNL1        0.2580
     12  O         17.1750  -22.0810   -9.8760 O.2     1  UNL1       -0.2670
     13  C         22.6830  -21.1990  -13.4350 C.2     1  UNL1        0.2510
     14  O         22.3400  -20.3210  -14.2200 O.2     1  UNL1       -0.2680
     15  N         23.8880  -21.8710  -13.5070 N.am    1  UNL1       -0.3540
     16  H         23.9950  -22.7170  -12.9650 H       1  UNL1        0.1620
     17  C         24.7660  -21.7060  -14.6560 C.3     1  UNL1        0.1550
     18  C         24.8300  -22.9760  -15.5280 C.3     1  UNL1        0.1390
     19  C         26.1990  -23.1740  -16.1600 C.3     1  UNL1        0.0350
     20  C         26.0860  -22.3790  -17.4370 C.3     1  UNL1        0.0290
     21  C         24.6380  -22.5870  -17.8270 C.3     1  UNL1        0.1680
     22  O         23.9070  -22.8850  -16.6290 O.3     1  UNL1       -0.3840
     23  C         17.2710  -22.5660   -7.6360 C.2     1  UNL1        0.0340
     24  C         15.9840  -23.1060   -7.5290 C.2     1  UNL1        0.0170
     25  C         15.3610  -23.1720   -6.2830 C.2     1  UNL1        0.0030
     26  C         16.0180  -22.6850   -5.1510 C.2     1  UNL1        0.0240
     27  C         17.2910  -22.1250   -5.2710 C.2     1  UNL1        0.0350
     28 CL         18.0880  -21.5140   -3.8730 Cl      1  UNL1       -0.0840
     29  C         17.9210  -22.0520   -6.5090 C.2     1  UNL1        0.0410
@<TRIPOS>BOND
     1    21    20    1
     2    21    22    1
     3    20    19    1
     4    22    18    1
     5    19    18    1
     6    18    17    1
     7    17    15    1
     8    14    13    2
     9    15    13   am
    10    15    16    1
    11    13     1    1
    12     1     2    2
    13     1     6    1
    14     2     3    1
    15     6     5    2
    16     3     4    2
    17     5     4    1
    18     5     7    1
    19     4    10    1
    20    12    11    2
    21     7     8    1
    22    10    11   am
    23    10     9    1
    24    11    23    1
    25     8     9    1
    26    23    24    2
    27    23    29    1
    28    24    25    1
    29    29    27    2
    30    25    26    2
    31    27    26    1
    32    27    28    1
