@<TRIPOS>MOLECULE
41161_out_ligand_01.pdbqt
 24 26 0 0 0
SMALL
GASTEIGER

@<TRIPOS>ATOM
      1  C         22.8100  -21.7720  -12.7280 C.2     1  UNL1        0.0320
      2  C         23.1290  -22.5530  -11.6190 C.2     1  UNL1        0.0190
      3  C         22.1600  -22.8170  -10.6400 C.2     1  UNL1        0.0310
      4  C         20.8460  -22.3330  -10.7460 C.2     1  UNL1        0.0430
      5  C         20.5270  -21.5590  -11.8820 C.2     1  UNL1       -0.0300
      6  C         21.5080  -21.2820  -12.8550 C.2     1  UNL1        0.0260
      7  C         19.1560  -20.9750  -12.0920 C.3     1  UNL1        0.0420
      8  C         18.1160  -21.7430  -11.3040 C.3     1  UNL1        0.0250
      9  C         18.5730  -21.8600   -9.8620 C.3     1  UNL1        0.1330
     10  N         19.8520  -22.5750   -9.7270 N.am    1  UNL1       -0.3130
     11  C         20.0610  -23.4700   -8.6610 C.2     1  UNL1        0.2580
     12  O         20.8910  -24.3760   -8.6190 O.2     1  UNL1       -0.2670
     13  C         19.2020  -23.3420   -7.4570 C.2     1  UNL1        0.0320
     14  C         18.2570  -24.3300   -7.1490 C.2     1  UNL1        0.0200
     15  C         17.4420  -24.1770   -6.0260 C.2     1  UNL1        0.0430
     16  C         17.5670  -23.0370   -5.2370 C.2     1  UNL1        0.1160
     17  F         16.7830  -22.8940   -4.1610 F       1  UNL1       -0.2060
     18  C         18.4860  -22.0400   -5.5500 C.2     1  UNL1        0.0430
     19  C         19.3040  -22.1870   -6.6720 C.2     1  UNL1        0.0200
     20  C         23.7960  -21.4490  -13.7940 C.2     1  UNL1        0.2490
     21  N         23.4180  -20.5630  -14.7640 N.am    1  UNL1       -0.3660
     22  H         22.4550  -20.3050  -14.9240 H       1  UNL1        0.1590
     23  H         24.0630  -20.4510  -15.5370 H       1  UNL1        0.1590
     24  O         24.8990  -21.9800  -13.8320 O.2     1  UNL1       -0.2680
@<TRIPOS>BOND
     1    23    21    1
     2    22    21    1
     3    21    20   am
     4    24    20    2
     5    20     1    1
     6     6     1    2
     7     6     5    1
     8     1     2    1
     9     7     5    1
    10     7     8    1
    11     5     4    2
    12     2     3    2
    13     8     9    1
    14     4     3    1
    15     4    10    1
    16     9    10    1
    17    10    11   am
    18    11    12    2
    19    11    13    1
    20    13    14    2
    21    13    19    1
    22    14    15    1
    23    19    18    2
    24    15    16    2
    25    18    16    1
    26    16    17    1
