@<TRIPOS>MOLECULE
41162_out_ligand_01.pdbqt
 31 34 0 0 0
SMALL
GASTEIGER

@<TRIPOS>ATOM
      1  C         22.6650  -22.5280  -11.5110 C.2     1  UNL1        0.0320
      2  C         22.6240  -23.2800  -10.3390 C.2     1  UNL1        0.0190
      3  C         21.4310  -23.3890   -9.6130 C.2     1  UNL1        0.0310
      4  C         20.2480  -22.7590  -10.0340 C.2     1  UNL1        0.0430
      5  C         20.3040  -21.9850  -11.2140 C.2     1  UNL1       -0.0300
      6  C         21.5100  -21.8660  -11.9320 C.2     1  UNL1        0.0260
      7  C         19.1070  -21.2310  -11.7300 C.3     1  UNL1        0.0420
      8  C         17.8200  -21.8280  -11.2000 C.3     1  UNL1        0.0250
      9  C         17.9210  -21.9670   -9.6920 C.3     1  UNL1        0.1330
     10  N         19.0240  -22.8470   -9.2780 N.am    1  UNL1       -0.3130
     11  C         18.8560  -23.7580   -8.2180 C.2     1  UNL1        0.2580
     12  O         19.5120  -24.7800   -8.0280 O.2     1  UNL1       -0.2670
     13  C         23.9100  -22.3750  -12.3130 C.2     1  UNL1        0.2510
     14  O         24.1170  -21.3410  -12.9370 O.2     1  UNL1       -0.2680
     15  N         24.7610  -23.4640  -12.3340 N.am    1  UNL1       -0.3570
     16  H         24.3750  -24.3600  -12.0650 H       1  UNL1        0.1620
     17  C         25.9180  -23.4710  -13.2120 C.3     1  UNL1        0.1270
     18  C         25.6800  -24.3410  -14.4470 C.3     1  UNL1        0.0530
     19  C         25.3220  -23.5380  -15.6790 C.2     1  UNL1       -0.0820
     20  C         24.4940  -24.0250  -16.6220 C.2     1  UNL1       -0.0240
     21  C         24.1200  -23.2800  -17.8720 C.3     1  UNL1        0.0270
     22  C         24.9950  -22.0540  -18.1290 C.3     1  UNL1        0.0040
     23  C         25.2400  -21.2760  -16.8410 C.3     1  UNL1        0.0050
     24  C         25.9200  -22.1540  -15.7870 C.3     1  UNL1        0.0340
     25  C         17.7840  -23.4920   -7.2270 C.2     1  UNL1        0.0320
     26  C         16.6010  -24.2400   -7.2900 C.2     1  UNL1        0.0200
     27  C         15.5920  -24.0190   -6.3520 C.2     1  UNL1        0.0430
     28  C         15.7810  -23.0690   -5.3530 C.2     1  UNL1        0.1160
     29  F         14.8130  -22.8600   -4.4520 F       1  UNL1       -0.2060
     30  C         16.9640  -22.3390   -5.2660 C.2     1  UNL1        0.0430
     31  C         17.9770  -22.5540   -6.2020 C.2     1  UNL1        0.0200
@<TRIPOS>BOND
     1    22    21    1
     2    22    23    1
     3    21    20    1
     4    23    24    1
     5    20    19    2
     6    24    19    1
     7    19    18    1
     8    18    17    1
     9    17    15    1
    10    14    13    2
    11    15    13   am
    12    15    16    1
    13    13     1    1
    14     6     1    2
    15     6     5    1
    16     7     5    1
    17     7     8    1
    18     1     2    1
    19     5     4    2
    20     8     9    1
    21     2     3    2
    22     4     3    1
    23     4    10    1
    24     9    10    1
    25    10    11   am
    26    11    12    2
    27    11    25    1
    28    26    25    2
    29    26    27    1
    30    25    31    1
    31    27    28    2
    32    31    30    2
    33    28    30    1
    34    28    29    1
