@<TRIPOS>MOLECULE
41169_out_ligand_01.pdbqt
 31 34 0 0 0
SMALL
GASTEIGER

@<TRIPOS>ATOM
      1  C         21.6170  -21.7280  -12.2810 C.2     1  UNL1        0.0330
      2  C         20.2900  -21.3030  -12.2500 C.2     1  UNL1        0.0190
      3  C         19.4240  -21.7810  -11.2580 C.2     1  UNL1        0.0310
      4  C         19.8510  -22.6930  -10.2790 C.2     1  UNL1        0.0430
      5  C         21.2020  -23.1000  -10.3070 C.2     1  UNL1       -0.0300
      6  C         22.0750  -22.6060  -11.2970 C.2     1  UNL1        0.0260
      7  C         21.7760  -24.0370   -9.2760 C.3     1  UNL1        0.0420
      8  C         20.6820  -24.8600   -8.6260 C.3     1  UNL1        0.0250
      9  C         19.5800  -23.9340   -8.1460 C.3     1  UNL1        0.1330
     10  N         18.9690  -23.1690   -9.2440 N.am    1  UNL1       -0.3130
     11  C         17.5770  -22.9650   -9.2870 C.2     1  UNL1        0.2580
     12  O         16.9120  -22.7190  -10.2910 O.2     1  UNL1       -0.2670
     13  C         22.5760  -21.2450  -13.3140 C.2     1  UNL1        0.2560
     14  N         23.7900  -21.9090  -13.3280 N.am    1  UNL1       -0.3220
     15  H         23.9440  -22.5690  -12.5790 H       1  UNL1        0.1690
     16  O         22.2340  -20.3050  -14.0200 O.2     1  UNL1       -0.2670
     17  C         24.8820  -21.7130  -14.2080 C.2     1  UNL1        0.0410
     18  C         26.0300  -21.0480  -13.7280 C.2     1  UNL1       -0.0350
     19  C         27.1200  -20.8440  -14.5930 C.2     1  UNL1        0.0090
     20  C         26.1390  -20.5360  -12.3170 C.3     1  UNL1        0.0500
     21  C         27.0850  -21.2970  -15.9110 C.2     1  UNL1        0.0070
     22  C         25.9620  -21.9730  -16.3880 C.2     1  UNL1       -0.0600
     23  C         25.9000  -22.4370  -17.8130 C.3     1  UNL1        0.0480
     24  C         24.8650  -22.1640  -15.5350 C.2     1  UNL1        0.0370
     25  C         16.8110  -23.0640   -8.0190 C.2     1  UNL1        0.0320
     26  C         16.1010  -24.2390   -7.7460 C.2     1  UNL1        0.0200
     27  C         15.3540  -24.3370   -6.5710 C.2     1  UNL1        0.0430
     28  C         15.3130  -23.2590   -5.6920 C.2     1  UNL1        0.1160
     29  F         14.5950  -23.3570   -4.5650 F       1  UNL1       -0.2060
     30  C         15.9990  -22.0800   -5.9660 C.2     1  UNL1        0.0430
     31  C         16.7450  -21.9730   -7.1400 C.2     1  UNL1        0.0200
@<TRIPOS>BOND
     1    23    22    1
     2    22    21    2
     3    22    24    1
     4    21    19    1
     5    24    17    2
     6    19    18    2
     7    17    18    1
     8    17    14    1
     9    16    13    2
    10    18    20    1
    11    14    13   am
    12    14    15    1
    13    13     1    1
    14     1     2    2
    15     1     6    1
    16     2     3    1
    17     6     5    2
    18     3     4    2
    19     5     4    1
    20     5     7    1
    21    12    11    2
    22     4    10    1
    23    11    10   am
    24    11    25    1
    25     7     8    1
    26    10     9    1
    27     8     9    1
    28    25    26    2
    29    25    31    1
    30    26    27    1
    31    31    30    2
    32    27    28    2
    33    30    28    1
    34    28    29    1
