@<TRIPOS>MOLECULE
41163_out_ligand_01.pdbqt
 31 34 0 0 0
SMALL
GASTEIGER

@<TRIPOS>ATOM
      1  C         22.8070  -21.8710  -12.7240 C.2     1  UNL1        0.0320
      2  C         23.1560  -22.5410  -11.5520 C.2     1  UNL1        0.0190
      3  C         22.1990  -22.7510  -10.5490 C.2     1  UNL1        0.0310
      4  C         20.8740  -22.3070  -10.6860 C.2     1  UNL1        0.0430
      5  C         20.5330  -21.6170  -11.8690 C.2     1  UNL1       -0.0300
      6  C         21.5020  -21.3960  -12.8680 C.2     1  UNL1        0.0260
      7  C         19.1530  -21.0610  -12.1000 C.3     1  UNL1        0.0420
      8  C         18.1300  -21.7790  -11.2440 C.3     1  UNL1        0.0250
      9  C         18.6100  -21.7960   -9.8050 C.3     1  UNL1        0.1330
     10  N         19.8950  -22.4940   -9.6450 N.am    1  UNL1       -0.3130
     11  C         20.1190  -23.3360   -8.5390 C.2     1  UNL1        0.2580
     12  O         20.9380  -24.2510   -8.4790 O.2     1  UNL1       -0.2670
     13  C         23.7870  -21.6120  -13.8150 C.2     1  UNL1        0.2510
     14  N         25.1100  -21.8430  -13.5190 N.am    1  UNL1       -0.3530
     15  H         25.3480  -22.3810  -12.6960 H       1  UNL1        0.1630
     16  O         23.3990  -21.2420  -14.9180 O.2     1  UNL1       -0.2680
     17  C         26.1200  -21.7270  -14.5440 C.3     1  UNL1        0.1610
     18  C         26.3970  -20.2810  -14.8530 C.2     1  UNL1       -0.0410
     19  C         26.8800  -19.4170  -13.8630 C.2     1  UNL1        0.0090
     20  C         27.1090  -18.0690  -14.1480 C.2     1  UNL1        0.0070
     21  C         26.8420  -17.5570  -15.4230 C.2     1  UNL1       -0.0620
     22  C         27.1150  -16.1170  -15.7420 C.3     1  UNL1        0.0480
     23  C         26.3640  -18.4200  -16.4150 C.2     1  UNL1        0.0070
     24  C         26.1360  -19.7690  -16.1310 C.2     1  UNL1        0.0090
     25  C         19.2960  -23.1330   -7.3220 C.2     1  UNL1        0.0320
     26  C         18.3680  -24.1050   -6.9200 C.2     1  UNL1        0.0200
     27  C         17.5840  -23.8830   -5.7880 C.2     1  UNL1        0.0430
     28  C         17.7210  -22.6920   -5.0790 C.2     1  UNL1        0.1160
     29  F         16.9670  -22.4820   -3.9930 F       1  UNL1       -0.2060
     30  C         18.6230  -21.7120   -5.4860 C.2     1  UNL1        0.0430
     31  C         19.4090  -21.9280   -6.6170 C.2     1  UNL1        0.0200
@<TRIPOS>BOND
     1    23    24    1
     2    23    21    2
     3    24    18    2
     4    22    21    1
     5    21    20    1
     6    16    13    2
     7    18    17    1
     8    18    19    1
     9    17    14    1
    10    20    19    2
    11    13    14   am
    12    13     1    1
    13    14    15    1
    14     6     1    2
    15     6     5    1
    16     1     2    1
    17     7     5    1
    18     7     8    1
    19     5     4    2
    20     2     3    2
    21     8     9    1
    22     4     3    1
    23     4    10    1
    24     9    10    1
    25    10    11   am
    26    11    12    2
    27    11    25    1
    28    25    26    2
    29    25    31    1
    30    26    27    1
    31    31    30    2
    32    27    28    2
    33    30    28    1
    34    28    29    1
