@<TRIPOS>MOLECULE
41168_out_ligand_01.pdbqt
 31 34 0 0 0
SMALL
GASTEIGER

@<TRIPOS>ATOM
      1  C         22.7330  -22.1160  -11.7730 C.2     1  UNL1        0.0330
      2  C         22.7700  -22.6540  -10.4880 C.2     1  UNL1        0.0190
      3  C         21.5870  -22.7820   -9.7470 C.2     1  UNL1        0.0310
      4  C         20.3430  -22.3820  -10.2620 C.2     1  UNL1        0.0430
      5  C         20.3310  -21.7720  -11.5350 C.2     1  UNL1       -0.0300
      6  C         21.5170  -21.6610  -12.2860 C.2     1  UNL1        0.0260
      7  C         19.0570  -21.2580  -12.1480 C.3     1  UNL1        0.0420
      8  C         18.1040  -20.8300  -11.0530 C.3     1  UNL1        0.0250
      9  C         17.8860  -21.9940  -10.1040 C.3     1  UNL1        0.1330
     10  N         19.1190  -22.5340   -9.5090 N.am    1  UNL1       -0.3130
     11  C         19.0290  -23.4390   -8.4300 C.2     1  UNL1        0.2580
     12  O         19.8630  -24.2770   -8.0950 O.2     1  UNL1       -0.2670
     13  C         23.9630  -21.9730  -12.6040 C.2     1  UNL1        0.2560
     14  N         23.8650  -21.0380  -13.6200 N.am    1  UNL1       -0.3220
     15  H         23.0260  -20.4760  -13.6230 H       1  UNL1        0.1690
     16  O         24.9410  -22.6460  -12.3030 O.2     1  UNL1       -0.2670
     17  C         24.8350  -20.7090  -14.5990 C.2     1  UNL1        0.0410
     18  C         25.6170  -19.5530  -14.5010 C.2     1  UNL1        0.0300
     19  C         26.5700  -19.2480  -15.4710 C.2     1  UNL1        0.0030
     20  C         26.7600  -20.0980  -16.5530 C.2     1  UNL1        0.0070
     21  C         26.0010  -21.2700  -16.6840 C.2     1  UNL1       -0.0540
     22  C         26.2580  -22.1500  -17.8790 C.3     1  UNL1        0.0490
     23  C         25.0280  -21.5870  -15.7020 C.2     1  UNL1       -0.0290
     24  C         24.2000  -22.8450  -15.8250 C.3     1  UNL1        0.0510
     25  C         17.8010  -23.4180   -7.6050 C.2     1  UNL1        0.0320
     26  C         16.8020  -24.3690   -7.8440 C.2     1  UNL1        0.0200
     27  C         15.6550  -24.3730   -7.0500 C.2     1  UNL1        0.0430
     28  C         15.5280  -23.4410   -6.0220 C.2     1  UNL1        0.1160
     29  F         14.4250  -23.4480   -5.2620 F       1  UNL1       -0.2060
     30  C         16.5290  -22.5080   -5.7650 C.2     1  UNL1        0.0430
     31  C         17.6800  -22.4980   -6.5550 C.2     1  UNL1        0.0200
@<TRIPOS>BOND
     1    22    21    1
     2    21    20    2
     3    21    23    1
     4    20    19    1
     5    24    23    1
     6    23    17    2
     7    19    18    2
     8    17    18    1
     9    17    14    1
    10    15    14    1
    11    14    13   am
    12    13    16    2
    13    13     1    1
    14     6     1    2
    15     6     5    1
    16     7     5    1
    17     7     8    1
    18     1     2    1
    19     5     4    2
    20     8     9    1
    21     2     3    2
    22     4     3    1
    23     4    10    1
    24     9    10    1
    25    10    11   am
    26    11    12    2
    27    11    25    1
    28    26    25    2
    29    26    27    1
    30    25    31    1
    31    27    28    2
    32    31    30    2
    33    28    30    1
    34    28    29    1
