@<TRIPOS>MOLECULE
41164_out_ligand_01.pdbqt
 31 34 0 0 0
SMALL
GASTEIGER

@<TRIPOS>ATOM
      1  C         22.1060  -21.7620  -12.1950 C.2     1  UNL1        0.0320
      2  C         22.3600  -22.5920  -11.1040 C.2     1  UNL1        0.0190
      3  C         21.3350  -22.9040  -10.2000 C.2     1  UNL1        0.0310
      4  C         20.0280  -22.4190  -10.3650 C.2     1  UNL1        0.0430
      5  C         19.7750  -21.5950  -11.4840 C.2     1  UNL1       -0.0300
      6  C         20.8120  -21.2710  -12.3800 C.2     1  UNL1        0.0260
      7  C         18.4150  -21.0060  -11.7510 C.3     1  UNL1        0.0420
      8  C         17.3330  -21.8100  -11.0620 C.3     1  UNL1        0.0250
      9  C         17.7040  -21.9900   -9.6010 C.3     1  UNL1        0.1330
     10  N         18.9750  -22.7070   -9.4210 N.am    1  UNL1       -0.3130
     11  C         19.1220  -23.6520   -8.3880 C.2     1  UNL1        0.2580
     12  O         19.9500  -24.5590   -8.3370 O.2     1  UNL1       -0.2670
     13  C         23.1590  -21.3900  -13.1830 C.2     1  UNL1        0.2510
     14  O         22.8440  -20.9460  -14.2820 O.2     1  UNL1       -0.2680
     15  N         24.4680  -21.5420  -12.7720 N.am    1  UNL1       -0.3570
     16  H         24.6410  -21.5940  -11.7760 H       1  UNL1        0.1620
     17  C         25.5630  -21.0430  -13.5860 C.3     1  UNL1        0.1270
     18  C         26.2580  -22.1540  -14.3780 C.3     1  UNL1        0.0580
     19  C         25.5930  -22.4460  -15.7040 C.2     1  UNL1       -0.0570
     20  C         25.8230  -21.6170  -16.8110 C.2     1  UNL1        0.0070
     21  C         25.1920  -21.8730  -18.0290 C.2     1  UNL1        0.0010
     22  C         24.3270  -22.9580  -18.1530 C.2     1  UNL1        0.0000
     23  C         24.0940  -23.7900  -17.0590 C.2     1  UNL1        0.0010
     24  C         24.7230  -23.5370  -15.8400 C.2     1  UNL1        0.0070
     25  C         18.1940  -23.5770   -7.2320 C.2     1  UNL1        0.0320
     26  C         17.0310  -24.3610   -7.2010 C.2     1  UNL1        0.0200
     27  C         16.1590  -24.2560   -6.1170 C.2     1  UNL1        0.0430
     28  C         16.4460  -23.3640   -5.0870 C.2     1  UNL1        0.1160
     29  F         15.6060  -23.2660   -4.0490 F       1  UNL1       -0.2060
     30  C         17.5850  -22.5650   -5.1230 C.2     1  UNL1        0.0430
     31  C         18.4620  -22.6640   -6.2040 C.2     1  UNL1        0.0200
@<TRIPOS>BOND
     1    22    21    2
     2    22    23    1
     3    21    20    1
     4    23    24    2
     5    20    19    2
     6    24    19    1
     7    19    18    1
     8    18    17    1
     9    14    13    2
    10    17    15    1
    11    13    15   am
    12    13     1    1
    13    15    16    1
    14     6     1    2
    15     6     5    1
    16     1     2    1
    17     7     5    1
    18     7     8    1
    19     5     4    2
    20     2     3    2
    21     8     9    1
    22     4     3    1
    23     4    10    1
    24     9    10    1
    25    10    11   am
    26    11    12    2
    27    11    25    1
    28    25    26    2
    29    25    31    1
    30    26    27    1
    31    31    30    2
    32    27    28    2
    33    30    28    1
    34    28    29    1
