@<TRIPOS>MOLECULE
41176_out_ligand_01.pdbqt
 30 33 0 0 0
SMALL
GASTEIGER

@<TRIPOS>ATOM
      1  C         21.9950  -21.5480  -12.5150 C.2     1  UNL1        0.0330
      2  C         22.4740  -22.1750  -11.3670 C.2     1  UNL1        0.0190
      3  C         21.6070  -22.4320  -10.2950 C.2     1  UNL1        0.0310
      4  C         20.2500  -22.0740  -10.3350 C.2     1  UNL1        0.0430
      5  C         19.7630  -21.5020  -11.5300 C.2     1  UNL1       -0.0300
      6  C         20.6390  -21.2280  -12.5990 C.2     1  UNL1        0.0260
      7  C         18.3150  -21.1330  -11.6930 C.3     1  UNL1        0.0420
      8  C         17.4620  -22.0530  -10.8490 C.3     1  UNL1        0.0250
      9  C         17.9370  -21.9910   -9.4100 C.3     1  UNL1        0.1330
     10  N         19.3600  -22.3170   -9.2220 N.am    1  UNL1       -0.3130
     11  C         19.8530  -22.5490   -7.9200 C.2     1  UNL1        0.2580
     12  O         21.0170  -22.4580   -7.5400 O.2     1  UNL1       -0.2670
     13  C         22.8770  -21.2430  -13.6780 C.2     1  UNL1        0.2560
     14  O         22.5750  -20.3040  -14.4050 O.2     1  UNL1       -0.2670
     15  N         23.9890  -22.0530  -13.7940 N.am    1  UNL1       -0.3220
     16  H         24.1730  -22.7060  -13.0400 H       1  UNL1        0.1690
     17  C         24.9820  -22.0330  -14.8020 C.2     1  UNL1        0.0520
     18  C         24.9070  -22.8050  -15.9630 C.2     1  UNL1        0.0310
     19  C         25.9220  -22.7500  -16.9250 C.2     1  UNL1        0.0020
     20  C         27.0260  -21.9210  -16.7380 C.2     1  UNL1        0.0020
     21  C         27.1200  -21.1460  -15.5850 C.2     1  UNL1        0.0210
     22  C         26.1060  -21.2030  -14.6230 C.2     1  UNL1        0.0370
     23 BR         26.3020  -20.1200  -13.0700 Br      1  UNL1       -0.0490
     24  C         18.8850  -22.9220   -6.8650 C.2     1  UNL1        0.0320
     25  C         18.5700  -22.0060   -5.8520 C.2     1  UNL1        0.0200
     26  C         17.6360  -22.3600   -4.8780 C.2     1  UNL1        0.0430
     27  C         17.0220  -23.6090   -4.9360 C.2     1  UNL1        0.1160
     28  F         16.1270  -23.9440   -3.9990 F       1  UNL1       -0.2060
     29  C         17.3170  -24.5130   -5.9540 C.2     1  UNL1        0.0430
     30  C         18.2490  -24.1670   -6.9320 C.2     1  UNL1        0.0200
@<TRIPOS>BOND
     1    19    20    2
     2    19    18    1
     3    20    21    1
     4    18    17    2
     5    21    22    2
     6    17    22    1
     7    17    15    1
     8    22    23    1
     9    14    13    2
    10    15    13   am
    11    15    16    1
    12    13     1    1
    13     6     1    2
    14     6     5    1
    15     1     2    1
    16     7     5    1
    17     7     8    1
    18     5     4    2
    19     2     3    2
    20     8     9    1
    21     4     3    1
    22     4    10    1
    23     9    10    1
    24    10    11   am
    25    11    12    2
    26    11    24    1
    27    30    24    2
    28    30    29    1
    29    24    25    1
    30    29    27    2
    31    25    26    2
    32    27    26    1
    33    27    28    1
