@<TRIPOS>MOLECULE
41175_out_ligand_01.pdbqt
 30 33 0 0 0
SMALL
GASTEIGER

@<TRIPOS>ATOM
      1  C         23.0100  -22.0090  -12.3670 C.2     1  UNL1        0.0330
      2  C         23.1950  -22.7370  -11.1930 C.2     1  UNL1        0.0190
      3  C         22.1410  -22.8800  -10.2830 C.2     1  UNL1        0.0310
      4  C         20.8800  -22.3030  -10.5100 C.2     1  UNL1        0.0430
      5  C         20.6840  -21.6290  -11.7340 C.2     1  UNL1       -0.0300
      6  C         21.7500  -21.4720  -12.6420 C.2     1  UNL1        0.0260
      7  C         19.3550  -21.0290  -12.0970 C.3     1  UNL1        0.0420
      8  C         18.2450  -21.8210  -11.4390 C.3     1  UNL1        0.0250
      9  C         18.4910  -21.8720   -9.9440 C.3     1  UNL1        0.1330
     10  N         19.7990  -22.4310   -9.5600 N.am    1  UNL1       -0.3130
     11  C         20.0410  -22.7620   -8.2100 C.2     1  UNL1        0.2580
     12  O         21.1330  -22.8370   -7.6520 O.2     1  UNL1       -0.2670
     13  C         24.1030  -21.8170  -13.3600 C.2     1  UNL1        0.2560
     14  O         25.2560  -21.7590  -12.9500 O.2     1  UNL1       -0.2670
     15  N         23.6880  -21.7640  -14.6790 N.am    1  UNL1       -0.3230
     16  H         22.7130  -21.9640  -14.8590 H       1  UNL1        0.1690
     17  C         24.4910  -21.5530  -15.8210 C.2     1  UNL1        0.0360
     18  C         24.6220  -22.6270  -16.7140 C.2     1  UNL1        0.0290
     19  C         25.3940  -22.5040  -17.8720 C.2     1  UNL1        0.0040
     20  C         26.0410  -21.3040  -18.1490 C.2     1  UNL1        0.0240
     21  C         25.9110  -20.2330  -17.2680 C.2     1  UNL1        0.0360
     22 CL         26.7100  -18.7480  -17.6180 Cl      1  UNL1       -0.0840
     23  C         25.1410  -20.3510  -16.1080 C.2     1  UNL1        0.0530
     24  C         18.8770  -23.0340   -7.3400 C.2     1  UNL1        0.0320
     25  C         18.5660  -22.1330   -6.3150 C.2     1  UNL1        0.0200
     26  C         17.4860  -22.3990   -5.4720 C.2     1  UNL1        0.0430
     27  C         16.7440  -23.5630   -5.6530 C.2     1  UNL1        0.1160
     28  F         15.7080  -23.8150   -4.8420 F       1  UNL1       -0.2060
     29  C         17.0640  -24.4750   -6.6560 C.2     1  UNL1        0.0430
     30  C         18.1430  -24.2160   -7.5030 C.2     1  UNL1        0.0200
@<TRIPOS>BOND
     1    20    19    2
     2    20    21    1
     3    19    18    1
     4    22    21    1
     5    21    23    2
     6    18    17    2
     7    23    17    1
     8    17    15    1
     9    16    15    1
    10    15    13   am
    11    13    14    2
    12    13     1    1
    13     6     1    2
    14     6     5    1
    15     1     2    1
    16     7     5    1
    17     7     8    1
    18     5     4    2
    19     8     9    1
    20     2     3    2
    21     4     3    1
    22     4    10    1
    23     9    10    1
    24    10    11   am
    25    11    12    2
    26    11    24    1
    27    30    24    2
    28    30    29    1
    29    24    25    1
    30    29    27    2
    31    25    26    2
    32    27    26    1
    33    27    28    1
