@<TRIPOS>MOLECULE
41174_out_ligand_01.pdbqt
 30 33 0 0 0
SMALL
GASTEIGER

@<TRIPOS>ATOM
      1  C         22.7090  -22.2360  -11.8990 C.2     1  UNL1        0.0330
      2  C         22.7950  -22.9990  -10.7350 C.2     1  UNL1        0.0190
      3  C         21.6590  -23.1940   -9.9380 C.2     1  UNL1        0.0310
      4  C         20.4130  -22.6400  -10.2780 C.2     1  UNL1        0.0430
      5  C         20.3420  -21.8520  -11.4480 C.2     1  UNL1       -0.0300
      6  C         21.4900  -21.6470  -12.2380 C.2     1  UNL1        0.0260
      7  C         19.0680  -21.1730  -11.8760 C.3     1  UNL1        0.0420
      8  C         17.8600  -21.8600  -11.2750 C.3     1  UNL1        0.0250
      9  C         18.0650  -22.0090   -9.7790 C.3     1  UNL1        0.1330
     10  N         19.2480  -22.8180   -9.4480 N.am    1  UNL1       -0.3130
     11  C         19.2080  -23.7500   -8.3950 C.2     1  UNL1        0.2580
     12  O         19.9390  -24.7290   -8.2650 O.2     1  UNL1       -0.2670
     13  C         23.8910  -21.9960  -12.7760 C.2     1  UNL1        0.2560
     14  O         24.9220  -22.6140  -12.5390 O.2     1  UNL1       -0.2670
     15  N         23.6990  -21.0460  -13.7630 N.am    1  UNL1       -0.3230
     16  H         22.8300  -20.5280  -13.7360 H       1  UNL1        0.1690
     17  C         24.6200  -20.6450  -14.7540 C.2     1  UNL1        0.0370
     18  C         25.5070  -19.5740  -14.6100 C.2     1  UNL1        0.0290
     19  C         26.3980  -19.2390  -15.6370 C.2     1  UNL1        0.0050
     20  C         26.4100  -19.9770  -16.8170 C.2     1  UNL1        0.0420
     21  C         25.5320  -21.0420  -16.9570 C.2     1  UNL1        0.1180
     22  F         25.5400  -21.7580  -18.0900 F       1  UNL1       -0.2060
     23  C         24.6420  -21.3830  -15.9430 C.2     1  UNL1        0.0710
     24  C         18.1850  -23.5690   -7.3340 C.2     1  UNL1        0.0320
     25  C         17.0110  -24.3310   -7.3880 C.2     1  UNL1        0.0200
     26  C         16.0490  -24.1880   -6.3860 C.2     1  UNL1        0.0430
     27  C         16.2790  -23.3040   -5.3350 C.2     1  UNL1        0.1160
     28  F         15.3560  -23.1700   -4.3740 F       1  UNL1       -0.2060
     29  C         17.4550  -22.5630   -5.2610 C.2     1  UNL1        0.0430
     30  C         18.4200  -22.6990   -6.2610 C.2     1  UNL1        0.0200
@<TRIPOS>BOND
     1    22    21    1
     2    21    20    2
     3    21    23    1
     4    20    19    1
     5    23    17    2
     6    19    18    2
     7    17    18    1
     8    17    15    1
     9    15    16    1
    10    15    13   am
    11    13    14    2
    12    13     1    1
    13     6     1    2
    14     6     5    1
    15     1     2    1
    16     7     5    1
    17     7     8    1
    18     5     4    2
    19     8     9    1
    20     2     3    2
    21     4     3    1
    22     4    10    1
    23     9    10    1
    24    10    11   am
    25    11    12    2
    26    11    24    1
    27    25    24    2
    28    25    26    1
    29    24    30    1
    30    26    27    2
    31    30    29    2
    32    27    29    1
    33    27    28    1
