@<TRIPOS>MOLECULE
41177_out_ligand_01.pdbqt
 30 33 0 0 0
SMALL
GASTEIGER

@<TRIPOS>ATOM
      1  C         21.6490  -21.6790  -12.2530 C.2     1  UNL1        0.0330
      2  C         20.3210  -21.2570  -12.2050 C.2     1  UNL1        0.0190
      3  C         19.4620  -21.7550  -11.2160 C.2     1  UNL1        0.0310
      4  C         19.8970  -22.6830  -10.2570 C.2     1  UNL1        0.0430
      5  C         21.2490  -23.0890  -10.3010 C.2     1  UNL1       -0.0300
      6  C         22.1140  -22.5750  -11.2870 C.2     1  UNL1        0.0260
      7  C         21.8290  -24.0430   -9.2920 C.3     1  UNL1        0.0420
      8  C         20.7430  -24.8790   -8.6490 C.3     1  UNL1        0.0250
      9  C         19.6430  -23.9640   -8.1450 C.3     1  UNL1        0.1330
     10  N         19.0210  -23.1800   -9.2240 N.am    1  UNL1       -0.3130
     11  C         17.6300  -22.9770   -9.2530 C.2     1  UNL1        0.2580
     12  O         16.9580  -22.7040  -10.2460 O.2     1  UNL1       -0.2670
     13  C         22.6020  -21.1740  -13.2800 C.2     1  UNL1        0.2560
     14  O         22.2300  -20.2750  -14.0230 O.2     1  UNL1       -0.2670
     15  N         23.8520  -21.7670  -13.2540 N.am    1  UNL1       -0.3230
     16  H         24.0400  -22.4030  -12.4890 H       1  UNL1        0.1690
     17  C         24.9360  -21.5210  -14.1240 C.2     1  UNL1        0.0360
     18  C         26.0900  -20.8290  -13.7530 C.2     1  UNL1        0.0290
     19  C         27.1210  -20.6170  -14.6760 C.2     1  UNL1        0.0040
     20  C         27.0060  -21.0950  -15.9790 C.2     1  UNL1        0.0190
     21  C         25.8550  -21.7810  -16.3540 C.2     1  UNL1        0.0130
     22 BR         25.6860  -22.4320  -18.1220 Br      1  UNL1       -0.0510
     23  C         24.8230  -21.9950  -15.4370 C.2     1  UNL1        0.0480
     24  C         16.8720  -23.1110   -7.9840 C.2     1  UNL1        0.0320
     25  C         16.8240  -22.0510   -7.0680 C.2     1  UNL1        0.0200
     26  C         16.0850  -22.1910   -5.8930 C.2     1  UNL1        0.0430
     27  C         15.3910  -23.3750   -5.6520 C.2     1  UNL1        0.1160
     28  F         14.6830  -23.5030   -4.5230 F       1  UNL1       -0.2060
     29  C         15.4150  -24.4210   -6.5680 C.2     1  UNL1        0.0430
     30  C         16.1510  -24.2890   -7.7460 C.2     1  UNL1        0.0200
@<TRIPOS>BOND
     1    22    21    1
     2    21    20    2
     3    21    23    1
     4    20    19    1
     5    23    17    2
     6    19    18    2
     7    17    18    1
     8    17    15    1
     9    14    13    2
    10    13    15   am
    11    13     1    1
    12    15    16    1
    13     1     2    2
    14     1     6    1
    15     2     3    1
    16     6     5    2
    17     3     4    2
    18     5     4    1
    19     5     7    1
    20     4    10    1
    21    12    11    2
    22     7     8    1
    23    11    10   am
    24    11    24    1
    25    10     9    1
    26     8     9    1
    27    24    30    2
    28    24    25    1
    29    30    29    1
    30    25    26    2
    31    29    27    2
    32    26    27    1
    33    27    28    1
