@<TRIPOS>MOLECULE
41182_out_ligand_01.pdbqt
 31 34 0 0 0
SMALL
GASTEIGER

@<TRIPOS>ATOM
      1  C         21.6410  -21.6810  -12.2950 C.2     1  UNL1        0.0330
      2  C         20.3110  -21.2670  -12.2530 C.2     1  UNL1        0.0190
      3  C         19.4520  -21.7660  -11.2660 C.2     1  UNL1        0.0310
      4  C         19.8910  -22.6870  -10.3000 C.2     1  UNL1        0.0430
      5  C         21.2430  -23.0910  -10.3430 C.2     1  UNL1       -0.0300
      6  C         22.1080  -22.5750  -11.3280 C.2     1  UNL1        0.0260
      7  C         21.8270  -24.0410   -9.3320 C.3     1  UNL1        0.0420
      8  C         20.7420  -24.8690   -8.6750 C.3     1  UNL1        0.0250
      9  C         19.6480  -23.9450   -8.1740 C.3     1  UNL1        0.1330
     10  N         19.0200  -23.1760   -9.2590 N.am    1  UNL1       -0.3130
     11  C         17.6290  -22.9670   -9.2780 C.2     1  UNL1        0.2580
     12  O         16.9470  -22.7000  -10.2660 O.2     1  UNL1       -0.2670
     13  C         22.5980  -21.1620  -13.3130 C.2     1  UNL1        0.2560
     14  N         23.8760  -21.6830  -13.2260 N.am    1  UNL1       -0.3230
     15  H         24.0830  -22.2630  -12.4220 H       1  UNL1        0.1690
     16  O         22.2000  -20.3120  -14.1000 O.2     1  UNL1       -0.2670
     17  C         24.9680  -21.4140  -14.0800 C.2     1  UNL1        0.0360
     18  C         26.0780  -20.6530  -13.7080 C.2     1  UNL1        0.0290
     19  C         27.1160  -20.4220  -14.6150 C.2     1  UNL1        0.0040
     20  C         27.0540  -20.9530  -15.9020 C.2     1  UNL1        0.0180
     21  C         25.9530  -21.7200  -16.2870 C.2     1  UNL1        0.0020
     22  C         24.9100  -21.9370  -15.3800 C.2     1  UNL1        0.0480
     23  S         25.8490  -22.4010  -17.9310 S.3     1  UNL1       -0.1340
     24  C         24.2570  -23.2580  -17.7840 C.3     1  UNL1        0.0950
     25  C         16.8860  -23.0820   -7.9990 C.2     1  UNL1        0.0320
     26  C         16.1060  -24.2220   -7.7670 C.2     1  UNL1        0.0200
     27  C         15.3840  -24.3330   -6.5780 C.2     1  UNL1        0.0430
     28  C         15.4340  -23.2990   -5.6450 C.2     1  UNL1        0.1160
     29  F         14.7380  -23.4060   -4.5070 F       1  UNL1       -0.2060
     30  C         16.1880  -22.1520   -5.8800 C.2     1  UNL1        0.0430
     31  C         16.9140  -22.0360   -7.0670 C.2     1  UNL1        0.0200
@<TRIPOS>BOND
     1    23    24    1
     2    23    21    1
     3    21    20    2
     4    21    22    1
     5    20    19    1
     6    22    17    2
     7    19    18    2
     8    16    13    2
     9    17    18    1
    10    17    14    1
    11    13    14   am
    12    13     1    1
    13    14    15    1
    14     1     2    2
    15     1     6    1
    16     2     3    1
    17     6     5    2
    18     3     4    2
    19     5     4    1
    20     5     7    1
    21     4    10    1
    22    12    11    2
    23     7     8    1
    24    11    10   am
    25    11    25    1
    26    10     9    1
    27     8     9    1
    28    25    26    2
    29    25    31    1
    30    26    27    1
    31    31    30    2
    32    27    28    2
    33    30    28    1
    34    28    29    1
