@<TRIPOS>MOLECULE
41181_out_ligand_01.pdbqt
 32 35 0 0 0
SMALL
GASTEIGER

@<TRIPOS>ATOM
      1  C         22.7480  -22.0740  -11.9920 C.2     1  UNL1        0.0330
      2  C         22.8240  -22.6320  -10.7170 C.2     1  UNL1        0.0190
      3  C         21.6670  -22.7600   -9.9360 C.2     1  UNL1        0.0310
      4  C         20.4090  -22.3420  -10.4000 C.2     1  UNL1        0.0430
      5  C         20.3560  -21.7180  -11.6650 C.2     1  UNL1       -0.0300
      6  C         21.5170  -21.6050  -12.4550 C.2     1  UNL1        0.0260
      7  C         19.0680  -21.1870  -12.2270 C.3     1  UNL1        0.0420
      8  C         18.1560  -20.7660  -11.0960 C.3     1  UNL1        0.0250
      9  C         17.9620  -21.9380  -10.1520 C.3     1  UNL1        0.1330
     10  N         19.2110  -22.4930   -9.6050 N.am    1  UNL1       -0.3130
     11  C         19.1530  -23.3970   -8.5240 C.2     1  UNL1        0.2580
     12  O         19.9970  -24.2310   -8.2060 O.2     1  UNL1       -0.2670
     13  C         23.9470  -21.9220  -12.8660 C.2     1  UNL1        0.2560
     14  N         23.8550  -20.9170  -13.8070 N.am    1  UNL1       -0.3210
     15  H         23.0500  -20.3000  -13.7810 H       1  UNL1        0.1690
     16  O         24.9060  -22.6590  -12.6690 O.2     1  UNL1       -0.2670
     17  C         24.8010  -20.5480  -14.7890 C.2     1  UNL1        0.0680
     18  C         25.7230  -19.5130  -14.6210 C.2     1  UNL1        0.0320
     19  C         26.6290  -19.2070  -15.6390 C.2     1  UNL1        0.0020
     20  C         26.6160  -19.9320  -16.8280 C.2     1  UNL1        0.0030
     21  C         25.7000  -20.9720  -17.0050 C.2     1  UNL1        0.0390
     22  C         24.7950  -21.2910  -15.9900 C.2     1  UNL1        0.0950
     23  O         23.8500  -22.2900  -16.0520 O.2     1  UNL1       -0.3490
     24  C         24.1550  -23.4910  -16.7610 C.3     1  UNL1        0.1710
     25  C         23.2850  -23.6200  -18.0000 C.3     1  UNL1        0.0340
     26  C         17.9460  -23.3820   -7.6680 C.2     1  UNL1        0.0320
     27  C         16.9410  -24.3330   -7.8880 C.2     1  UNL1        0.0200
     28  C         15.8130  -24.3400   -7.0670 C.2     1  UNL1        0.0430
     29  C         15.7100  -23.4120   -6.0330 C.2     1  UNL1        0.1160
     30  F         14.6260  -23.4220   -5.2480 F       1  UNL1       -0.2060
     31  C         16.7170  -22.4790   -5.7970 C.2     1  UNL1        0.0430
     32  C         17.8490  -22.4650   -6.6130 C.2     1  UNL1        0.0200
@<TRIPOS>BOND
     1    25    24    1
     2    21    20    2
     3    21    22    1
     4    20    19    1
     5    24    23    1
     6    23    22    1
     7    22    17    2
     8    19    18    2
     9    17    18    1
    10    17    14    1
    11    14    15    1
    12    14    13   am
    13    13    16    2
    14    13     1    1
    15     6     1    2
    16     6     5    1
    17     7     5    1
    18     7     8    1
    19     1     2    1
    20     5     4    2
    21     8     9    1
    22     2     3    2
    23     4     3    1
    24     4    10    1
    25     9    10    1
    26    10    11   am
    27    11    12    2
    28    11    26    1
    29    27    26    2
    30    27    28    1
    31    26    32    1
    32    28    29    2
    33    32    31    2
    34    29    31    1
    35    29    30    1
