@<TRIPOS>MOLECULE
41188_out_ligand_01.pdbqt
 31 34 0 0 0
SMALL
GASTEIGER

@<TRIPOS>ATOM
      1  C         19.3100  -22.2520  -10.6510 C.2     1  UNL1        0.0320
      2  C         19.3920  -21.5890  -11.8730 C.2     1  UNL1        0.0190
      3  C         20.6250  -21.4740  -12.5330 C.2     1  UNL1        0.0310
      4  C         21.8090  -21.9970  -11.9880 C.2     1  UNL1        0.0430
      5  C         21.7180  -22.6510  -10.7410 C.2     1  UNL1       -0.0300
      6  C         20.4750  -22.7760  -10.0890 C.2     1  UNL1        0.0260
      7  C         22.9170  -23.2680  -10.0710 C.3     1  UNL1        0.0420
      8  C         24.2010  -22.6490  -10.5820 C.3     1  UNL1        0.0250
      9  C         24.1930  -22.6760  -12.1000 C.3     1  UNL1        0.1330
     10  N         23.0780  -21.9100  -12.6740 N.am    1  UNL1       -0.3130
     11  C         23.2590  -21.1370  -13.8370 C.2     1  UNL1        0.2610
     12  O         22.5380  -20.2180  -14.2210 O.2     1  UNL1       -0.2670
     13  C         18.0260  -22.4170   -9.9130 C.2     1  UNL1        0.2510
     14  O         17.0710  -21.6900  -10.1650 O.2     1  UNL1       -0.2680
     15  N         18.0040  -23.3780   -8.9230 N.am    1  UNL1       -0.3570
     16  H         18.8840  -23.7440   -8.5840 H       1  UNL1        0.1620
     17  C         16.8670  -23.5060   -8.0280 C.3     1  UNL1        0.1270
     18  C         17.2550  -24.0340   -6.6420 C.3     1  UNL1        0.0580
     19  C         17.7520  -22.9400   -5.7250 C.2     1  UNL1       -0.0570
     20  C         17.3920  -22.9250   -4.3710 C.2     1  UNL1        0.0070
     21  C         17.8770  -21.9280   -3.5220 C.2     1  UNL1        0.0010
     22  C         18.7270  -20.9410   -4.0180 C.2     1  UNL1        0.0000
     23  C         19.0920  -20.9470   -5.3630 C.2     1  UNL1        0.0010
     24  C         18.6080  -21.9420   -6.2130 C.2     1  UNL1        0.0070
     25  C         24.4440  -21.3870  -14.6840 C.2     1  UNL1        0.0710
     26  C         24.4100  -22.4410  -15.6060 C.2     1  UNL1        0.0200
     27  C         25.5330  -22.7110  -16.3920 C.2     1  UNL1        0.0010
     28  C         26.6900  -21.9430  -16.2460 C.2     1  UNL1        0.0030
     29  C         26.7310  -20.9090  -15.3090 C.2     1  UNL1        0.0430
     30  C         25.6100  -20.6410  -14.5270 C.2     1  UNL1        0.1320
     31  F         25.6790  -19.6530  -13.6240 F       1  UNL1       -0.2050
@<TRIPOS>BOND
     1    27    28    2
     2    27    26    1
     3    28    29    1
     4    26    25    2
     5    29    30    2
     6    25    30    1
     7    25    11    1
     8    30    31    1
     9    12    11    2
    10    11    10   am
    11    10     9    1
    12    10     4    1
    13     3     4    2
    14     3     2    1
    15     9     8    1
    16     4     5    1
    17     2     1    2
    18     5     6    2
    19     5     7    1
    20     1     6    1
    21     1    13    1
    22     8     7    1
    23    14    13    2
    24    13    15   am
    25    15    16    1
    26    15    17    1
    27    17    18    1
    28    18    19    1
    29    24    19    2
    30    24    23    1
    31    19    20    1
    32    23    22    2
    33    20    21    2
    34    22    21    1
