@<TRIPOS>MOLECULE
41189_out_ligand_01.pdbqt
 29 32 0 0 0
SMALL
GASTEIGER

@<TRIPOS>ATOM
      1  C         22.2460  -21.7370  -12.5630 C.2     1  UNL1        0.0320
      2  C         22.5940  -22.5130  -11.4600 C.2     1  UNL1        0.0190
      3  C         21.6500  -22.7830  -10.4600 C.2     1  UNL1        0.0310
      4  C         20.3300  -22.3110  -10.5390 C.2     1  UNL1        0.0430
      5  C         19.9800  -21.5410  -11.6700 C.2     1  UNL1       -0.0300
      6  C         20.9380  -21.2590  -12.6650 C.2     1  UNL1        0.0260
      7  C         18.6010  -20.9640  -11.8490 C.3     1  UNL1        0.0420
      8  C         17.5830  -21.7250  -11.0270 C.3     1  UNL1        0.0250
      9  C         18.0840  -21.8360   -9.5980 C.3     1  UNL1        0.1330
     10  N         19.3580  -22.5640   -9.5010 N.am    1  UNL1       -0.3130
     11  C         19.5960  -23.4560   -8.4380 C.2     1  UNL1        0.2610
     12  O         20.4470  -24.3460   -8.4120 O.2     1  UNL1       -0.2670
     13  C         23.2110  -21.4150  -13.6530 C.2     1  UNL1        0.2520
     14  O         22.9970  -20.4670  -14.4030 O.2     1  UNL1       -0.2680
     15  N         24.3360  -22.2050  -13.7310 N.am    1  UNL1       -0.3510
     16  H         24.5840  -22.7840  -12.9400 H       1  UNL1        0.1630
     17  C         25.4100  -21.8890  -14.6460 C.3     1  UNL1        0.1870
     18  C         25.0070  -22.3180  -16.0080 C.2     1  UNL1        0.0700
     19  C         24.4950  -23.4940  -16.5150 C.2     1  UNL1        0.0360
     20  C         24.2970  -23.2800  -17.8990 C.2     1  UNL1        0.0270
     21  C         24.7080  -21.9910  -18.1510 C.2     1  UNL1        0.1420
     22  O         25.1340  -21.3960  -17.0070 O.2     1  UNL1       -0.3250
     23  C         18.7380  -23.3870   -7.2390 C.2     1  UNL1        0.0710
     24  C         17.8040  -24.4050   -7.0110 C.2     1  UNL1        0.0200
     25  C         17.0070  -24.3720   -5.8640 C.2     1  UNL1        0.0010
     26  C         17.1530  -23.3340   -4.9400 C.2     1  UNL1        0.0030
     27  C         18.1010  -22.3340   -5.1570 C.2     1  UNL1        0.0430
     28  C         18.8950  -22.3690   -6.3000 C.2     1  UNL1        0.1320
     29  F         19.8100  -21.4050   -6.4770 F       1  UNL1       -0.2050
@<TRIPOS>BOND
     1    21    20    2
     2    21    22    1
     3    20    19    1
     4    22    18    1
     5    19    18    2
     6    18    17    1
     7    17    15    1
     8    14    13    2
     9    15    13   am
    10    15    16    1
    11    13     1    1
    12     6     1    2
    13     6     5    1
    14     1     2    1
    15     7     5    1
    16     7     8    1
    17     5     4    2
    18     2     3    2
    19     8     9    1
    20     4     3    1
    21     4    10    1
    22     9    10    1
    23    10    11   am
    24    11    12    2
    25    11    23    1
    26    23    24    2
    27    23    28    1
    28    24    25    1
    29    29    28    1
    30    28    27    2
    31    25    26    2
    32    27    26    1
