@<TRIPOS>MOLECULE
41187_out_ligand_01.pdbqt
 29 32 0 0 0
SMALL
GASTEIGER

@<TRIPOS>ATOM
      1  C         22.0860  -21.7860  -12.4200 C.2     1  UNL1        0.0320
      2  C         22.4020  -22.5820  -11.3220 C.2     1  UNL1        0.0190
      3  C         21.4370  -22.8400  -10.3380 C.2     1  UNL1        0.0310
      4  C         20.1290  -22.3360  -10.4300 C.2     1  UNL1        0.0430
      5  C         19.8130  -21.5480  -11.5570 C.2     1  UNL1       -0.0300
      6  C         20.7900  -21.2780  -12.5370 C.2     1  UNL1        0.0260
      7  C         18.4510  -20.9380  -11.7520 C.3     1  UNL1        0.0420
      8  C         17.4040  -21.6850  -10.9530 C.3     1  UNL1        0.0250
      9  C         17.8790  -21.8190   -9.5180 C.3     1  UNL1        0.1330
     10  N         19.1370  -22.5730   -9.4070 N.am    1  UNL1       -0.3130
     11  C         19.3430  -23.4750   -8.3440 C.2     1  UNL1        0.2610
     12  O         20.1740  -24.3820   -8.3100 O.2     1  UNL1       -0.2670
     13  C         23.0700  -21.4710  -13.4930 C.2     1  UNL1        0.2520
     14  O         22.7940  -20.6410  -14.3530 O.2     1  UNL1       -0.2680
     15  N         24.2790  -22.1340  -13.4330 N.am    1  UNL1       -0.3520
     16  H         24.4590  -22.7790  -12.6780 H       1  UNL1        0.1630
     17  C         25.2930  -21.9810  -14.4710 C.3     1  UNL1        0.0840
     18  C         26.7000  -22.1890  -13.8950 C.3     1  UNL1        0.0250
     19  C         26.9970  -23.6500  -13.5580 C.3     1  UNL1        0.0020
     20  C         26.7270  -24.5710  -14.7430 C.3     1  UNL1        0.0000
     21  C         25.3130  -24.3930  -15.2860 C.3     1  UNL1        0.0020
     22  C         25.0290  -22.9350  -15.6440 C.3     1  UNL1        0.0250
     23  C         18.4700  -23.3910   -7.1550 C.2     1  UNL1        0.0710
     24  C         17.4290  -24.3160   -7.0090 C.2     1  UNL1        0.0200
     25  C         16.6130  -24.2690   -5.8770 C.2     1  UNL1        0.0010
     26  C         16.8480  -23.3130   -4.8850 C.2     1  UNL1        0.0030
     27  C         17.9020  -22.4080   -5.0200 C.2     1  UNL1        0.0430
     28  C         18.7140  -22.4570   -6.1510 C.2     1  UNL1        0.1320
     29  F         19.7290  -21.5860   -6.2500 F       1  UNL1       -0.2050
@<TRIPOS>BOND
     1    22    21    1
     2    22    17    1
     3    21    20    1
     4    20    19    1
     5    17    18    1
     6    17    15    1
     7    14    13    2
     8    18    19    1
     9    13    15   am
    10    13     1    1
    11    15    16    1
    12     6     1    2
    13     6     5    1
    14     1     2    1
    15     7     5    1
    16     7     8    1
    17     5     4    2
    18     2     3    2
    19     8     9    1
    20     4     3    1
    21     4    10    1
    22     9    10    1
    23    10    11   am
    24    11    12    2
    25    11    23    1
    26    23    24    2
    27    23    28    1
    28    24    25    1
    29    29    28    1
    30    28    27    2
    31    25    26    2
    32    27    26    1
