@<TRIPOS>MOLECULE
41180_out_ligand_01.pdbqt
 31 34 0 0 0
SMALL
GASTEIGER

@<TRIPOS>ATOM
      1  C         21.5790  -21.6450  -12.2430 C.2     1  UNL1        0.0330
      2  C         20.2380  -21.2660  -12.2170 C.2     1  UNL1        0.0190
      3  C         19.3830  -21.7710  -11.2270 C.2     1  UNL1        0.0310
      4  C         19.8290  -22.6810  -10.2560 C.2     1  UNL1        0.0430
      5  C         21.1840  -23.0780  -10.3070 C.2     1  UNL1       -0.0300
      6  C         22.0440  -22.5550  -11.2930 C.2     1  UNL1        0.0260
      7  C         21.7730  -24.0400   -9.3090 C.3     1  UNL1        0.0420
      8  C         20.6920  -24.8880   -8.6760 C.3     1  UNL1        0.0250
      9  C         19.5930  -23.9830   -8.1530 C.3     1  UNL1        0.1330
     10  N         18.9640  -23.1800   -9.2140 N.am    1  UNL1       -0.3130
     11  C         17.5750  -22.9510   -9.2060 C.2     1  UNL1        0.2580
     12  O         16.8820  -22.6280  -10.1670 O.2     1  UNL1       -0.2670
     13  C         22.5330  -21.1300  -13.2690 C.2     1  UNL1        0.2560
     14  N         23.8090  -21.6590  -13.1980 N.am    1  UNL1       -0.3230
     15  H         23.9600  -22.4110  -12.5400 H       1  UNL1        0.1690
     16  O         22.1150  -20.3280  -14.0960 O.2     1  UNL1       -0.2670
     17  C         24.9180  -21.3320  -14.0080 C.2     1  UNL1        0.0370
     18  C         25.4800  -22.1950  -14.9480 C.2     1  UNL1        0.0290
     19  C         26.5760  -21.7860  -15.7130 C.2     1  UNL1        0.0050
     20  C         27.1190  -20.5110  -15.5480 C.2     1  UNL1        0.0370
     21  C         26.5660  -19.6370  -14.6150 C.2     1  UNL1        0.0700
     22  C         25.4690  -20.0530  -13.8530 C.2     1  UNL1        0.0660
     23  O         26.9940  -18.3650  -14.3510 O.2     1  UNL1       -0.3560
     24  C         26.9130  -17.4260  -15.4170 C.3     1  UNL1        0.2100
     25  C         16.8430  -23.1160   -7.9250 C.2     1  UNL1        0.0320
     26  C         16.9460  -22.1480   -6.9170 C.2     1  UNL1        0.0200
     27  C         16.2280  -22.3110   -5.7310 C.2     1  UNL1        0.0430
     28  C         15.4080  -23.4240   -5.5710 C.2     1  UNL1        0.1160
     29  F         14.7200  -23.5760   -4.4320 F       1  UNL1       -0.2060
     30  C         15.2820  -24.3770   -6.5780 C.2     1  UNL1        0.0430
     31  C         15.9960  -24.2210   -7.7670 C.2     1  UNL1        0.0200
@<TRIPOS>BOND
     1    19    20    2
     2    19    18    1
     3    20    21    1
     4    24    23    1
     5    18    17    2
     6    21    23    1
     7    21    22    2
     8    16    13    2
     9    17    22    1
    10    17    14    1
    11    13    14   am
    12    13     1    1
    13    14    15    1
    14     1     2    2
    15     1     6    1
    16     2     3    1
    17     6     5    2
    18     3     4    2
    19     5     4    1
    20     5     7    1
    21     4    10    1
    22    12    11    2
    23     7     8    1
    24    10    11   am
    25    10     9    1
    26    11    25    1
    27     8     9    1
    28    25    31    2
    29    25    26    1
    30    31    30    1
    31    26    27    2
    32    30    28    2
    33    27    28    1
    34    28    29    1
