@<TRIPOS>MOLECULE
41196_out_ligand_01.pdbqt
 30 33 0 0 0
SMALL
GASTEIGER

@<TRIPOS>ATOM
      1  C         19.1330  -23.4400   -8.4030 C.2     1  UNL1        0.2580
      2  O         19.9950  -24.2490   -8.0700 O.2     1  UNL1       -0.2670
      3  N         19.1810  -22.5460   -9.4940 N.am    1  UNL1       -0.3130
      4  C         17.9270  -22.0000  -10.0360 C.3     1  UNL1        0.1330
      5  C         18.1080  -20.8480  -11.0080 C.3     1  UNL1        0.0250
      6  C         19.0120  -21.2910  -12.1370 C.3     1  UNL1        0.0420
      7  C         20.3100  -21.7960  -11.5720 C.2     1  UNL1       -0.0300
      8  C         21.4670  -21.6860  -12.3680 C.2     1  UNL1        0.0260
      9  C         22.7040  -22.1330  -11.9000 C.2     1  UNL1        0.0330
     10  C         22.7920  -22.6610  -10.6130 C.2     1  UNL1        0.0190
     11  C         21.6390  -22.7870   -9.8260 C.2     1  UNL1        0.0310
     12  C         20.3750  -22.3940  -10.2950 C.2     1  UNL1        0.0430
     13  C         23.8990  -21.9920  -12.7800 C.2     1  UNL1        0.2560
     14  O         24.8580  -22.7250  -12.5720 O.2     1  UNL1       -0.2670
     15  N         23.8020  -20.9940  -13.7310 N.am    1  UNL1       -0.3230
     16  H         22.9920  -20.3890  -13.6820 H       1  UNL1        0.1690
     17  C         24.7500  -20.6550  -14.7200 C.2     1  UNL1        0.0350
     18  C         25.5820  -19.5580  -14.4560 C.2     1  UNL1        0.0290
     19  C         26.5470  -19.1590  -15.3820 C.2     1  UNL1        0.0030
     20  C         26.6880  -19.8480  -16.5850 C.2     1  UNL1        0.0070
     21  C         25.8560  -20.9330  -16.8740 C.2     1  UNL1       -0.0600
     22  C         26.0210  -21.7000  -18.1530 C.3     1  UNL1        0.0480
     23  C         24.8970  -21.3360  -15.9290 C.2     1  UNL1        0.0360
     24  C         17.9160  -23.4450   -7.5640 C.2     1  UNL1        0.0320
     25  C         17.7960  -22.5410   -6.5040 C.2     1  UNL1        0.0170
     26  C         16.6510  -22.5660   -5.7070 C.2     1  UNL1        0.0070
     27  C         15.6280  -23.4910   -5.9620 C.2     1  UNL1       -0.0620
     28  C         14.4150  -23.5400   -5.0790 C.3     1  UNL1        0.0480
     29  C         15.7790  -24.4150   -7.0060 C.2     1  UNL1        0.0070
     30  C         16.9230  -24.3960   -7.8060 C.2     1  UNL1        0.0170
@<TRIPOS>BOND
     1    22    21    1
     2    21    20    2
     3    21    23    1
     4    20    19    1
     5    23    17    2
     6    19    18    2
     7    17    18    1
     8    17    15    1
     9    15    16    1
    10    15    13   am
    11    13    14    2
    12    13     9    1
    13     8     9    1
    14     8     7    2
    15     6     7    1
    16     6     5    1
    17     9    10    2
    18     7    12    1
    19     5     4    1
    20    10    11    1
    21    12    11    2
    22    12     3    1
    23     4     3    1
    24     3     1   am
    25     1     2    2
    26     1    24    1
    27    30    24    2
    28    30    29    1
    29    24    25    1
    30    29    27    2
    31    25    26    2
    32    27    26    1
    33    27    28    1
