@<TRIPOS>MOLECULE
41192_out_ligand_01.pdbqt
 29 32 0 0 0
SMALL
GASTEIGER

@<TRIPOS>ATOM
      1  C         17.9060  -22.9030   -9.2860 C.2     1  UNL1        0.2580
      2  O         17.1960  -22.6870  -10.2660 O.2     1  UNL1       -0.2670
      3  N         19.3010  -23.0940   -9.2990 N.am    1  UNL1       -0.3130
      4  C         19.9650  -23.8240   -8.2090 C.3     1  UNL1        0.1330
      5  C         21.0630  -24.7450   -8.7070 C.3     1  UNL1        0.0250
      6  C         22.1170  -23.9210   -9.4190 C.3     1  UNL1        0.0420
      7  C         21.4910  -23.0190  -10.4490 C.2     1  UNL1       -0.0300
      8  C         22.3180  -22.5310  -11.4800 C.2     1  UNL1        0.0260
      9  C         21.8130  -21.6820  -12.4670 C.2     1  UNL1        0.0320
     10  C         20.4790  -21.2850  -12.4000 C.2     1  UNL1        0.0190
     11  C         19.6560  -21.7560  -11.3670 C.2     1  UNL1        0.0310
     12  C         20.1340  -22.6340  -10.3810 C.2     1  UNL1        0.0430
     13  C         22.7330  -21.1990  -13.5340 C.2     1  UNL1        0.2520
     14  O         22.4120  -20.2470  -14.2360 O.2     1  UNL1       -0.2680
     15  N         23.9370  -21.8570  -13.6440 N.am    1  UNL1       -0.3510
     16  H         24.2450  -22.4450  -12.8830 H       1  UNL1        0.1630
     17  C         24.9730  -21.3790  -14.5330 C.3     1  UNL1        0.1870
     18  C         24.7680  -21.9960  -15.8660 C.2     1  UNL1        0.0700
     19  C         24.6780  -23.3030  -16.2990 C.2     1  UNL1        0.0360
     20  C         24.4650  -23.2440  -17.6980 C.2     1  UNL1        0.0270
     21  C         24.4330  -21.9090  -18.0260 C.2     1  UNL1        0.1420
     22  O         24.6140  -21.1420  -16.9200 O.2     1  UNL1       -0.3250
     23  C         17.2020  -22.9760   -7.9810 C.2     1  UNL1        0.0320
     24  C         17.4700  -22.0430   -6.9750 C.2     1  UNL1        0.0170
     25  C         16.7840  -22.1140   -5.7620 C.2     1  UNL1        0.0070
     26  C         15.8220  -23.1110   -5.5480 C.2     1  UNL1       -0.0620
     27  C         15.0590  -23.1630   -4.2580 C.3     1  UNL1        0.0480
     28  C         15.5310  -24.0160   -6.5800 C.2     1  UNL1        0.0070
     29  C         16.2160  -23.9480   -7.7940 C.2     1  UNL1        0.0170
@<TRIPOS>BOND
     1    21    20    2
     2    21    22    1
     3    20    19    1
     4    22    18    1
     5    19    18    2
     6    18    17    1
     7    17    15    1
     8    14    13    2
     9    15    13   am
    10    15    16    1
    11    13     9    1
    12     9    10    2
    13     9     8    1
    14    10    11    1
    15     8     7    2
    16    11    12    2
    17     7    12    1
    18     7     6    1
    19    12     3    1
    20     2     1    2
    21     6     5    1
    22     3     1   am
    23     3     4    1
    24     1    23    1
    25     5     4    1
    26    23    29    2
    27    23    24    1
    28    29    28    1
    29    24    25    2
    30    28    26    2
    31    25    26    1
    32    26    27    1
