@<TRIPOS>MOLECULE
41193_out_ligand_01.pdbqt
 29 32 0 0 0
SMALL
GASTEIGER

@<TRIPOS>ATOM
      1  C         17.7590  -22.9100   -9.3290 C.2     1  UNL1        0.2580
      2  O         17.1040  -22.6270  -10.3390 O.2     1  UNL1       -0.2670
      3  N         19.1480  -23.1480   -9.2740 N.am    1  UNL1       -0.3130
      4  C         19.7150  -24.0040   -8.2210 C.3     1  UNL1        0.1330
      5  C         20.8210  -24.9170   -8.7290 C.3     1  UNL1        0.0250
      6  C         21.9400  -24.0700   -9.2950 C.3     1  UNL1        0.0420
      7  C         21.3990  -23.0900  -10.3050 C.2     1  UNL1       -0.0300
      8  C         22.2880  -22.5950  -11.2820 C.2     1  UNL1        0.0260
      9  C         21.8510  -21.6970  -12.2580 C.2     1  UNL1        0.0320
     10  C         20.5340  -21.2400  -12.2270 C.2     1  UNL1        0.0190
     11  C         19.6540  -21.7110  -11.2420 C.2     1  UNL1        0.0310
     12  C         20.0530  -22.6580  -10.2810 C.2     1  UNL1        0.0430
     13  C         22.8120  -21.2280  -13.2860 C.2     1  UNL1        0.2510
     14  O         22.4110  -20.5810  -14.2480 O.2     1  UNL1       -0.2680
     15  N         24.1380  -21.5400  -13.0490 N.am    1  UNL1       -0.3540
     16  H         24.4030  -21.9200  -12.1460 H       1  UNL1        0.1620
     17  C         25.1970  -21.0940  -13.9360 C.3     1  UNL1        0.1550
     18  C         25.7360  -22.2290  -14.8190 C.3     1  UNL1        0.1390
     19  C         25.4650  -23.6100  -14.2360 C.3     1  UNL1        0.0350
     20  C         25.4010  -24.4600  -15.4870 C.3     1  UNL1        0.0290
     21  C         24.6640  -23.5410  -16.4390 C.3     1  UNL1        0.1680
     22  O         25.1080  -22.2110  -16.1270 O.3     1  UNL1       -0.3840
     23  C         16.9800  -23.0300   -8.0690 C.2     1  UNL1        0.0320
     24  C         17.1350  -22.0510   -7.0790 C.2     1  UNL1        0.0170
     25  C         16.4260  -22.1560   -5.8830 C.2     1  UNL1        0.0070
     26  C         15.5670  -23.2390   -5.6610 C.2     1  UNL1       -0.0620
     27  C         14.8380  -23.3620   -4.3570 C.3     1  UNL1        0.0480
     28  C         15.4540  -24.2400   -6.6360 C.2     1  UNL1        0.0070
     29  C         16.1590  -24.1390   -7.8360 C.2     1  UNL1        0.0170
@<TRIPOS>BOND
     1    21    22    1
     2    21    20    1
     3    22    18    1
     4    20    19    1
     5    18    19    1
     6    18    17    1
     7    14    13    2
     8    17    15    1
     9    13    15   am
    10    13     9    1
    11    15    16    1
    12     9    10    2
    13     9     8    1
    14    10    11    1
    15     8     7    2
    16    11    12    2
    17     2     1    2
    18     7    12    1
    19     7     6    1
    20    12     3    1
    21     1     3   am
    22     1    23    1
    23     6     5    1
    24     3     4    1
    25     5     4    1
    26    23    29    2
    27    23    24    1
    28    29    28    1
    29    24    25    2
    30    28    26    2
    31    25    26    1
    32    26    27    1
