@<TRIPOS>MOLECULE
41195_out_ligand_01.pdbqt
 30 33 0 0 0
SMALL
GASTEIGER

@<TRIPOS>ATOM
      1  C         17.8000  -22.8140   -9.2160 C.2     1  UNL1        0.2580
      2  O         17.1010  -22.5320  -10.1870 O.2     1  UNL1       -0.2670
      3  N         19.1860  -23.0580   -9.2370 N.am    1  UNL1       -0.3130
      4  C         19.8200  -23.8590   -8.1800 C.3     1  UNL1        0.1330
      5  C         20.8740  -24.8090   -8.7210 C.3     1  UNL1        0.0250
      6  C         21.9600  -24.0080   -9.4070 C.3     1  UNL1        0.0420
      7  C         21.3700  -23.0410  -10.4000 C.2     1  UNL1       -0.0300
      8  C         22.2100  -22.5620  -11.4240 C.2     1  UNL1        0.0260
      9  C         21.7360  -21.6580  -12.3760 C.2     1  UNL1        0.0330
     10  C         20.4260  -21.1900  -12.2770 C.2     1  UNL1        0.0190
     11  C         19.5910  -21.6540  -11.2510 C.2     1  UNL1        0.0310
     12  C         20.0350  -22.5930  -10.3050 C.2     1  UNL1        0.0430
     13  C         22.6580  -21.1960  -13.4520 C.2     1  UNL1        0.2560
     14  O         22.2840  -20.2840  -14.1780 O.2     1  UNL1       -0.2670
     15  N         23.8800  -21.8440  -13.4790 N.am    1  UNL1       -0.3220
     16  H         24.0640  -22.4790  -12.7160 H       1  UNL1        0.1690
     17  C         24.9440  -21.6570  -14.3940 C.2     1  UNL1        0.0410
     18  C         24.9410  -22.2260  -15.6730 C.2     1  UNL1        0.0300
     19  C         26.0080  -22.0250  -16.5540 C.2     1  UNL1        0.0020
     20  C         27.0960  -21.2540  -16.1660 C.2     1  UNL1        0.0010
     21  C         27.1200  -20.6850  -14.8950 C.2     1  UNL1        0.0090
     22  C         26.0550  -20.8780  -13.9960 C.2     1  UNL1       -0.0350
     23  C         26.1450  -20.2340  -12.6390 C.3     1  UNL1        0.0500
     24  C         17.0900  -22.9150   -7.9160 C.2     1  UNL1        0.0320
     25  C         17.4460  -22.0480   -6.8790 C.2     1  UNL1        0.0170
     26  C         16.7990  -22.1410   -5.6460 C.2     1  UNL1        0.0070
     27  C         15.8160  -23.1170   -5.4310 C.2     1  UNL1       -0.0620
     28  C         15.1010  -23.2030   -4.1150 C.3     1  UNL1        0.0480
     29  C         15.4770  -23.9910   -6.4730 C.2     1  UNL1        0.0070
     30  C         16.1200  -23.9010   -7.7090 C.2     1  UNL1        0.0170
@<TRIPOS>BOND
     1    19    20    2
     2    19    18    1
     3    20    21    1
     4    18    17    2
     5    21    22    2
     6    17    22    1
     7    17    15    1
     8    14    13    2
     9    22    23    1
    10    15    13   am
    11    15    16    1
    12    13     9    1
    13     9    10    2
    14     9     8    1
    15    10    11    1
    16     8     7    2
    17    11    12    2
    18     7    12    1
    19     7     6    1
    20    12     3    1
    21     2     1    2
    22     6     5    1
    23     3     1   am
    24     3     4    1
    25     1    24    1
    26     5     4    1
    27    24    30    2
    28    24    25    1
    29    30    29    1
    30    25    26    2
    31    29    27    2
    32    26    27    1
    33    27    28    1
