@<TRIPOS>MOLECULE
41199_out_ligand_01.pdbqt
 31 34 0 0 0
SMALL
GASTEIGER

@<TRIPOS>ATOM
      1  C         20.0200  -23.6130   -8.6940 C.2     1  UNL1        0.2580
      2  O         20.7420  -24.6080   -8.6350 O.2     1  UNL1       -0.2670
      3  N         19.9910  -22.6740   -9.7420 N.am    1  UNL1       -0.3130
      4  C         18.8000  -21.8400   -9.9660 C.3     1  UNL1        0.1330
      5  C         18.4700  -21.6780  -11.4380 C.3     1  UNL1        0.0250
      6  C         19.6360  -21.0110  -12.1370 C.3     1  UNL1        0.0420
      7  C         20.9280  -21.7160  -11.8230 C.2     1  UNL1       -0.0300
      8  C         22.0080  -21.5280  -12.7080 C.2     1  UNL1        0.0260
      9  C         23.2400  -22.1420  -12.4760 C.2     1  UNL1        0.0330
     10  C         23.4100  -22.9130  -11.3270 C.2     1  UNL1        0.0190
     11  C         22.3430  -23.0910  -10.4380 C.2     1  UNL1        0.0310
     12  C         21.0840  -22.5140  -10.6680 C.2     1  UNL1        0.0430
     13  C         24.3460  -21.9230  -13.4500 C.2     1  UNL1        0.2560
     14  O         25.4970  -22.0630  -13.0550 O.2     1  UNL1       -0.2670
     15  N         23.9340  -21.5360  -14.7130 N.am    1  UNL1       -0.3220
     16  H         22.9500  -21.3340  -14.8160 H       1  UNL1        0.1690
     17  C         24.7330  -21.3010  -15.8570 C.2     1  UNL1        0.0410
     18  C         25.4450  -20.1080  -16.0420 C.2     1  UNL1        0.0370
     19  C         26.2440  -19.8990  -17.1770 C.2     1  UNL1       -0.0600
     20  C         26.9650  -18.5960  -17.3610 C.3     1  UNL1        0.0480
     21  C         26.3110  -20.8930  -18.1530 C.2     1  UNL1        0.0070
     22  C         25.6140  -22.0880  -17.9840 C.2     1  UNL1        0.0090
     23  C         24.8250  -22.3090  -16.8410 C.2     1  UNL1       -0.0350
     24  C         24.1000  -23.6230  -16.7240 C.3     1  UNL1        0.0500
     25  C         19.0960  -23.4180   -7.5510 C.2     1  UNL1        0.0320
     26  C         19.2280  -22.3080   -6.7100 C.2     1  UNL1        0.0170
     27  C         18.3600  -22.1510   -5.6280 C.2     1  UNL1        0.0070
     28  C         17.3610  -23.1020   -5.3760 C.2     1  UNL1       -0.0620
     29  C         16.4540  -22.9510   -4.1900 C.3     1  UNL1        0.0480
     30  C         17.2640  -24.2310   -6.2010 C.2     1  UNL1        0.0070
     31  C         18.1300  -24.3920   -7.2840 C.2     1  UNL1        0.0170
@<TRIPOS>BOND
     1    21    22    2
     2    21    19    1
     3    22    23    1
     4    20    19    1
     5    19    18    2
     6    23    24    1
     7    23    17    2
     8    18    17    1
     9    17    15    1
    10    16    15    1
    11    15    13   am
    12    13    14    2
    13    13     9    1
    14     8     9    1
    15     8     7    2
    16     9    10    2
    17     6     7    1
    18     6     5    1
    19     7    12    1
    20     5     4    1
    21    10    11    1
    22    12    11    2
    23    12     3    1
    24     4     3    1
    25     3     1   am
    26     1     2    2
    27     1    25    1
    28    25    31    2
    29    25    26    1
    30    31    30    1
    31    26    27    2
    32    30    28    2
    33    27    28    1
    34    28    29    1
