@<TRIPOS>MOLECULE
41191_out_ligand_01.pdbqt
 30 33 0 0 0
SMALL
GASTEIGER

@<TRIPOS>ATOM
      1  C         22.6590  -22.1790  -11.8790 C.2     1  UNL1        0.0330
      2  C         22.7050  -23.0020  -10.7560 C.2     1  UNL1        0.0190
      3  C         21.5600  -23.1820   -9.9680 C.2     1  UNL1        0.0310
      4  C         20.3360  -22.5720  -10.2870 C.2     1  UNL1        0.0430
      5  C         20.2940  -21.7590  -11.4420 C.2     1  UNL1       -0.0300
      6  C         21.4510  -21.5670  -12.2220 C.2     1  UNL1        0.0260
      7  C         19.0420  -21.0420  -11.8710 C.3     1  UNL1        0.0420
      8  C         17.8120  -21.7050  -11.2890 C.3     1  UNL1        0.0250
      9  C         18.0040  -21.8780   -9.7940 C.3     1  UNL1        0.1330
     10  N         19.1580  -22.7290   -9.4650 N.am    1  UNL1       -0.3130
     11  C         19.0960  -23.6390   -8.3920 C.2     1  UNL1        0.2610
     12  O         19.8350  -24.6060   -8.2140 O.2     1  UNL1       -0.2670
     13  C         23.8510  -21.9440  -12.7430 C.2     1  UNL1        0.2560
     14  N         23.6270  -21.1250  -13.8350 N.am    1  UNL1       -0.3230
     15  H         22.6720  -20.8460  -14.0120 H       1  UNL1        0.1690
     16  O         24.8980  -22.5090  -12.4490 O.2     1  UNL1       -0.2670
     17  C         24.5690  -20.7000  -14.7960 C.2     1  UNL1        0.0350
     18  C         24.7900  -21.3470  -16.0120 C.2     1  UNL1        0.0290
     19  C         25.7530  -20.8680  -16.9040 C.2     1  UNL1        0.0030
     20  C         26.5050  -19.7370  -16.5890 C.2     1  UNL1        0.0070
     21  C         26.2920  -19.0670  -15.3820 C.2     1  UNL1       -0.0600
     22  C         27.1210  -17.8710  -15.0190 C.3     1  UNL1        0.0480
     23  C         25.3320  -19.5640  -14.4860 C.2     1  UNL1        0.0360
     24  C         18.0270  -23.4850   -7.3840 C.2     1  UNL1        0.0710
     25  C         16.8650  -24.2580   -7.5000 C.2     1  UNL1        0.0200
     26  C         15.8590  -24.1460   -6.5390 C.2     1  UNL1        0.0010
     27  C         16.0200  -23.2790   -5.4560 C.2     1  UNL1        0.0030
     28  C         17.1900  -22.5290   -5.3270 C.2     1  UNL1        0.0430
     29  C         18.1910  -22.6410   -6.2880 C.2     1  UNL1        0.1320
     30  F         19.3130  -21.9210   -6.1350 F       1  UNL1       -0.2050
@<TRIPOS>BOND
     1    19    20    2
     2    19    18    1
     3    20    21    1
     4    18    17    2
     5    21    22    1
     6    21    23    2
     7    17    23    1
     8    17    14    1
     9    15    14    1
    10    14    13   am
    11    13    16    2
    12    13     1    1
    13     6     1    2
    14     6     5    1
    15     1     2    1
    16     7     5    1
    17     7     8    1
    18     5     4    2
    19     8     9    1
    20     2     3    2
    21     4     3    1
    22     4    10    1
    23     9    10    1
    24    10    11   am
    25    11    12    2
    26    11    24    1
    27    25    24    2
    28    25    26    1
    29    24    29    1
    30    26    27    2
    31    29    30    1
    32    29    28    2
    33    27    28    1
