@<TRIPOS>MOLECULE
41190_out_ligand_01.pdbqt
 30 33 0 0 0
SMALL
GASTEIGER

@<TRIPOS>ATOM
      1  C         23.2590  -22.1350  -12.5010 C.2     1  UNL1        0.0330
      2  C         23.4200  -22.9500  -11.3810 C.2     1  UNL1        0.0190
      3  C         22.3580  -23.1310  -10.4840 C.2     1  UNL1        0.0310
      4  C         21.1040  -22.5320  -10.6870 C.2     1  UNL1        0.0430
      5  C         20.9440  -21.7290  -11.8390 C.2     1  UNL1       -0.0300
      6  C         22.0190  -21.5360  -12.7300 C.2     1  UNL1        0.0260
      7  C         19.6510  -21.0240  -12.1500 C.3     1  UNL1        0.0420
      8  C         18.4890  -21.6910  -11.4470 C.3     1  UNL1        0.0250
      9  C         18.8260  -21.8490   -9.9760 C.3     1  UNL1        0.1330
     10  N         20.0130  -22.6890   -9.7530 N.am    1  UNL1       -0.3130
     11  C         20.0630  -23.5900   -8.6720 C.2     1  UNL1        0.2610
     12  O         20.8240  -24.5490   -8.5560 O.2     1  UNL1       -0.2670
     13  C         24.3610  -21.9000  -13.4770 C.2     1  UNL1        0.2560
     14  N         23.9430  -21.5940  -14.7600 N.am    1  UNL1       -0.3220
     15  H         22.9510  -21.6670  -14.9350 H       1  UNL1        0.1690
     16  O         25.5140  -22.0340  -13.0850 O.2     1  UNL1       -0.2670
     17  C         24.7440  -21.2770  -15.8830 C.2     1  UNL1        0.0410
     18  C         25.4560  -20.0760  -15.9820 C.2     1  UNL1        0.0300
     19  C         26.2340  -19.7890  -17.1070 C.2     1  UNL1        0.0020
     20  C         26.3100  -20.7000  -18.1530 C.2     1  UNL1        0.0010
     21  C         25.6050  -21.8980  -18.0760 C.2     1  UNL1        0.0090
     22  C         24.8170  -22.2020  -16.9500 C.2     1  UNL1       -0.0350
     23  C         24.0810  -23.5150  -16.9320 C.3     1  UNL1        0.0500
     24  C         19.0960  -23.4340   -7.5660 C.2     1  UNL1        0.0710
     25  C         18.0580  -24.3640   -7.4320 C.2     1  UNL1        0.0200
     26  C         17.1540  -24.2480   -6.3740 C.2     1  UNL1        0.0010
     27  C         17.2950  -23.2160   -5.4430 C.2     1  UNL1        0.0030
     28  C         18.3440  -22.3040   -5.5640 C.2     1  UNL1        0.0430
     29  C         19.2450  -22.4210   -6.6200 C.2     1  UNL1        0.1320
     30  F         20.2540  -21.5430   -6.7060 F       1  UNL1       -0.2050
@<TRIPOS>BOND
     1    20    21    2
     2    20    19    1
     3    21    22    1
     4    19    18    2
     5    22    23    1
     6    22    17    2
     7    18    17    1
     8    17    14    1
     9    15    14    1
    10    14    13   am
    11    13    16    2
    12    13     1    1
    13     6     1    2
    14     6     5    1
    15     1     2    1
    16     7     5    1
    17     7     8    1
    18     5     4    2
    19     8     9    1
    20     2     3    2
    21     4     3    1
    22     4    10    1
    23     9    10    1
    24    10    11   am
    25    11    12    2
    26    11    24    1
    27    24    25    2
    28    24    29    1
    29    25    26    1
    30    30    29    1
    31    29    28    2
    32    26    27    2
    33    28    27    1
