@<TRIPOS>MOLECULE
41207_out_ligand_01.pdbqt
 31 34 0 0 0
SMALL
GASTEIGER

@<TRIPOS>ATOM
      1  C         22.2290  -22.1850  -11.6680 C.2     1  UNL1        0.0330
      2  C         22.3060  -22.6410  -10.3530 C.2     1  UNL1        0.0190
      3  C         21.1430  -22.7400   -9.5770 C.2     1  UNL1        0.0310
      4  C         19.8820  -22.3890  -10.0840 C.2     1  UNL1        0.0430
      5  C         19.8280  -21.8600  -11.3900 C.2     1  UNL1       -0.0300
      6  C         20.9940  -21.7800  -12.1770 C.2     1  UNL1        0.0260
      7  C         18.5320  -21.3980  -11.9980 C.3     1  UNL1        0.0420
      8  C         17.6110  -20.9060  -10.9030 C.3     1  UNL1        0.0250
      9  C         17.4270  -22.0070   -9.8760 C.3     1  UNL1        0.1330
     10  N         18.6790  -22.5160   -9.2930 N.am    1  UNL1       -0.3130
     11  C         18.6280  -23.3580   -8.1590 C.2     1  UNL1        0.2610
     12  O         19.4860  -24.1640   -7.8050 O.2     1  UNL1       -0.2670
     13  C         23.4340  -22.0770  -12.5390 C.2     1  UNL1        0.2560
     14  N         23.2330  -21.3900  -13.7230 N.am    1  UNL1       -0.3230
     15  H         22.3360  -20.9390  -13.8440 H       1  UNL1        0.1690
     16  O         24.4850  -22.5590  -12.1340 O.2     1  UNL1       -0.2670
     17  C         24.1690  -21.1620  -14.7540 C.2     1  UNL1        0.0350
     18  C         25.0020  -20.0480  -14.6250 C.2     1  UNL1        0.0300
     19  C         25.9510  -19.7490  -15.6050 C.2     1  UNL1        0.0090
     20  C         26.0880  -20.5590  -16.7410 C.2     1  UNL1       -0.0560
     21  C         27.1210  -20.2110  -17.7770 C.3     1  UNL1        0.0490
     22  C         25.2530  -21.6830  -16.8810 C.2     1  UNL1       -0.0540
     23  C         24.3000  -21.9700  -15.8850 C.2     1  UNL1        0.0370
     24  C         25.3520  -22.5870  -18.0810 C.3     1  UNL1        0.0490
     25  C         17.4140  -23.3470   -7.3240 C.2     1  UNL1        0.0710
     26  C         16.4520  -24.3480   -7.4990 C.2     1  UNL1        0.0200
     27  C         15.3190  -24.3640   -6.6820 C.2     1  UNL1        0.0010
     28  C         15.1580  -23.3970   -5.6870 C.2     1  UNL1        0.0030
     29  C         16.1330  -22.4140   -5.5000 C.2     1  UNL1        0.0430
     30  C         17.2620  -22.3990   -6.3150 C.2     1  UNL1        0.1320
     31  F         18.1870  -21.4480   -6.1210 F       1  UNL1       -0.2050
@<TRIPOS>BOND
     1    24    22    1
     2    21    20    1
     3    22    20    2
     4    22    23    1
     5    20    19    1
     6    23    17    2
     7    19    18    2
     8    17    18    1
     9    17    14    1
    10    15    14    1
    11    14    13   am
    12    13    16    2
    13    13     1    1
    14     6     1    2
    15     6     5    1
    16     7     5    1
    17     7     8    1
    18     1     2    1
    19     5     4    2
    20     8     9    1
    21     2     3    2
    22     4     3    1
    23     4    10    1
    24     9    10    1
    25    10    11   am
    26    11    12    2
    27    11    25    1
    28    26    25    2
    29    26    27    1
    30    25    30    1
    31    27    28    2
    32    30    31    1
    33    30    29    2
    34    28    29    1
