@<TRIPOS>MOLECULE
41200_out_ligand_01.pdbqt
 31 34 0 0 0
SMALL
GASTEIGER

@<TRIPOS>ATOM
      1  C         20.2470  -23.4340   -8.6360 C.2     1  UNL1        0.2580
      2  O         21.0940  -24.3020   -8.4470 O.2     1  UNL1       -0.2670
      3  N         20.1950  -22.5190   -9.7120 N.am    1  UNL1       -0.3130
      4  C         18.9000  -21.9370  -10.0990 C.3     1  UNL1        0.1330
      5  C         18.9990  -20.7770  -11.0720 C.3     1  UNL1        0.0250
      6  C         19.7550  -21.2260  -12.3030 C.3     1  UNL1        0.0420
      7  C         21.0950  -21.7750  -11.8980 C.2     1  UNL1       -0.0300
      8  C         22.1540  -21.6840  -12.8220 C.2     1  UNL1        0.0260
      9  C         23.4240  -22.1690  -12.5050 C.2     1  UNL1        0.0330
     10  C         23.6440  -22.7220  -11.2450 C.2     1  UNL1        0.0190
     11  C         22.5870  -22.8290  -10.3320 C.2     1  UNL1        0.0310
     12  C         21.2900  -22.3940  -10.6450 C.2     1  UNL1        0.0430
     13  C         24.5170  -22.0480  -13.5140 C.2     1  UNL1        0.2560
     14  O         25.6490  -22.3910  -13.1940 O.2     1  UNL1       -0.2670
     15  N         24.1380  -21.4640  -14.7090 N.am    1  UNL1       -0.3220
     16  H         23.3180  -20.8770  -14.6440 H       1  UNL1        0.1690
     17  C         24.9690  -21.2400  -15.8360 C.2     1  UNL1        0.0460
     18  C         25.8260  -20.1250  -15.9610 C.2     1  UNL1       -0.0350
     19  C         26.0420  -19.0900  -14.8880 C.3     1  UNL1        0.0500
     20  C         26.5800  -19.9670  -17.1400 C.2     1  UNL1        0.0090
     21  C         26.5430  -20.9190  -18.1530 C.2     1  UNL1        0.0010
     22  C         25.7550  -22.0510  -18.0020 C.2     1  UNL1        0.0090
     23  C         24.9680  -22.2300  -16.8520 C.2     1  UNL1       -0.0350
     24  C         24.1160  -23.4710  -16.7700 C.3     1  UNL1        0.0500
     25  C         19.1690  -23.3780   -7.6250 C.2     1  UNL1        0.0320
     26  C         18.2470  -24.4250   -7.5510 C.2     1  UNL1        0.0170
     27  C         17.2380  -24.3860   -6.5880 C.2     1  UNL1        0.0070
     28  C         17.1620  -23.3160   -5.6830 C.2     1  UNL1       -0.0620
     29  C         16.0580  -23.2630   -4.6670 C.3     1  UNL1        0.0480
     30  C         18.0980  -22.2760   -5.7630 C.2     1  UNL1        0.0070
     31  C         19.1100  -22.3110   -6.7240 C.2     1  UNL1        0.0170
@<TRIPOS>BOND
     1    21    22    2
     2    21    20    1
     3    22    23    1
     4    20    18    2
     5    23    24    1
     6    23    17    2
     7    18    17    1
     8    18    19    1
     9    17    15    1
    10    15    16    1
    11    15    13   am
    12    13    14    2
    13    13     9    1
    14     8     9    1
    15     8     7    2
    16     9    10    2
    17     6     7    1
    18     6     5    1
    19     7    12    1
    20    10    11    1
    21     5     4    1
    22    12    11    2
    23    12     3    1
    24     4     3    1
    25     3     1   am
    26     1     2    2
    27     1    25    1
    28    25    26    2
    29    25    31    1
    30    26    27    1
    31    31    30    2
    32    27    28    2
    33    30    28    1
    34    28    29    1
