@<TRIPOS>MOLECULE
41208_out_ligand_01.pdbqt
 31 34 0 0 0
SMALL
GASTEIGER

@<TRIPOS>ATOM
      1  C         21.4280  -21.8360  -11.9670 C.2     1  UNL1        0.0330
      2  C         21.7510  -22.5590  -10.8190 C.2     1  UNL1        0.0190
      3  C         20.7670  -22.8270   -9.8590 C.2     1  UNL1        0.0310
      4  C         19.4420  -22.3880  -10.0140 C.2     1  UNL1        0.0430
      5  C         19.1310  -21.6350  -11.1680 C.2     1  UNL1       -0.0300
      6  C         20.1270  -21.3560  -12.1250 C.2     1  UNL1        0.0260
      7  C         17.7570  -21.0680  -11.4060 C.3     1  UNL1        0.0420
      8  C         16.7120  -21.8240  -10.6140 C.3     1  UNL1        0.0250
      9  C         17.1580  -21.9210   -9.1670 C.3     1  UNL1        0.1330
     10  N         18.4280  -22.6460   -9.0200 N.am    1  UNL1       -0.3130
     11  C         18.6250  -23.5550   -7.9620 C.2     1  UNL1        0.2610
     12  O         19.4620  -24.4570   -7.9310 O.2     1  UNL1       -0.2670
     13  C         22.4420  -21.5270  -13.0150 C.2     1  UNL1        0.2560
     14  N         23.6330  -22.2160  -12.8850 N.am    1  UNL1       -0.3220
     15  H         23.6560  -22.9290  -12.1710 H       1  UNL1        0.1690
     16  O         22.1300  -20.7420  -13.9030 O.2     1  UNL1       -0.2670
     17  C         24.7980  -22.1020  -13.6830 C.2     1  UNL1        0.0410
     18  C         24.9060  -22.7220  -14.9330 C.2     1  UNL1        0.0300
     19  C         26.0570  -22.5840  -15.7130 C.2     1  UNL1        0.0020
     20  C         27.1190  -21.8140  -15.2570 C.2     1  UNL1        0.0010
     21  C         27.0300  -21.1860  -14.0180 C.2     1  UNL1        0.0090
     22  C         25.8810  -21.3210  -13.2140 C.2     1  UNL1       -0.0320
     23  C         25.8740  -20.5950  -11.8850 C.3     1  UNL1        0.0360
     24  C         26.7770  -19.3700  -11.8970 C.3     1  UNL1        0.0100
     25  C         17.7340  -23.4880   -6.7850 C.2     1  UNL1        0.0710
     26  C         18.0980  -22.6800   -5.7010 C.2     1  UNL1        0.0200
     27  C         17.2520  -22.5820   -4.5950 C.2     1  UNL1        0.0010
     28  C         16.0380  -23.2720   -4.5780 C.2     1  UNL1        0.0030
     29  C         15.6650  -24.0570   -5.6710 C.2     1  UNL1        0.0430
     30  C         16.5100  -24.1550   -6.7730 C.2     1  UNL1        0.1320
     31  F         16.1210  -24.9010   -7.8150 F       1  UNL1       -0.2050
@<TRIPOS>BOND
     1    19    20    2
     2    19    18    1
     3    20    21    1
     4    18    17    2
     5    21    22    2
     6    16    13    2
     7    17    22    1
     8    17    14    1
     9    22    23    1
    10    13    14   am
    11    13     1    1
    12    14    15    1
    13     6     1    2
    14     6     5    1
    15     1     2    1
    16    24    23    1
    17     7     5    1
    18     7     8    1
    19     5     4    2
    20     2     3    2
    21     8     9    1
    22     4     3    1
    23     4    10    1
    24     9    10    1
    25    10    11   am
    26    11    12    2
    27    11    25    1
    28    31    30    1
    29    25    30    2
    30    25    26    1
    31    30    29    1
    32    26    27    2
    33    29    28    2
    34    27    28    1
