@<TRIPOS>MOLECULE
41206_out_ligand_01.pdbqt
 31 34 0 0 0
SMALL
GASTEIGER

@<TRIPOS>ATOM
      1  C         23.4430  -22.2800  -12.4400 C.2     1  UNL1        0.0330
      2  C         23.5590  -23.0900  -11.3120 C.2     1  UNL1        0.0190
      3  C         22.4760  -23.2330  -10.4330 C.2     1  UNL1        0.0310
      4  C         21.2460  -22.5960  -10.6610 C.2     1  UNL1        0.0430
      5  C         21.1320  -21.7940  -11.8200 C.2     1  UNL1       -0.0300
      6  C         22.2280  -21.6400  -12.6920 C.2     1  UNL1        0.0260
      7  C         19.8680  -21.0490  -12.1550 C.3     1  UNL1        0.0420
      8  C         18.6730  -21.6750  -11.4700 C.3     1  UNL1        0.0250
      9  C         18.9790  -21.8370   -9.9930 C.3     1  UNL1        0.1330
     10  N         20.1340  -22.7140   -9.7460 N.am    1  UNL1       -0.3130
     11  C         20.1360  -23.6120   -8.6610 C.2     1  UNL1        0.2610
     12  O         20.8610  -24.5970   -8.5330 O.2     1  UNL1       -0.2670
     13  C         24.5720  -22.0860  -13.3970 C.2     1  UNL1        0.2560
     14  N         24.2020  -21.6050  -14.6410 N.am    1  UNL1       -0.3220
     15  H         23.2370  -21.7800  -14.8850 H       1  UNL1        0.1690
     16  O         25.6960  -22.4280  -13.0510 O.2     1  UNL1       -0.2670
     17  C         25.0690  -21.3190  -15.7250 C.2     1  UNL1        0.0460
     18  C         25.0350  -22.2020  -16.8350 C.2     1  UNL1       -0.0350
     19  C         25.8870  -21.9810  -17.9310 C.2     1  UNL1        0.0090
     20  C         24.1360  -23.4110  -16.8780 C.3     1  UNL1        0.0500
     21  C         26.7590  -20.9000  -17.9430 C.2     1  UNL1        0.0010
     22  C         26.7660  -20.0100  -16.8760 C.2     1  UNL1        0.0090
     23  C         25.9060  -20.1820  -15.7730 C.2     1  UNL1       -0.0350
     24  C         25.9190  -19.0880  -14.7400 C.3     1  UNL1        0.0500
     25  C         19.1560  -23.4190   -7.5720 C.2     1  UNL1        0.0710
     26  C         18.1080  -24.3360   -7.4290 C.2     1  UNL1        0.0200
     27  C         17.1920  -24.1860   -6.3860 C.2     1  UNL1        0.0010
     28  C         17.3330  -23.1330   -5.4780 C.2     1  UNL1        0.0030
     29  C         18.3940  -22.2340   -5.6070 C.2     1  UNL1        0.0430
     30  C         19.3060  -22.3860   -6.6490 C.2     1  UNL1        0.1320
     31  F         20.3240  -21.5200   -6.7420 F       1  UNL1       -0.2050
@<TRIPOS>BOND
     1    21    19    2
     2    21    22    1
     3    19    18    1
     4    20    18    1
     5    22    23    2
     6    18    17    2
     7    23    17    1
     8    23    24    1
     9    17    14    1
    10    15    14    1
    11    14    13   am
    12    13    16    2
    13    13     1    1
    14     6     1    2
    15     6     5    1
    16     1     2    1
    17     7     5    1
    18     7     8    1
    19     5     4    2
    20     8     9    1
    21     2     3    2
    22     4     3    1
    23     4    10    1
    24     9    10    1
    25    10    11   am
    26    11    12    2
    27    11    25    1
    28    25    26    2
    29    25    30    1
    30    26    27    1
    31    31    30    1
    32    30    29    2
    33    27    28    2
    34    29    28    1
