@<TRIPOS>MOLECULE
41204_out_ligand_01.pdbqt
 31 34 0 0 0
SMALL
GASTEIGER

@<TRIPOS>ATOM
      1  C         21.2820  -22.9210  -10.1050 C.2     1  UNL1        0.0330
      2  C         20.9450  -22.1970  -11.2470 C.2     1  UNL1        0.0190
      3  C         21.9390  -21.8320  -12.1640 C.2     1  UNL1        0.0310
      4  C         23.2870  -22.1770  -11.9730 C.2     1  UNL1        0.0430
      5  C         23.6200  -22.8890  -10.8000 C.2     1  UNL1       -0.0300
      6  C         22.6210  -23.2440   -9.8730 C.2     1  UNL1        0.0260
      7  C         25.0410  -23.2600  -10.4670 C.3     1  UNL1        0.0420
      8  C         25.9050  -23.2780  -11.7110 C.3     1  UNL1        0.0250
      9  C         25.7080  -21.9780  -12.4710 C.3     1  UNL1        0.1330
     10  N         24.3170  -21.7870  -12.9060 N.am    1  UNL1       -0.3130
     11  C         24.0220  -21.2620  -14.1780 C.2     1  UNL1        0.2610
     12  O         22.9560  -21.3850  -14.7810 O.2     1  UNL1       -0.2670
     13  C         20.2590  -23.3320   -9.1010 C.2     1  UNL1        0.2560
     14  N         19.3350  -22.3520   -8.7840 N.am    1  UNL1       -0.3220
     15  H         19.3750  -21.5080   -9.3370 H       1  UNL1        0.1690
     16  O         20.2960  -24.4810   -8.6790 O.2     1  UNL1       -0.2670
     17  C         18.2820  -22.4220   -7.8420 C.2     1  UNL1        0.0410
     18  C         18.5070  -22.3800   -6.4610 C.2     1  UNL1        0.0300
     19  C         17.4450  -22.4430   -5.5540 C.2     1  UNL1        0.0090
     20  C         16.1300  -22.5350   -6.0070 C.2     1  UNL1       -0.0610
     21  C         14.9930  -22.6360   -5.0350 C.3     1  UNL1        0.0480
     22  C         15.8950  -22.5870   -7.3850 C.2     1  UNL1        0.0150
     23  C         16.9540  -22.5250   -8.3100 C.2     1  UNL1       -0.0350
     24  C         16.6180  -22.5770   -9.7770 C.3     1  UNL1        0.0500
     25  C         25.0760  -20.5340  -14.9140 C.2     1  UNL1        0.0710
     26  C         25.5210  -19.3000  -14.4210 C.2     1  UNL1        0.0200
     27  C         26.5390  -18.6140  -15.0870 C.2     1  UNL1        0.0010
     28  C         27.1210  -19.1630  -16.2310 C.2     1  UNL1        0.0030
     29  C         26.6930  -20.4040  -16.7070 C.2     1  UNL1        0.0430
     30  C         25.6790  -21.0870  -16.0420 C.2     1  UNL1        0.1320
     31  F         25.2970  -22.2840  -16.5080 F       1  UNL1       -0.2050
@<TRIPOS>BOND
     1    29    28    2
     2    29    30    1
     3    31    30    1
     4    28    27    1
     5    30    25    2
     6    27    26    2
     7    25    26    1
     8    25    11    1
     9    12    11    2
    10    11    10   am
    11    10     9    1
    12    10     4    1
    13     9     8    1
    14     3     4    2
    15     3     2    1
    16     4     5    1
    17     8     7    1
    18     2     1    2
    19     5     7    1
    20     5     6    2
    21     1     6    1
    22     1    13    1
    23    24    23    1
    24    15    14    1
    25    13    14   am
    26    13    16    2
    27    14    17    1
    28    23    17    2
    29    23    22    1
    30    17    18    1
    31    22    20    2
    32    18    19    2
    33    20    19    1
    34    20    21    1
