@<TRIPOS>MOLECULE
41209_out_ligand_01.pdbqt
 30 33 0 0 0
SMALL
GASTEIGER

@<TRIPOS>ATOM
      1  C         21.7040  -21.6060  -12.2700 C.2     1  UNL1        0.0330
      2  C         20.4040  -21.1120  -12.1700 C.2     1  UNL1        0.0190
      3  C         19.5550  -21.5680  -11.1520 C.2     1  UNL1        0.0310
      4  C         19.9630  -22.5390  -10.2230 C.2     1  UNL1        0.0430
      5  C         21.2750  -23.0480  -10.3480 C.2     1  UNL1       -0.0300
      6  C         22.1300  -22.5770  -11.3630 C.2     1  UNL1        0.0260
      7  C         21.8260  -24.0760   -9.3960 C.3     1  UNL1        0.0420
      8  C         20.7110  -24.8380   -8.7140 C.3     1  UNL1        0.0250
      9  C         19.7210  -23.8480   -8.1290 C.3     1  UNL1        0.1330
     10  N         19.1040  -22.9930   -9.1540 N.am    1  UNL1       -0.3130
     11  C         17.7420  -22.6450   -9.0760 C.2     1  UNL1        0.2610
     12  O         17.0410  -22.2350  -10.0000 O.2     1  UNL1       -0.2670
     13  C         22.6510  -21.1500  -13.3280 C.2     1  UNL1        0.2560
     14  O         22.2480  -20.3480  -14.1630 O.2     1  UNL1       -0.2670
     15  N         23.9070  -21.7200  -13.2780 N.am    1  UNL1       -0.3200
     16  H         24.0670  -22.4650  -12.6080 H       1  UNL1        0.1690
     17  C         25.0070  -21.4570  -14.1240 C.2     1  UNL1        0.0730
     18  C         26.0590  -20.5980  -13.8070 C.2     1  UNL1        0.0330
     19  C         27.1110  -20.4070  -14.7120 C.2     1  UNL1        0.0020
     20  C         27.1200  -21.0720  -15.9400 C.2     1  UNL1        0.0030
     21  C         26.0770  -21.9340  -16.2640 C.2     1  UNL1        0.0440
     22  C         25.0360  -22.1190  -15.3580 C.2     1  UNL1        0.1430
     23  F         24.0360  -22.9550  -15.6820 F       1  UNL1       -0.2040
     24  C         17.0320  -22.8180   -7.7900 C.2     1  UNL1        0.0710
     25  C         17.4390  -22.0640   -6.6820 C.2     1  UNL1        0.0200
     26  C         16.7990  -22.2380   -5.4540 C.2     1  UNL1        0.0010
     27  C         15.7690  -23.1720   -5.3270 C.2     1  UNL1        0.0030
     28  C         15.3820  -23.9410   -6.4270 C.2     1  UNL1        0.0430
     29  C         16.0210  -23.7660   -7.6510 C.2     1  UNL1        0.1320
     30  F         15.6420  -24.5270   -8.6880 F       1  UNL1       -0.2050
@<TRIPOS>BOND
     1    21    20    2
     2    21    22    1
     3    20    19    1
     4    23    22    1
     5    22    17    2
     6    19    18    2
     7    14    13    2
     8    17    18    1
     9    17    15    1
    10    13    15   am
    11    13     1    1
    12    15    16    1
    13     1     2    2
    14     1     6    1
    15     2     3    1
    16     6     5    2
    17     3     4    2
    18     5     4    1
    19     5     7    1
    20     4    10    1
    21    12    11    2
    22     7     8    1
    23    10    11   am
    24    10     9    1
    25    11    24    1
    26     8     9    1
    27    30    29    1
    28    24    29    2
    29    24    25    1
    30    29    28    1
    31    25    26    2
    32    28    27    2
    33    26    27    1
