@<TRIPOS>MOLECULE
41205_out_ligand_01.pdbqt
 31 34 0 0 0
SMALL
GASTEIGER

@<TRIPOS>ATOM
      1  C         21.7490  -21.6250  -12.2110 C.2     1  UNL1        0.0330
      2  C         22.2420  -22.1480  -11.0170 C.2     1  UNL1        0.0190
      3  C         21.3820  -22.3490   -9.9310 C.2     1  UNL1        0.0310
      4  C         20.0140  -22.0380  -10.0010 C.2     1  UNL1        0.0430
      5  C         19.5130  -21.5780  -11.2370 C.2     1  UNL1       -0.0300
      6  C         20.3830  -21.3580  -12.3230 C.2     1  UNL1        0.0260
      7  C         18.0520  -21.2790  -11.4310 C.3     1  UNL1        0.0420
      8  C         17.2320  -22.1700  -10.5230 C.3     1  UNL1        0.0250
      9  C         17.6940  -21.9810   -9.0910 C.3     1  UNL1        0.1330
     10  N         19.1300  -22.2220   -8.8730 N.am    1  UNL1       -0.3130
     11  C         19.6270  -22.3210   -7.5560 C.2     1  UNL1        0.2610
     12  O         20.7830  -22.1130   -7.1910 O.2     1  UNL1       -0.2670
     13  C         22.6290  -21.3800  -13.3900 C.2     1  UNL1        0.2560
     14  N         23.7780  -22.1480  -13.4210 N.am    1  UNL1       -0.3220
     15  H         23.9620  -22.7070  -12.6000 H       1  UNL1        0.1690
     16  O         22.2910  -20.5160  -14.1900 O.2     1  UNL1       -0.2670
     17  C         24.7770  -22.1810  -14.4240 C.2     1  UNL1        0.0410
     18  C         26.1120  -21.8940  -14.0620 C.2     1  UNL1       -0.0350
     19  C         27.1160  -21.9390  -15.0460 C.2     1  UNL1        0.0090
     20  C         26.5110  -21.5420  -12.6550 C.3     1  UNL1        0.0500
     21  C         26.8130  -22.2580  -16.3670 C.2     1  UNL1        0.0070
     22  C         25.4960  -22.5320  -16.7360 C.2     1  UNL1       -0.0600
     23  C         25.1610  -22.9130  -18.1480 C.3     1  UNL1        0.0480
     24  C         24.4920  -22.5050  -15.7560 C.2     1  UNL1        0.0370
     25  C         18.6890  -22.6470   -6.4670 C.2     1  UNL1        0.0710
     26  C         18.4810  -21.7190   -5.4410 C.2     1  UNL1        0.0200
     27  C         17.6220  -22.0400   -4.3870 C.2     1  UNL1        0.0010
     28  C         16.9900  -23.2860   -4.3520 C.2     1  UNL1        0.0030
     29  C         17.2190  -24.2170   -5.3660 C.2     1  UNL1        0.0430
     30  C         18.0760  -23.8970   -6.4160 C.2     1  UNL1        0.1320
     31  F         18.2850  -24.8040   -7.3820 F       1  UNL1       -0.2050
@<TRIPOS>BOND
     1    23    22    1
     2    22    21    2
     3    22    24    1
     4    21    19    1
     5    24    17    2
     6    19    18    2
     7    17    18    1
     8    17    14    1
     9    16    13    2
    10    18    20    1
    11    14    13   am
    12    14    15    1
    13    13     1    1
    14     6     1    2
    15     6     5    1
    16     1     2    1
    17     7     5    1
    18     7     8    1
    19     5     4    2
    20     2     3    2
    21     8     9    1
    22     4     3    1
    23     4    10    1
    24     9    10    1
    25    10    11   am
    26    11    12    2
    27    11    25    1
    28    31    30    1
    29    25    30    2
    30    25    26    1
    31    30    29    1
    32    26    27    2
    33    29    28    2
    34    27    28    1
