@<TRIPOS>MOLECULE
41203_out_ligand_01.pdbqt
 31 34 0 0 0
SMALL
GASTEIGER

@<TRIPOS>ATOM
      1  C         19.5370  -22.1570  -10.2240 C.2     1  UNL1        0.0330
      2  C         19.6330  -21.2930  -11.3130 C.2     1  UNL1        0.0190
      3  C         20.8480  -21.1590  -11.9980 C.2     1  UNL1        0.0310
      4  C         21.9940  -21.8750  -11.6190 C.2     1  UNL1        0.0430
      5  C         21.9040  -22.6880  -10.4680 C.2     1  UNL1       -0.0300
      6  C         20.6780  -22.8370   -9.7930 C.2     1  UNL1        0.0260
      7  C         23.0950  -23.4430   -9.9460 C.3     1  UNL1        0.0420
      8  C         24.3600  -22.6850  -10.2860 C.3     1  UNL1        0.0250
      9  C         24.4130  -22.4520  -11.7840 C.3     1  UNL1        0.1330
     10  N         23.2410  -21.7580  -12.3390 N.am    1  UNL1       -0.3130
     11  C         23.2820  -21.2700  -13.6640 C.2     1  UNL1        0.2610
     12  O         22.3180  -21.0470  -14.3940 O.2     1  UNL1       -0.2670
     13  C         18.2610  -22.3470   -9.4750 C.2     1  UNL1        0.2560
     14  N         18.4170  -22.8300   -8.1860 N.am    1  UNL1       -0.3220
     15  H         19.3680  -22.8910   -7.8510 H       1  UNL1        0.1690
     16  O         17.2170  -22.0340  -10.0300 O.2     1  UNL1       -0.2670
     17  C         17.4060  -23.1570   -7.2480 C.2     1  UNL1        0.0410
     18  C         16.3910  -24.0700   -7.5500 C.2     1  UNL1        0.0300
     19  C         15.4090  -24.3870   -6.6120 C.2     1  UNL1        0.0030
     20  C         15.4320  -23.7980   -5.3550 C.2     1  UNL1        0.0070
     21  C         16.4370  -22.8820   -5.0120 C.2     1  UNL1       -0.0540
     22  C         16.4050  -22.2810   -3.6320 C.3     1  UNL1        0.0490
     23  C         17.4390  -22.5530   -5.9610 C.2     1  UNL1       -0.0290
     24  C         18.5300  -21.5700   -5.6110 C.3     1  UNL1        0.0510
     25  C         24.5950  -21.0520  -14.2980 C.2     1  UNL1        0.0710
     26  C         25.3050  -19.8810  -14.0160 C.2     1  UNL1        0.0200
     27  C         26.5670  -19.6870  -14.5830 C.2     1  UNL1        0.0010
     28  C         27.1210  -20.6670  -15.4110 C.2     1  UNL1        0.0030
     29  C         26.4180  -21.8460  -15.6690 C.2     1  UNL1        0.0430
     30  C         25.1600  -22.0370  -15.1030 C.2     1  UNL1        0.1320
     31  F         24.5000  -23.1750  -15.3620 F       1  UNL1       -0.2050
@<TRIPOS>BOND
     1    29    28    2
     2    29    30    1
     3    28    27    1
     4    31    30    1
     5    30    25    2
     6    27    26    2
     7    12    11    2
     8    25    26    1
     9    25    11    1
    10    11    10   am
    11    10     9    1
    12    10     4    1
    13     3     4    2
    14     3     2    1
    15     9     8    1
    16     4     5    1
    17     2     1    2
    18     5     7    1
    19     5     6    2
    20     8     7    1
    21     1     6    1
    22     1    13    1
    23    16    13    2
    24    13    14   am
    25    14    15    1
    26    14    17    1
    27    18    17    2
    28    18    19    1
    29    17    23    1
    30    19    20    2
    31    23    24    1
    32    23    21    2
    33    20    21    1
    34    21    22    1
