@<TRIPOS>MOLECULE
41212_out_ligand_01.pdbqt
 33 36 0 0 0
SMALL
GASTEIGER

@<TRIPOS>ATOM
      1  C         21.7340  -21.6680  -12.1390 C.2     1  UNL1        0.0330
      2  C         22.2140  -22.2320  -10.9570 C.2     1  UNL1        0.0190
      3  C         21.3460  -22.4450   -9.8770 C.2     1  UNL1        0.0310
      4  C         19.9850  -22.1050   -9.9420 C.2     1  UNL1        0.0430
      5  C         19.4970  -21.6020  -11.1670 C.2     1  UNL1       -0.0300
      6  C         20.3740  -21.3710  -12.2440 C.2     1  UNL1        0.0260
      7  C         18.0440  -21.2670  -11.3550 C.3     1  UNL1        0.0420
      8  C         17.2020  -22.1650  -10.4740 C.3     1  UNL1        0.0250
      9  C         17.6640  -22.0240   -9.0360 C.3     1  UNL1        0.1330
     10  N         19.0930  -22.3010   -8.8220 N.am    1  UNL1       -0.3130
     11  C         19.5840  -22.4520   -7.5060 C.2     1  UNL1        0.2610
     12  O         20.7450  -22.2990   -7.1300 O.2     1  UNL1       -0.2670
     13  C         22.6180  -21.4110  -13.3140 C.2     1  UNL1        0.2560
     14  N         23.7960  -22.1260  -13.3220 N.am    1  UNL1       -0.3200
     15  H         24.0280  -22.6880  -12.5090 H       1  UNL1        0.1690
     16  O         22.2570  -20.5820  -14.1410 O.2     1  UNL1       -0.2670
     17  C         24.8140  -22.1280  -14.3030 C.2     1  UNL1        0.0710
     18  C         26.0130  -21.4610  -13.9730 C.2     1  UNL1        0.0950
     19  C         27.0610  -21.4270  -14.8970 C.2     1  UNL1        0.0420
     20  C         26.9250  -22.0530  -16.1410 C.2     1  UNL1        0.0390
     21  C         25.7440  -22.7160  -16.4700 C.2     1  UNL1        0.0700
     22  C         24.6930  -22.7520  -15.5470 C.2     1  UNL1        0.0690
     23  O         26.0430  -20.8830  -12.7250 O.2     1  UNL1       -0.3540
     24  C         27.1190  -19.9950  -12.4490 C.3     1  UNL1        0.2100
     25  O         25.4930  -23.3660  -17.6480 O.2     1  UNL1       -0.3560
     26  C         24.1530  -23.3550  -18.1220 C.3     1  UNL1        0.2100
     27  C         18.6310  -22.7650   -6.4270 C.2     1  UNL1        0.0710
     28  C         17.9610  -23.9940   -6.4390 C.2     1  UNL1        0.0200
     29  C         17.0280  -24.2800   -5.4410 C.2     1  UNL1        0.0010
     30  C         16.7550  -23.3360   -4.4460 C.2     1  UNL1        0.0030
     31  C         17.4090  -22.1030   -4.4510 C.2     1  UNL1        0.0430
     32  C         18.3380  -21.8190   -5.4480 C.2     1  UNL1        0.1320
     33  F         18.9560  -20.6290   -5.4370 F       1  UNL1       -0.2050
@<TRIPOS>BOND
     1    26    25    1
     2    25    21    1
     3    21    20    2
     4    21    22    1
     5    20    19    1
     6    22    17    2
     7    19    18    2
     8    17    18    1
     9    17    14    1
    10    16    13    2
    11    18    23    1
    12    14    13   am
    13    14    15    1
    14    13     1    1
    15    23    24    1
    16     6     1    2
    17     6     5    1
    18     1     2    1
    19     7     5    1
    20     7     8    1
    21     5     4    2
    22     2     3    2
    23     8     9    1
    24     4     3    1
    25     4    10    1
    26     9    10    1
    27    10    11   am
    28    11    12    2
    29    11    27    1
    30    28    27    2
    31    28    29    1
    32    27    32    1
    33    32    33    1
    34    32    31    2
    35    29    30    2
    36    31    30    1
