@<TRIPOS>MOLECULE
41210_out_ligand_01.pdbqt
 30 33 0 0 0
SMALL
GASTEIGER

@<TRIPOS>ATOM
      1  C         22.3530  -22.2980  -11.6800 C.2     1  UNL1        0.0330
      2  C         22.3270  -23.1340  -10.5660 C.2     1  UNL1        0.0190
      3  C         21.1650  -23.2320   -9.7890 C.2     1  UNL1        0.0310
      4  C         20.0040  -22.5070  -10.0980 C.2     1  UNL1        0.0430
      5  C         20.0180  -21.7210  -11.2710 C.2     1  UNL1       -0.0300
      6  C         21.1930  -21.6080  -12.0400 C.2     1  UNL1        0.0260
      7  C         18.8020  -20.9590  -11.7190 C.3     1  UNL1        0.0420
      8  C         17.5560  -21.6890  -11.2670 C.3     1  UNL1        0.0250
      9  C         17.6130  -21.8850   -9.7640 C.3     1  UNL1        0.1330
     10  N         18.8140  -22.5880   -9.2830 N.am    1  UNL1       -0.3130
     11  C         18.8660  -23.0440   -7.9480 C.2     1  UNL1        0.2610
     12  O         19.8800  -23.2650   -7.2880 O.2     1  UNL1       -0.2670
     13  C         23.5690  -22.1450  -12.5280 C.2     1  UNL1        0.2560
     14  O         24.6010  -22.6980  -12.1670 O.2     1  UNL1       -0.2670
     15  N         23.3830  -21.4080  -13.6850 N.am    1  UNL1       -0.3230
     16  H         22.4350  -21.1320  -13.9030 H       1  UNL1        0.1690
     17  C         24.3550  -21.0700  -14.6490 C.2     1  UNL1        0.0350
     18  C         25.1840  -19.9470  -14.5640 C.2     1  UNL1        0.0320
     19  C         26.1190  -19.6790  -15.5670 C.2     1  UNL1        0.0440
     20  C         26.2250  -20.5330  -16.6570 C.2     1  UNL1        0.1160
     21  F         27.1210  -20.2750  -17.6180 F       1  UNL1       -0.2060
     22  C         25.4090  -21.6510  -16.7630 C.2     1  UNL1        0.0440
     23  C         24.4740  -21.9190  -15.7600 C.2     1  UNL1        0.0320
     24  C         17.6030  -23.2290   -7.2120 C.2     1  UNL1        0.0710
     25  C         16.7190  -24.2390   -7.6070 C.2     1  UNL1        0.0200
     26  C         15.5040  -24.3930   -6.9380 C.2     1  UNL1        0.0010
     27  C         15.1680  -23.5320   -5.8900 C.2     1  UNL1        0.0030
     28  C         16.0430  -22.5110   -5.5130 C.2     1  UNL1        0.0430
     29  C         17.2540  -22.3580   -6.1820 C.2     1  UNL1        0.1320
     30  F         18.0810  -21.3710   -5.8080 F       1  UNL1       -0.2050
@<TRIPOS>BOND
     1    21    20    1
     2    22    20    2
     3    22    23    1
     4    20    19    1
     5    23    17    2
     6    19    18    2
     7    17    18    1
     8    17    15    1
     9    16    15    1
    10    15    13   am
    11    13    14    2
    12    13     1    1
    13     6     1    2
    14     6     5    1
    15     7     5    1
    16     7     8    1
    17     1     2    1
    18     5     4    2
    19     8     9    1
    20     2     3    2
    21     4     3    1
    22     4    10    1
    23     9    10    1
    24    10    11   am
    25    11    12    2
    26    11    24    1
    27    25    24    2
    28    25    26    1
    29    24    29    1
    30    26    27    2
    31    29    30    1
    32    29    28    2
    33    27    28    1
