@<TRIPOS>MOLECULE
41216_out_ligand_01.pdbqt
 30 33 0 0 0
SMALL
GASTEIGER

@<TRIPOS>ATOM
      1  C         22.2710  -22.1630  -11.6400 C.2     1  UNL1        0.0330
      2  C         22.3300  -22.6060  -10.3200 C.2     1  UNL1        0.0190
      3  C         21.1560  -22.7090   -9.5630 C.2     1  UNL1        0.0310
      4  C         19.8990  -22.3770  -10.0930 C.2     1  UNL1        0.0430
      5  C         19.8620  -21.8590  -11.4050 C.2     1  UNL1       -0.0300
      6  C         21.0400  -21.7740  -12.1720 C.2     1  UNL1        0.0260
      7  C         18.5720  -21.4160  -12.0370 C.3     1  UNL1        0.0420
      8  C         17.6270  -20.9230  -10.9630 C.3     1  UNL1        0.0250
      9  C         17.4380  -22.0180   -9.9290 C.3     1  UNL1        0.1330
     10  N         18.6850  -22.5090   -9.3210 N.am    1  UNL1       -0.3130
     11  C         18.6240  -23.3410   -8.1820 C.2     1  UNL1        0.2610
     12  O         19.4830  -24.1370   -7.8080 O.2     1  UNL1       -0.2670
     13  C         23.4890  -22.0500  -12.4920 C.2     1  UNL1        0.2560
     14  O         24.5040  -22.6340  -12.1330 O.2     1  UNL1       -0.2670
     15  N         23.3470  -21.2410  -13.6050 N.am    1  UNL1       -0.3230
     16  H         22.4810  -20.7220  -13.6850 H       1  UNL1        0.1690
     17  C         24.3110  -20.9800  -14.6040 C.2     1  UNL1        0.0360
     18  C         25.2300  -19.9300  -14.5440 C.2     1  UNL1        0.0290
     19  C         26.1610  -19.7380  -15.5720 C.2     1  UNL1        0.0040
     20  C         26.1810  -20.5980  -16.6670 C.2     1  UNL1        0.0240
     21  C         25.2690  -21.6460  -16.7290 C.2     1  UNL1        0.0360
     22 CL         25.2880  -22.7150  -18.0800 Cl      1  UNL1       -0.0840
     23  C         24.3390  -21.8420  -15.7060 C.2     1  UNL1        0.0530
     24  C         17.4000  -23.3310   -7.3610 C.2     1  UNL1        0.0710
     25  C         16.4510  -24.3440   -7.5330 C.2     1  UNL1        0.0200
     26  C         15.3080  -24.3620   -6.7310 C.2     1  UNL1        0.0010
     27  C         15.1240  -23.3810   -5.7520 C.2     1  UNL1        0.0030
     28  C         16.0850  -22.3860   -5.5680 C.2     1  UNL1        0.0430
     29  C         17.2240  -22.3690   -6.3690 C.2     1  UNL1        0.1320
     30  F         18.1360  -21.4060   -6.1770 F       1  UNL1       -0.2050
@<TRIPOS>BOND
     1    22    21    1
     2    21    20    2
     3    21    23    1
     4    20    19    1
     5    23    17    2
     6    19    18    2
     7    17    18    1
     8    17    15    1
     9    16    15    1
    10    15    13   am
    11    13    14    2
    12    13     1    1
    13     6     1    2
    14     6     5    1
    15     7     5    1
    16     7     8    1
    17     1     2    1
    18     5     4    2
    19     8     9    1
    20     2     3    2
    21     4     3    1
    22     4    10    1
    23     9    10    1
    24    10    11   am
    25    11    12    2
    26    11    24    1
    27    25    24    2
    28    25    26    1
    29    24    29    1
    30    26    27    2
    31    29    30    1
    32    29    28    2
    33    27    28    1
