@<TRIPOS>MOLECULE
41213_out_ligand_01.pdbqt
 32 35 0 0 0
SMALL
GASTEIGER

@<TRIPOS>ATOM
      1  C         22.5930  -22.0840  -11.8820 C.2     1  UNL1        0.0330
      2  C         22.5940  -22.9270  -10.7720 C.2     1  UNL1        0.0190
      3  C         21.4330  -23.0760  -10.0000 C.2     1  UNL1        0.0310
      4  C         20.2450  -22.3930  -10.3080 C.2     1  UNL1        0.0430
      5  C         20.2370  -21.5980  -11.4730 C.2     1  UNL1       -0.0300
      6  C         21.4090  -21.4350  -12.2370 C.2     1  UNL1        0.0260
      7  C         18.9960  -20.8740  -11.9200 C.3     1  UNL1        0.0420
      8  C         17.7750  -21.6530  -11.4830 C.3     1  UNL1        0.0250
      9  C         17.8310  -21.8620   -9.9810 C.3     1  UNL1        0.1330
     10  N         19.0540  -22.5260   -9.5010 N.am    1  UNL1       -0.3130
     11  C         19.1120  -23.0020   -8.1730 C.2     1  UNL1        0.2610
     12  O         20.1270  -23.2170   -7.5110 O.2     1  UNL1       -0.2670
     13  C         23.8030  -21.8830  -12.7300 C.2     1  UNL1        0.2560
     14  N         23.6240  -21.0480  -13.8120 N.am    1  UNL1       -0.3200
     15  H         22.6890  -20.7120  -14.0170 H       1  UNL1        0.1690
     16  O         24.8290  -22.4840  -12.4290 O.2     1  UNL1       -0.2670
     17  C         24.5770  -20.6380  -14.7710 C.2     1  UNL1        0.0690
     18  C         25.3690  -19.4940  -14.6360 C.2     1  UNL1        0.0390
     19  C         26.2980  -19.1450  -15.6260 C.2     1  UNL1       -0.0600
     20  C         26.4080  -19.9410  -16.7710 C.2     1  UNL1        0.0090
     21  C         27.1200  -17.8980  -15.4830 C.3     1  UNL1        0.0480
     22  C         25.6190  -21.0850  -16.9200 C.2     1  UNL1        0.0390
     23  C         24.7030  -21.4400  -15.9250 C.2     1  UNL1        0.0950
     24  O         23.8770  -22.5400  -15.9720 O.2     1  UNL1       -0.3540
     25  C         24.2200  -23.5660  -16.8960 C.3     1  UNL1        0.2100
     26  C         17.8510  -23.2220   -7.4430 C.2     1  UNL1        0.0710
     27  C         17.0060  -24.2650   -7.8340 C.2     1  UNL1        0.0200
     28  C         15.7910  -24.4530   -7.1720 C.2     1  UNL1        0.0010
     29  C         15.4190  -23.5940   -6.1350 C.2     1  UNL1        0.0030
     30  C         16.2560  -22.5390   -5.7630 C.2     1  UNL1        0.0430
     31  C         17.4660  -22.3530   -6.4250 C.2     1  UNL1        0.1320
     32  F         18.2570  -21.3360   -6.0540 F       1  UNL1       -0.2050
@<TRIPOS>BOND
     1    22    20    2
     2    22    23    1
     3    25    24    1
     4    20    19    1
     5    24    23    1
     6    23    17    2
     7    19    21    1
     8    19    18    2
     9    17    18    1
    10    17    14    1
    11    15    14    1
    12    14    13   am
    13    13    16    2
    14    13     1    1
    15     6     1    2
    16     6     5    1
    17     7     8    1
    18     7     5    1
    19     1     2    1
    20     8     9    1
    21     5     4    2
    22     2     3    2
    23     4     3    1
    24     4    10    1
    25     9    10    1
    26    10    11   am
    27    11    12    2
    28    11    26    1
    29    27    26    2
    30    27    28    1
    31    26    31    1
    32    28    29    2
    33    31    32    1
    34    31    30    2
    35    29    30    1
