@<TRIPOS>MOLECULE
41219_out_ligand_01.pdbqt
 31 34 0 0 0
SMALL
GASTEIGER

@<TRIPOS>ATOM
      1  C         22.1220  -22.1070   -9.8930 C.2     1  UNL1        0.0330
      2  C         22.0690  -22.3050   -8.5150 C.2     1  UNL1        0.0190
      3  C         20.8330  -22.4750   -7.8780 C.2     1  UNL1        0.0310
      4  C         19.6230  -22.4520   -8.5900 C.2     1  UNL1        0.0430
      5  C         19.6950  -22.3250   -9.9940 C.2     1  UNL1       -0.0300
      6  C         20.9370  -22.1360  -10.6300 C.2     1  UNL1        0.0260
      7  C         18.4590  -22.3550  -10.8490 C.3     1  UNL1        0.0420
      8  C         17.4050  -23.2130  -10.1820 C.3     1  UNL1        0.0250
      9  C         17.1480  -22.6860   -8.7820 C.3     1  UNL1        0.1330
     10  N         18.3460  -22.6000   -7.9310 N.am    1  UNL1       -0.3130
     11  C         18.2000  -22.3590   -6.5470 C.2     1  UNL1        0.2610
     12  O         19.0410  -21.8690   -5.7950 O.2     1  UNL1       -0.2670
     13  C         23.4120  -21.9040  -10.6130 C.2     1  UNL1        0.2560
     14  N         23.5460  -22.6390  -11.7780 N.am    1  UNL1       -0.3220
     15  H         22.8170  -23.3160  -11.9560 H       1  UNL1        0.1690
     16  O         24.2410  -21.1560  -10.1080 O.2     1  UNL1       -0.2670
     17  C         24.6260  -22.6270  -12.6980 C.2     1  UNL1        0.0420
     18  C         25.8010  -23.3550  -12.4630 C.2     1  UNL1        0.0300
     19  C         26.8590  -23.3280  -13.3700 C.2     1  UNL1        0.0040
     20  C         26.7600  -22.5680  -14.5270 C.2     1  UNL1        0.0240
     21  C         25.6010  -21.8290  -14.7790 C.2     1  UNL1        0.0420
     22  C         24.5170  -21.8420  -13.8760 C.2     1  UNL1       -0.0130
     23 CL         25.5830  -20.9120  -16.2480 Cl      1  UNL1       -0.0840
     24  C         23.2650  -21.0440  -14.1460 C.3     1  UNL1        0.0520
     25  C         16.9060  -22.6560   -5.9090 C.2     1  UNL1        0.0710
     26  C         15.7740  -21.9240   -6.2830 C.2     1  UNL1        0.0200
     27  C         14.5520  -22.1730   -5.6530 C.2     1  UNL1        0.0010
     28  C         14.4680  -23.1370   -4.6440 C.2     1  UNL1        0.0030
     29  C         15.6060  -23.8480   -4.2570 C.2     1  UNL1        0.0430
     30  C         16.8220  -23.5980   -4.8860 C.2     1  UNL1        0.1320
     31  F         17.9040  -24.2900   -4.5010 F       1  UNL1       -0.2050
@<TRIPOS>BOND
     1    23    21    1
     2    21    20    2
     3    21    22    1
     4    20    19    1
     5    24    22    1
     6    22    17    2
     7    19    18    2
     8    17    18    1
     9    17    14    1
    10    15    14    1
    11    14    13   am
    12     7     8    1
    13     7     5    1
    14     6     5    1
    15     6     1    2
    16    13    16    2
    17    13     1    1
    18     8     9    1
    19     5     4    2
    20     1     2    1
    21     9    10    1
    22     4    10    1
    23     4     3    1
    24     2     3    2
    25    10    11   am
    26    11    25    1
    27    11    12    2
    28    26    25    2
    29    26    27    1
    30    25    30    1
    31    27    28    2
    32    30    31    1
    33    30    29    2
    34    28    29    1
