@<TRIPOS>MOLECULE
41217_out_ligand_01.pdbqt
 30 33 0 0 0
SMALL
GASTEIGER

@<TRIPOS>ATOM
      1  C         22.1950  -22.1180  -11.6200 C.2     1  UNL1        0.0330
      2  C         22.2590  -22.5490  -10.2960 C.2     1  UNL1        0.0190
      3  C         21.0870  -22.6620   -9.5380 C.2     1  UNL1        0.0310
      4  C         19.8250  -22.3520  -10.0730 C.2     1  UNL1        0.0430
      5  C         19.7820  -21.8460  -11.3890 C.2     1  UNL1       -0.0300
      6  C         20.9590  -21.7500  -12.1560 C.2     1  UNL1        0.0260
      7  C         18.4870  -21.4250  -12.0250 C.3     1  UNL1        0.0420
      8  C         17.5350  -20.9360  -10.9550 C.3     1  UNL1        0.0250
      9  C         17.3590  -22.0240   -9.9120 C.3     1  UNL1        0.1330
     10  N         18.6120  -22.4940   -9.3000 N.am    1  UNL1       -0.3130
     11  C         18.5630  -23.3200   -8.1550 C.2     1  UNL1        0.2610
     12  O         19.4310  -24.1030   -7.7770 O.2     1  UNL1       -0.2670
     13  C         23.4110  -21.9960  -12.4720 C.2     1  UNL1        0.2560
     14  O         24.4840  -22.3650  -12.0080 O.2     1  UNL1       -0.2670
     15  N         23.1980  -21.4250  -13.7140 N.am    1  UNL1       -0.3230
     16  H         22.2740  -21.0510  -13.8910 H       1  UNL1        0.1690
     17  C         24.1470  -21.2190  -14.7360 C.2     1  UNL1        0.0350
     18  C         24.2240  -22.1930  -15.7420 C.2     1  UNL1        0.0310
     19  C         25.1420  -22.0660  -16.7900 C.2     1  UNL1        0.0260
     20  C         25.9910  -20.9640  -16.8340 C.2     1  UNL1        0.0340
     21 CL         27.1210  -20.8060  -18.1210 Cl      1  UNL1       -0.0840
     22  C         25.9270  -19.9910  -15.8410 C.2     1  UNL1        0.0260
     23  C         25.0080  -20.1210  -14.7930 C.2     1  UNL1        0.0310
     24  C         17.3380  -23.3200   -7.3350 C.2     1  UNL1        0.0710
     25  C         16.3650  -24.3020   -7.5550 C.2     1  UNL1        0.0200
     26  C         15.2220  -24.3300   -6.7550 C.2     1  UNL1        0.0010
     27  C         15.0600  -23.3930   -5.7300 C.2     1  UNL1        0.0030
     28  C         16.0440  -22.4300   -5.4990 C.2     1  UNL1        0.0430
     29  C         17.1840  -22.4030   -6.2980 C.2     1  UNL1        0.1320
     30  F         18.1190  -21.4720   -6.0610 F       1  UNL1       -0.2050
@<TRIPOS>BOND
     1    21    20    1
     2    20    19    2
     3    20    22    1
     4    19    18    1
     5    22    23    2
     6    18    17    2
     7    23    17    1
     8    17    15    1
     9    16    15    1
    10    15    13   am
    11    13    14    2
    12    13     1    1
    13     6     1    2
    14     6     5    1
    15     7     5    1
    16     7     8    1
    17     1     2    1
    18     5     4    2
    19     8     9    1
    20     2     3    2
    21     4     3    1
    22     4    10    1
    23     9    10    1
    24    10    11   am
    25    11    12    2
    26    11    24    1
    27    25    24    2
    28    25    26    1
    29    24    29    1
    30    26    27    2
    31    29    30    1
    32    29    28    2
    33    27    28    1
