@<TRIPOS>MOLECULE
41220_out_ligand_01.pdbqt
 31 34 0 0 0
SMALL
GASTEIGER

@<TRIPOS>ATOM
      1  C         21.6310  -21.6590  -12.2610 C.2     1  UNL1        0.0330
      2  C         20.3310  -21.1690  -12.1580 C.2     1  UNL1        0.0190
      3  C         19.4890  -21.6150  -11.1300 C.2     1  UNL1        0.0310
      4  C         19.9040  -22.5730  -10.1930 C.2     1  UNL1        0.0430
      5  C         21.2160  -23.0810  -10.3180 C.2     1  UNL1       -0.0300
      6  C         22.0650  -22.6190  -11.3440 C.2     1  UNL1        0.0260
      7  C         21.7770  -24.0980   -9.3600 C.3     1  UNL1        0.0420
      8  C         20.6660  -24.8560   -8.6640 C.3     1  UNL1        0.0250
      9  C         19.6780  -23.8610   -8.0830 C.3     1  UNL1        0.1330
     10  N         19.0530  -23.0160   -9.1120 N.am    1  UNL1       -0.3130
     11  C         17.6920  -22.6660   -9.0250 C.2     1  UNL1        0.2610
     12  O         16.9850  -22.2590   -9.9450 O.2     1  UNL1       -0.2670
     13  C         22.5730  -21.2140  -13.3300 C.2     1  UNL1        0.2560
     14  N         23.7770  -21.8840  -13.3620 N.am    1  UNL1       -0.3210
     15  H         23.9100  -22.6790  -12.7460 H       1  UNL1        0.1690
     16  O         22.2050  -20.3320  -14.0980 O.2     1  UNL1       -0.2670
     17  C         24.8750  -21.6720  -14.2260 C.2     1  UNL1        0.0680
     18  C         24.9070  -22.1000  -15.5550 C.2     1  UNL1        0.0320
     19  C         26.0290  -21.8480  -16.3470 C.2     1  UNL1        0.0020
     20  C         27.1210  -21.1660  -15.8190 C.2     1  UNL1        0.0030
     21  C         27.1000  -20.7280  -14.4930 C.2     1  UNL1        0.0390
     22  C         25.9820  -20.9760  -13.6920 C.2     1  UNL1        0.0950
     23  O         25.8540  -20.5880  -12.3760 O.2     1  UNL1       -0.3540
     24  C         26.6480  -19.4880  -11.9470 C.3     1  UNL1        0.2100
     25  C         16.9920  -22.8310   -7.7340 C.2     1  UNL1        0.0710
     26  C         17.3830  -22.0460   -6.6430 C.2     1  UNL1        0.0200
     27  C         16.7530  -22.2110   -5.4080 C.2     1  UNL1        0.0010
     28  C         15.7470  -23.1690   -5.2590 C.2     1  UNL1        0.0030
     29  C         15.3750  -23.9680   -6.3410 C.2     1  UNL1        0.0430
     30  C         16.0060  -23.8010   -7.5720 C.2     1  UNL1        0.1320
     31  F         15.6420  -24.5910   -8.5920 F       1  UNL1       -0.2050
@<TRIPOS>BOND
     1    19    20    2
     2    19    18    1
     3    20    21    1
     4    18    17    2
     5    21    22    2
     6    17    22    1
     7    17    14    1
     8    16    13    2
     9    22    23    1
    10    14    13   am
    11    14    15    1
    12    13     1    1
    13    23    24    1
    14     1     2    2
    15     1     6    1
    16     2     3    1
    17     6     5    2
    18     3     4    2
    19     5     4    1
    20     5     7    1
    21     4    10    1
    22    12    11    2
    23     7     8    1
    24    10    11   am
    25    10     9    1
    26    11    25    1
    27     8     9    1
    28    31    30    1
    29    25    30    2
    30    25    26    1
    31    30    29    1
    32    26    27    2
    33    29    28    2
    34    27    28    1
