@<TRIPOS>MOLECULE
41221_out_ligand_01.pdbqt
 31 34 0 0 0
SMALL
GASTEIGER

@<TRIPOS>ATOM
      1  C         21.5580  -21.8110  -12.1280 C.2     1  UNL1        0.0330
      2  C         21.8600  -22.6280  -11.0400 C.2     1  UNL1        0.0190
      3  C         20.8860  -22.8900  -10.0660 C.2     1  UNL1        0.0310
      4  C         19.5850  -22.3720  -10.1580 C.2     1  UNL1        0.0430
      5  C         19.2820  -21.5660  -11.2790 C.2     1  UNL1       -0.0300
      6  C         20.2690  -21.2900  -12.2470 C.2     1  UNL1        0.0260
      7  C         17.9260  -20.9430  -11.4740 C.3     1  UNL1        0.0420
      8  C         16.8680  -21.6960  -10.6950 C.3     1  UNL1        0.0250
      9  C         17.3300  -21.8510   -9.2580 C.3     1  UNL1        0.1330
     10  N         18.5830  -22.6130   -9.1450 N.am    1  UNL1       -0.3130
     11  C         18.7780  -23.5210   -8.0850 C.2     1  UNL1        0.2610
     12  O         19.6080  -24.4290   -8.0470 O.2     1  UNL1       -0.2670
     13  C         22.5610  -21.4910  -13.1830 C.2     1  UNL1        0.2560
     14  N         23.7620  -22.1680  -13.0700 N.am    1  UNL1       -0.3230
     15  H         23.8940  -22.7300  -12.2410 H       1  UNL1        0.1690
     16  O         22.2670  -20.6480  -14.0230 O.2     1  UNL1       -0.2670
     17  C         24.8740  -22.0950  -13.9400 C.2     1  UNL1        0.0370
     18  C         26.0680  -21.4500  -13.6190 C.2     1  UNL1        0.0290
     19  C         27.1200  -21.4160  -14.5370 C.2     1  UNL1        0.0050
     20  C         26.9810  -22.0260  -15.7810 C.2     1  UNL1        0.0370
     21  C         25.7930  -22.6720  -16.1220 C.2     1  UNL1        0.0700
     22  C         24.7430  -22.7030  -15.2000 C.2     1  UNL1        0.0660
     23  O         25.7860  -23.2280  -17.3720 O.2     1  UNL1       -0.3560
     24  C         24.6100  -23.0510  -18.1530 C.3     1  UNL1        0.2100
     25  C         17.8920  -23.4440   -6.9060 C.2     1  UNL1        0.0710
     26  C         18.2420  -22.5990   -5.8450 C.2     1  UNL1        0.0200
     27  C         17.4000  -22.4920   -4.7380 C.2     1  UNL1        0.0010
     28  C         16.2040  -23.2140   -4.6950 C.2     1  UNL1        0.0030
     29  C         15.8450  -24.0360   -5.7640 C.2     1  UNL1        0.0430
     30  C         16.6860  -24.1420   -6.8670 C.2     1  UNL1        0.1320
     31  F         16.3130  -24.9270   -7.8890 F       1  UNL1       -0.2050
@<TRIPOS>BOND
     1    24    23    1
     2    23    21    1
     3    21    20    2
     4    21    22    1
     5    20    19    1
     6    22    17    2
     7    19    18    2
     8    16    13    2
     9    17    18    1
    10    17    14    1
    11    13    14   am
    12    13     1    1
    13    14    15    1
    14     6     1    2
    15     6     5    1
    16     1     2    1
    17     7     5    1
    18     7     8    1
    19     5     4    2
    20     2     3    2
    21     8     9    1
    22     4     3    1
    23     4    10    1
    24     9    10    1
    25    10    11   am
    26    11    12    2
    27    11    25    1
    28    31    30    1
    29    25    30    2
    30    25    26    1
    31    30    29    1
    32    26    27    2
    33    29    28    2
    34    27    28    1
