@<TRIPOS>MOLECULE
41222_out_ligand_01.pdbqt
 32 35 0 0 0
SMALL
GASTEIGER

@<TRIPOS>ATOM
      1  C         22.0120  -21.5770  -12.5270 C.2     1  UNL1        0.0330
      2  C         22.4810  -22.2320  -11.3890 C.2     1  UNL1        0.0190
      3  C         21.6150  -22.4880  -10.3170 C.2     1  UNL1        0.0310
      4  C         20.2650  -22.1010  -10.3450 C.2     1  UNL1        0.0430
      5  C         19.7850  -21.5020  -11.5300 C.2     1  UNL1       -0.0300
      6  C         20.6610  -21.2290  -12.5990 C.2     1  UNL1        0.0260
      7  C         18.3420  -21.1090  -11.6800 C.3     1  UNL1        0.0420
      8  C         17.4780  -22.0350  -10.8530 C.3     1  UNL1        0.0250
      9  C         17.9560  -22.0050   -9.4140 C.3     1  UNL1        0.1330
     10  N         19.3760  -22.3420   -9.2310 N.am    1  UNL1       -0.3130
     11  C         19.8720  -22.5950   -7.9340 C.2     1  UNL1        0.2610
     12  O         21.0400  -22.5010   -7.5610 O.2     1  UNL1       -0.2670
     13  C         22.8940  -21.2710  -13.6900 C.2     1  UNL1        0.2560
     14  N         23.9990  -22.0860  -13.8120 N.am    1  UNL1       -0.3210
     15  H         24.1920  -22.7580  -13.0770 H       1  UNL1        0.1690
     16  O         22.5990  -20.3240  -14.4100 O.2     1  UNL1       -0.2670
     17  C         24.9920  -22.0710  -14.8170 C.2     1  UNL1        0.0680
     18  C         24.9350  -22.8550  -15.9710 C.2     1  UNL1        0.0320
     19  C         25.9610  -22.7910  -16.9160 C.2     1  UNL1        0.0020
     20  C         27.0500  -21.9480  -16.7090 C.2     1  UNL1        0.0030
     21  C         27.1200  -21.1620  -15.5580 C.2     1  UNL1        0.0390
     22  C         26.0960  -21.2120  -14.6090 C.2     1  UNL1        0.0950
     23  O         26.0620  -20.4920  -13.4380 O.2     1  UNL1       -0.3490
     24  C         26.8180  -20.9530  -12.3200 C.3     1  UNL1        0.1710
     25  C         25.9980  -20.8610  -11.0440 C.3     1  UNL1        0.0340
     26  C         18.9180  -22.9520   -6.8690 C.2     1  UNL1        0.0710
     27  C         18.2550  -24.1830   -6.9280 C.2     1  UNL1        0.0200
     28  C         17.3210  -24.5100   -5.9440 C.2     1  UNL1        0.0010
     29  C         17.0390  -23.6050   -4.9170 C.2     1  UNL1        0.0030
     30  C         17.6860  -22.3680   -4.8760 C.2     1  UNL1        0.0430
     31  C         18.6170  -22.0430   -5.8570 C.2     1  UNL1        0.1320
     32  F         19.2280  -20.8520   -5.8010 F       1  UNL1       -0.2050
@<TRIPOS>BOND
     1    19    20    2
     2    19    18    1
     3    20    21    1
     4    18    17    2
     5    21    22    2
     6    17    22    1
     7    17    14    1
     8    22    23    1
     9    16    13    2
    10    14    13   am
    11    14    15    1
    12    13     1    1
    13    23    24    1
    14     6     1    2
    15     6     5    1
    16     1     2    1
    17    24    25    1
    18     7     5    1
    19     7     8    1
    20     5     4    2
    21     2     3    2
    22     8     9    1
    23     4     3    1
    24     4    10    1
    25     9    10    1
    26    10    11   am
    27    11    12    2
    28    11    26    1
    29    27    26    2
    30    27    28    1
    31    26    31    1
    32    28    29    2
    33    31    32    1
    34    31    30    2
    35    29    30    1
