@<TRIPOS>MOLECULE
41241_out_ligand_01.pdbqt
 31 34 0 0 0
SMALL
GASTEIGER

@<TRIPOS>ATOM
      1  C         22.5480  -22.4060  -10.9250 C.2     1  UNL1        0.0320
      2  C         21.4520  -21.7270  -11.4730 C.2     1  UNL1        0.0170
      3  C         20.1570  -22.0080  -11.0230 C.2     1  UNL1        0.0100
      4  C         19.9420  -22.9700  -10.0260 C.2     1  UNL1       -0.0300
      5  C         21.0460  -23.6560   -9.4950 C.2     1  UNL1        0.0100
      6  C         22.3380  -23.3800   -9.9440 C.2     1  UNL1        0.0170
      7  C         23.9430  -22.1440  -11.3770 C.2     1  UNL1        0.2520
      8  N         24.3970  -22.9110  -12.4270 N.am    1  UNL1       -0.3490
      9  H         23.7320  -23.4510  -12.9640 H       1  UNL1        0.1630
     10  O         24.6100  -21.2650  -10.8420 O.2     1  UNL1       -0.2680
     11  C         25.7080  -22.6990  -13.0210 C.3     1  UNL1        0.1140
     12  C         26.5360  -23.9900  -13.0110 C.3     1  UNL1        0.0370
     13  C         25.5300  -22.1020  -14.4150 C.2     1  UNL1       -0.0290
     14  C         25.7780  -20.7330  -14.6680 C.2     1  UNL1       -0.0540
     15  C         25.5740  -20.2220  -15.9600 C.2     1  UNL1        0.0080
     16  C         26.2620  -19.7950  -13.5940 C.3     1  UNL1        0.0490
     17  C         25.1100  -21.0380  -16.9910 C.2     1  UNL1        0.0070
     18  C         24.8460  -22.3870  -16.7570 C.2     1  UNL1       -0.0610
     19  C         24.3030  -23.2590  -17.8500 C.3     1  UNL1        0.0480
     20  C         25.0410  -22.9020  -15.4680 C.2     1  UNL1        0.0160
     21  C         18.5400  -23.2870   -9.5450 C.3     1  UNL1        0.3110
     22  N         18.4490  -23.4600   -8.0870 N.3     1  UNL1        0.0970
     23  C         17.1490  -24.0480   -7.7230 C.3     1  UNL1        0.2770
     24  C         17.1150  -24.4150   -6.2340 C.3     1  UNL1        0.0690
     25  C         17.5760  -23.2840   -5.3520 C.2     1  UNL1       -0.0490
     26  C         17.3020  -23.3050   -3.9780 C.2     1  UNL1        0.0070
     27  C         18.3370  -22.2370   -5.8980 C.2     1  UNL1       -0.0240
     28  C         17.7600  -22.2780   -3.1530 C.2     1  UNL1        0.0010
     29  C         18.4990  -21.2280   -3.6930 C.2     1  UNL1        0.0010
     30  C         18.7840  -21.2050   -5.0580 C.2     1  UNL1        0.0090
     31  C         18.6230  -22.1710   -7.3860 C.3     1  UNL1        0.3110
@<TRIPOS>BOND
     1    19    18    1
     2    17    18    2
     3    17    15    1
     4    18    20    1
     5    15    14    2
     6    20    13    2
     7    14    13    1
     8    14    16    1
     9    13    11    1
    10    11    12    1
    11    11     8    1
    12     9     8    1
    13     8     7   am
    14     2     3    1
    15     2     1    2
    16     7     1    1
    17     7    10    2
    18     3     4    2
    19     1     6    1
    20     4    21    1
    21     4     5    1
    22     6     5    2
    23    21    22    1
    24    22    23    1
    25    22    31    1
    26    23    24    1
    27    31    27    1
    28    24    25    1
    29    27    25    2
    30    27    30    1
    31    25    26    1
    32    30    29    2
    33    26    28    2
    34    29    28    1
