@<TRIPOS>MOLECULE
41256_out_ligand_01.pdbqt
 32 34 0 0 0
SMALL
GASTEIGER

@<TRIPOS>ATOM
      1  C         22.8250  -22.3100  -11.6930 C.2     1  UNL1        0.0440
      2  C         22.2870  -22.9820  -10.5950 C.2     1  UNL1        0.0310
      3  C         20.9420  -22.8020  -10.2550 C.2     1  UNL1        0.0190
      4  C         20.1240  -21.9700  -11.0290 C.2     1  UNL1        0.0320
      5  C         20.6650  -21.3020  -12.1360 C.2     1  UNL1        0.0190
      6  C         22.0110  -21.4830  -12.4710 C.2     1  UNL1        0.0310
      7  C         18.6970  -21.8090  -10.6280 C.2     1  UNL1        0.2520
      8  O         17.9840  -20.9980  -11.2050 O.2     1  UNL1       -0.2680
      9  N         18.2680  -22.5840   -9.5740 N.am    1  UNL1       -0.3490
     10  H         18.9370  -23.1000   -9.0190 H       1  UNL1        0.1630
     11  C         16.9150  -22.4800   -9.0490 C.3     1  UNL1        0.1140
     12  C         15.9380  -23.3000   -9.9010 C.3     1  UNL1        0.0370
     13  C         16.9290  -22.8560   -7.5690 C.2     1  UNL1       -0.0290
     14  C         15.9350  -22.3680   -6.6940 C.2     1  UNL1        0.0160
     15  C         15.9090  -22.7210   -5.3370 C.2     1  UNL1       -0.0610
     16  C         14.8650  -22.1470   -4.4260 C.3     1  UNL1        0.0480
     17  C         16.8970  -23.5700   -4.8390 C.2     1  UNL1        0.0070
     18  C         17.8760  -24.0830   -5.6890 C.2     1  UNL1        0.0080
     19  C         17.8980  -23.7490   -7.0540 C.2     1  UNL1       -0.0540
     20  C         18.9760  -24.3460   -7.9210 C.3     1  UNL1        0.0490
     21  N         24.1780  -22.5220  -12.0870 N.pl3   1  UNL1       -0.2760
     22  C         24.5060  -23.7060  -12.8880 C.3     1  UNL1        0.1700
     23  S         25.4170  -21.6430  -11.3490 S.O2    1  UNL1        0.2640
     24  O         26.5520  -22.5290  -11.1720 O.2     1  UNL1       -0.2000
     25  O         24.9010  -20.8590  -10.2460 O.2     1  UNL1       -0.2000
     26  C         25.8260  -20.4910  -12.6430 C.2     1  UNL1        0.0800
     27  C         25.2100  -20.5840  -13.8920 C.2     1  UNL1        0.0260
     28  C         25.5480  -19.6700  -14.8930 C.2     1  UNL1        0.0080
     29  C         26.5090  -18.6780  -14.6570 C.2     1  UNL1       -0.0620
     30  C         26.8620  -17.6830  -15.7250 C.3     1  UNL1        0.0480
     31  C         27.1200  -18.5990  -13.3980 C.2     1  UNL1        0.0080
     32  C         26.7870  -19.5070  -12.3920 C.2     1  UNL1        0.0260
@<TRIPOS>BOND
     1    30    29    1
     2    28    29    2
     3    28    27    1
     4    29    31    1
     5    27    26    2
     6    31    32    2
     7    22    21    1
     8    26    32    1
     9    26    23    1
    10     6     5    1
    11     6     1    2
    12     5     4    2
    13    21     1    1
    14    21    23    1
    15     1     2    1
    16    23    24    2
    17    23    25    2
    18     8     7    2
    19     4     7    1
    20     4     3    1
    21     7     9   am
    22     2     3    2
    23    12    11    1
    24     9    11    1
    25     9    10    1
    26    11    13    1
    27    20    19    1
    28    13    19    2
    29    13    14    1
    30    19    18    1
    31    14    15    2
    32    18    17    2
    33    15    17    1
    34    15    16    1
