@<TRIPOS>MOLECULE
41259_out_ligand_01.pdbqt
 33 37 0 0 0
SMALL
GASTEIGER

@<TRIPOS>ATOM
      1  C         21.4990  -22.5030  -11.2280 C.2     1  UNL1        0.0320
      2  C         21.0870  -23.3730  -10.2120 C.2     1  UNL1        0.0170
      3  C         19.7960  -23.2740   -9.6840 C.2     1  UNL1        0.0100
      4  C         18.9000  -22.3030  -10.1560 C.2     1  UNL1       -0.0300
      5  C         19.3300  -21.4150  -11.1510 C.2     1  UNL1        0.0100
      6  C         20.6190  -21.5140  -11.6830 C.2     1  UNL1        0.0170
      7  C         22.8540  -22.5730  -11.8440 C.2     1  UNL1        0.2520
      8  N         23.0860  -21.7530  -12.9250 N.am    1  UNL1       -0.3480
      9  H         22.3620  -21.1450  -13.2780 H       1  UNL1        0.1630
     10  O         23.7070  -23.3150  -11.3730 O.2     1  UNL1       -0.2680
     11  C         24.3660  -21.7500  -13.6220 C.3     1  UNL1        0.1230
     12  C         24.1460  -21.4250  -15.1000 C.3     1  UNL1        0.0680
     13  C         25.4700  -21.1030  -15.7990 C.3     1  UNL1        0.0630
     14  C         25.1710  -20.6650  -17.2420 C.3     1  UNL1        0.0460
     15  C         26.4370  -22.2950  -15.8460 C.3     1  UNL1        0.0460
     16  O         26.1240  -19.9810  -15.1800 O.2     1  UNL1       -0.3400
     17  C         26.1300  -19.9520  -13.8120 C.2     1  UNL1        0.0780
     18  C         27.0070  -19.0270  -13.2380 C.2     1  UNL1        0.0370
     19  C         25.3290  -20.7650  -13.0040 C.2     1  UNL1       -0.0020
     20  C         27.1210  -18.9290  -11.8530 C.2     1  UNL1        0.0030
     21  C         26.3630  -19.7650  -11.0360 C.2     1  UNL1        0.0010
     22  C         25.4780  -20.6820  -11.6070 C.2     1  UNL1        0.0120
     23  C         17.4960  -22.2080   -9.5900 C.3     1  UNL1        0.3110
     24  N         17.2930  -22.7120   -8.2270 N.3     1  UNL1        0.0970
     25  C         15.9340  -23.1870   -7.9560 C.3     1  UNL1        0.2770
     26  C         15.9040  -24.0120   -6.6600 C.3     1  UNL1        0.0690
     27  C         16.6310  -23.3440   -5.5200 C.2     1  UNL1       -0.0490
     28  C         16.4530  -23.7990   -4.2060 C.2     1  UNL1        0.0070
     29  C         17.5420  -22.3050   -5.7810 C.2     1  UNL1       -0.0240
     30  C         17.1560  -23.2100   -3.1530 C.2     1  UNL1        0.0010
     31  C         18.0430  -22.1670   -3.4060 C.2     1  UNL1        0.0010
     32  C         18.2330  -21.7130   -4.7120 C.2     1  UNL1        0.0090
     33  C         17.7270  -21.7690   -7.1870 C.3     1  UNL1        0.3110
@<TRIPOS>BOND
     1    14    13    1
     2    15    13    1
     3    13    16    1
     4    13    12    1
     5    16    17    1
     6    12    11    1
     7    17    18    2
     8    17    19    1
     9    11    19    1
    10    11     8    1
    11     9     8    1
    12    18    20    1
    13    19    22    2
    14     8     7   am
    15    20    21    2
    16     7    10    2
    17     7     1    1
    18     6     1    2
    19     6     5    1
    20    22    21    1
    21     1     2    1
    22     5     4    2
    23     2     3    2
    24     4     3    1
    25     4    23    1
    26    23    24    1
    27    24    25    1
    28    24    33    1
    29    25    26    1
    30    33    29    1
    31    26    27    1
    32    29    27    2
    33    29    32    1
    34    27    28    1
    35    32    31    2
    36    28    30    2
    37    31    30    1
