@<TRIPOS>MOLECULE
41252_out_ligand_01.pdbqt
 34 38 0 0 0
SMALL
GASTEIGER

@<TRIPOS>ATOM
      1  C         19.4990  -22.1430  -10.7370 C.2     1  UNL1        0.0320
      2  C         20.1280  -21.5960  -11.8610 C.2     1  UNL1        0.0170
      3  C         21.4960  -21.7990  -12.0650 C.2     1  UNL1        0.0100
      4  C         22.2510  -22.5550  -11.1540 C.2     1  UNL1       -0.0300
      5  C         21.6090  -23.0970  -10.0310 C.2     1  UNL1        0.0100
      6  C         20.2420  -22.9030   -9.8290 C.2     1  UNL1        0.0170
      7  C         18.0430  -21.9630  -10.4930 C.2     1  UNL1        0.2510
      8  O         17.4610  -20.9740  -10.9270 O.2     1  UNL1       -0.2680
      9  N         17.4170  -22.9810   -9.7980 N.am    1  UNL1       -0.3570
     10  H         17.8820  -23.8780   -9.7870 H       1  UNL1        0.1620
     11  C         15.9700  -22.9900   -9.6770 C.3     1  UNL1        0.1240
     12  C         15.5170  -23.8730   -8.5220 C.3     1  UNL1        0.0390
     13  C         16.6880  -24.3220   -7.6440 C.3     1  UNL1        0.1240
     14  N         16.6110  -23.7280   -6.3080 N.pl3   1  UNL1       -0.3800
     15  C         15.3250  -23.8540   -5.6120 C.3     1  UNL1        0.1230
     16  C         15.5230  -23.7740   -4.1090 C.3     1  UNL1        0.0240
     17  C         16.1080  -22.4160   -3.7610 C.3     1  UNL1        0.0420
     18  C         17.2980  -22.0910   -4.6290 C.2     1  UNL1       -0.0320
     19  C         18.1840  -21.0900   -4.1820 C.2     1  UNL1        0.0090
     20  C         17.4940  -22.7390   -5.8710 C.2     1  UNL1        0.0360
     21  C         19.2930  -20.7370   -4.9400 C.2     1  UNL1        0.0010
     22  C         19.5220  -21.3780   -6.1500 C.2     1  UNL1        0.0020
     23  C         18.6340  -22.3650   -6.6040 C.2     1  UNL1        0.0300
     24  C         23.7330  -22.7820  -11.3840 C.3     1  UNL1        0.3110
     25  N         24.5170  -21.6370  -11.8620 N.3     1  UNL1        0.0970
     26  C         25.7710  -21.4240  -11.1350 C.3     1  UNL1        0.2770
     27  C         26.3270  -20.0260  -11.4380 C.3     1  UNL1        0.0690
     28  C         26.3550  -19.7170  -12.9140 C.2     1  UNL1       -0.0490
     29  C         27.1210  -18.6480  -13.3980 C.2     1  UNL1        0.0070
     30  C         25.5620  -20.4680  -13.8020 C.2     1  UNL1       -0.0240
     31  C         27.1210  -18.3390  -14.7580 C.2     1  UNL1        0.0010
     32  C         26.3520  -19.0920  -15.6430 C.2     1  UNL1        0.0010
     33  C         25.5770  -20.1520  -15.1700 C.2     1  UNL1        0.0090
     34  C         24.7590  -21.6580  -13.3110 C.3     1  UNL1        0.3110
@<TRIPOS>BOND
     1    32    33    2
     2    32    31    1
     3    33    30    1
     4    31    29    2
     5    30    34    1
     6    30    28    2
     7    29    28    1
     8    34    25    1
     9    28    27    1
    10     3     2    1
    11     3     4    2
    12    25    24    1
    13    25    26    1
    14     2     1    2
    15    27    26    1
    16    24     4    1
    17     4     5    1
    18     8     7    2
    19     1     7    1
    20     1     6    1
    21     7     9   am
    22     5     6    2
    23     9    10    1
    24     9    11    1
    25    11    12    1
    26    12    13    1
    27    13    14    1
    28    23    22    2
    29    23    20    1
    30    14    20    1
    31    14    15    1
    32    22    21    1
    33    20    18    2
    34    15    16    1
    35    21    19    2
    36    18    19    1
    37    18    17    1
    38    16    17    1
