@<TRIPOS>MOLECULE
41254_out_ligand_01.pdbqt
 28 31 0 0 0
SMALL
GASTEIGER

@<TRIPOS>ATOM
      1  C         20.1910  -21.9330  -11.3460 C.2     1  UNL1        0.0320
      2  C         19.0540  -21.3260  -11.8890 C.2     1  UNL1        0.0170
      3  C         17.7970  -21.5550  -11.3250 C.2     1  UNL1        0.0100
      4  C         17.6550  -22.3990  -10.2130 C.2     1  UNL1       -0.0300
      5  C         18.7980  -23.0240   -9.6910 C.2     1  UNL1        0.0100
      6  C         20.0580  -22.7960  -10.2520 C.2     1  UNL1        0.0170
      7  C         21.5080  -21.6590  -11.9830 C.2     1  UNL1        0.2520
      8  N         22.6260  -22.0580  -11.2780 N.am    1  UNL1       -0.3520
      9  H         22.5220  -22.4860  -10.3690 H       1  UNL1        0.1630
     10  O         21.5600  -21.0840  -13.0640 O.2     1  UNL1       -0.2680
     11  C         23.9700  -21.9000  -11.8210 C.3     1  UNL1        0.0880
     12  C         24.9520  -21.4920  -10.7210 C.3     1  UNL1        0.0550
     13  C         26.3790  -21.4180  -11.2650 C.3     1  UNL1        0.2740
     14  N         26.8260  -22.6420  -11.9380 N.3     1  UNL1        0.0840
     15  C         27.1210  -23.7210  -10.9990 C.3     1  UNL1        0.3090
     16  C         25.8840  -23.0530  -12.9860 C.3     1  UNL1        0.2740
     17  C         24.4380  -23.1870  -12.5060 C.3     1  UNL1        0.0550
     18  C         16.2900  -22.6460   -9.6050 C.3     1  UNL1        0.3110
     19  N         16.2270  -22.8050   -8.1480 N.3     1  UNL1        0.0970
     20  C         15.9630  -24.1730   -7.7020 C.3     1  UNL1        0.2770
     21  C         15.5500  -24.1800   -6.2220 C.3     1  UNL1        0.0690
     22  C         16.4670  -23.3550   -5.3560 C.2     1  UNL1       -0.0490
     23  C         16.4340  -23.4960   -3.9620 C.2     1  UNL1        0.0070
     24  C         17.3140  -22.3980   -5.9430 C.2     1  UNL1       -0.0240
     25  C         17.2570  -22.7090   -3.1550 C.2     1  UNL1        0.0010
     26  C         18.1110  -21.7740   -3.7340 C.2     1  UNL1        0.0010
     27  C         18.1430  -21.6190   -5.1200 C.2     1  UNL1        0.0090
     28  C         17.3950  -22.2500   -7.4490 C.3     1  UNL1        0.3110
@<TRIPOS>BOND
     1    10     7    2
     2    16    17    1
     3    16    14    1
     4    17    11    1
     5     7     1    1
     6     7     8   am
     7    14    13    1
     8    14    15    1
     9     2     1    2
    10     2     3    1
    11    11     8    1
    12    11    12    1
    13     1     6    1
    14     3     4    2
    15     8     9    1
    16    13    12    1
    17     6     5    2
    18     4     5    1
    19     4    18    1
    20    18    19    1
    21    19    20    1
    22    19    28    1
    23    20    21    1
    24    28    24    1
    25    21    22    1
    26    24    22    2
    27    24    27    1
    28    22    23    1
    29    27    26    2
    30    23    25    2
    31    26    25    1
