@<TRIPOS>MOLECULE
41268_out_ligand_01.pdbqt
 38 40 0 0 0
SMALL
GASTEIGER

@<TRIPOS>ATOM
      1  C         22.3860  -22.5270  -10.2810 C.3     1  UNL1        0.1680
      2  N         23.6070  -23.3420  -10.5070 N.3     1  UNL1       -0.2020
      3  H         23.7630  -24.0400   -9.7710 H       1  UNL1        0.1410
      4  S         25.0300  -22.5050  -10.8270 S.O2    1  UNL1        0.2420
      5  O         26.1070  -23.2500  -10.2220 O.2     1  UNL1       -0.2060
      6  O         24.8010  -21.1020  -10.5620 O.2     1  UNL1       -0.2060
      7  C         25.1540  -22.7350  -12.5840 C.2     1  UNL1        0.0750
      8  C         25.2220  -21.6120  -13.4100 C.2     1  UNL1        0.0270
      9  C         25.3390  -21.7750  -14.7920 C.2     1  UNL1        0.0390
     10  C         25.3850  -23.0560  -15.3550 C.2     1  UNL1        0.0740
     11  C         25.2920  -24.1870  -14.5180 C.2     1  UNL1       -0.0270
     12  C         25.1780  -24.0200  -13.1290 C.2     1  UNL1        0.0340
     13  C         25.3180  -25.5740  -15.1010 C.3     1  UNL1        0.0510
     14  O         25.5000  -23.3240  -16.6920 O.2     1  UNL1       -0.3510
     15  C         24.6210  -22.6840  -17.6160 C.3     1  UNL1        0.1710
     16  C         23.4750  -23.6060  -17.9940 C.3     1  UNL1        0.0340
     17  C         21.5760  -22.3890  -11.5820 C.3     1  UNL1        0.0680
     18  C         20.1250  -21.9980  -11.4080 C.2     1  UNL1       -0.0560
     19  C         19.7250  -20.6680  -11.5940 C.2     1  UNL1        0.0070
     20  C         18.3850  -20.3040  -11.4510 C.2     1  UNL1        0.0010
     21  C         17.4340  -21.2670  -11.1190 C.2     1  UNL1        0.0000
     22  C         17.8200  -22.5920  -10.9310 C.2     1  UNL1        0.0010
     23  C         19.1600  -22.9570  -11.0740 C.2     1  UNL1        0.0070
     24  C         21.5530  -23.1730   -9.1580 C.2     1  UNL1        0.2410
     25  O         21.6090  -24.3840   -8.9550 O.2     1  UNL1       -0.2710
     26  N         20.7520  -22.2660   -8.4810 N.am    1  UNL1       -0.3260
     27  H         20.8950  -21.2830   -8.6800 H       1  UNL1        0.1690
     28  C         19.7940  -22.5500   -7.4840 C.2     1  UNL1        0.0340
     29  C         19.0160  -23.7090   -7.4550 C.2     1  UNL1        0.0300
     30  C         18.0670  -23.9090   -6.4420 C.2     1  UNL1        0.0190
     31  C         17.8820  -22.9430   -5.4500 C.2     1  UNL1        0.0320
     32  C         18.6710  -21.7900   -5.4640 C.2     1  UNL1        0.0190
     33  C         19.6170  -21.5930   -6.4770 C.2     1  UNL1        0.0300
     34  C         16.8800  -23.0990   -4.3610 C.2     1  UNL1        0.2490
     35  N         16.6320  -22.0130   -3.5680 N.am    1  UNL1       -0.3660
     36  H         16.0500  -22.1810   -2.7580 H       1  UNL1        0.1590
     37  H         17.2430  -21.2110   -3.5430 H       1  UNL1        0.1590
     38  O         16.3260  -24.1710   -4.1480 O.2     1  UNL1       -0.2680
@<TRIPOS>BOND
     1    16    15    1
     2    15    14    1
     3    14    10    1
     4    10     9    2
     5    10    11    1
     6    13    11    1
     7     9     8    1
     8    11    12    2
     9     8     7    2
    10    12     7    1
    11     7     4    1
    12    19    20    1
    13    19    18    2
    14    17    18    1
    15    17     1    1
    16    20    21    2
    17    18    23    1
    18    21    22    1
    19    23    22    2
    20     4     6    2
    21     4     2    1
    22     4     5    2
    23     2     1    1
    24     2     3    1
    25     1    24    1
    26    24    25    2
    27    24    26   am
    28    27    26    1
    29    26    28    1
    30    28    29    2
    31    28    33    1
    32    29    30    1
    33    33    32    2
    34    30    31    2
    35    32    31    1
    36    31    34    1
    37    34    38    2
    38    34    35   am
    39    35    37    1
    40    35    36    1
