@<TRIPOS>MOLECULE
41264_out_ligand_01.pdbqt
 34 38 0 0 0
SMALL
GASTEIGER

@<TRIPOS>ATOM
      1  C         22.6440  -22.5270  -10.7830 C.2     1  UNL1        0.0320
      2  C         21.6020  -21.8000  -11.3730 C.2     1  UNL1        0.0170
      3  C         20.2750  -22.0580  -11.0130 C.2     1  UNL1        0.0100
      4  C         19.9660  -23.0480  -10.0700 C.2     1  UNL1       -0.0300
      5  C         21.0120  -23.7880   -9.5020 C.2     1  UNL1        0.0100
      6  C         22.3390  -23.5290   -9.8550 C.2     1  UNL1        0.0170
      7  C         24.0780  -22.3010  -11.1270 C.2     1  UNL1        0.2520
      8  N         24.5110  -22.7890  -12.3410 N.am    1  UNL1       -0.3480
      9  H         23.8440  -23.1450  -13.0100 H       1  UNL1        0.1630
     10  O         24.8090  -21.6900  -10.3550 O.2     1  UNL1       -0.2680
     11  C         25.8790  -22.6020  -12.8000 C.3     1  UNL1        0.1230
     12  C         26.5820  -23.9200  -13.1270 C.3     1  UNL1        0.0680
     13  C         26.2190  -24.4460  -14.5230 C.3     1  UNL1        0.0630
     14  O         26.4950  -23.4780  -15.5490 O.2     1  UNL1       -0.3400
     15  C         24.7570  -24.9010  -14.6500 C.3     1  UNL1        0.0460
     16  C         27.1200  -25.6530  -14.8350 C.3     1  UNL1        0.0460
     17  C         26.2040  -22.1730  -15.2700 C.2     1  UNL1        0.0780
     18  C         25.9070  -21.6870  -13.9960 C.2     1  UNL1       -0.0020
     19  C         26.2390  -21.3040  -16.3650 C.2     1  UNL1        0.0440
     20  C         25.6230  -20.3210  -13.8390 C.2     1  UNL1        0.0120
     21  C         25.6480  -19.4570  -14.9350 C.2     1  UNL1        0.0070
     22  C         25.9700  -19.9400  -16.2060 C.2     1  UNL1       -0.0590
     23  C         25.9730  -19.0200  -17.3910 C.3     1  UNL1        0.0480
     24  C         18.5260  -23.3270   -9.6860 C.3     1  UNL1        0.3110
     25  N         18.2140  -23.3800   -8.2540 N.3     1  UNL1        0.0970
     26  C         16.8520  -23.8220   -7.9520 C.3     1  UNL1        0.2770
     27  C         16.7270  -24.1930   -6.4660 C.3     1  UNL1        0.0690
     28  C         17.3280  -23.1580   -5.5480 C.2     1  UNL1       -0.0490
     29  C         17.0430  -23.1820   -4.1760 C.2     1  UNL1        0.0070
     30  C         18.2250  -22.2030   -6.0580 C.2     1  UNL1       -0.0240
     31  C         17.6230  -22.2480   -3.3200 C.2     1  UNL1        0.0010
     32  C         18.4960  -21.2880   -3.8250 C.2     1  UNL1        0.0010
     33  C         18.7960  -21.2640   -5.1870 C.2     1  UNL1        0.0090
     34  C         18.5210  -22.1320   -7.5430 C.3     1  UNL1        0.3110
@<TRIPOS>BOND
     1    23    22    1
     2    19    22    1
     3    19    17    2
     4    22    21    2
     5    14    17    1
     6    14    13    1
     7    17    18    1
     8    21    20    1
     9    16    13    1
    10    15    13    1
    11    13    12    1
    12    18    20    2
    13    18    11    1
    14    12    11    1
    15     9     8    1
    16    11     8    1
    17     8     7   am
    18     2     3    1
    19     2     1    2
    20     7     1    1
    21     7    10    2
    22     3     4    2
    23     1     6    1
    24     4    24    1
    25     4     5    1
    26     6     5    2
    27    24    25    1
    28    25    26    1
    29    25    34    1
    30    26    27    1
    31    34    30    1
    32    27    28    1
    33    30    28    2
    34    30    33    1
    35    28    29    1
    36    33    32    2
    37    29    31    2
    38    32    31    1
