@<TRIPOS>MOLECULE
41265_out_ligand_01.pdbqt
 32 35 0 0 0
SMALL
GASTEIGER

@<TRIPOS>ATOM
      1  C         22.8910  -22.0880   -9.8890 C.2     1  UNL1        0.0320
      2  C         22.8030  -22.0600   -8.4940 C.2     1  UNL1        0.0170
      3  C         21.5540  -22.1080   -7.8680 C.2     1  UNL1        0.0100
      4  C         20.3810  -22.2000   -8.6300 C.2     1  UNL1       -0.0300
      5  C         20.4790  -22.2510  -10.0290 C.2     1  UNL1        0.0100
      6  C         21.7250  -22.1960  -10.6570 C.2     1  UNL1        0.0170
      7  C         24.2370  -22.0200  -10.5180 C.2     1  UNL1        0.2520
      8  N         24.6470  -23.1570  -11.1820 N.am    1  UNL1       -0.3480
      9  H         23.9560  -23.8630  -11.3960 H       1  UNL1        0.1630
     10  O         24.8930  -20.9870  -10.4650 O.2     1  UNL1       -0.2680
     11  C         25.8880  -23.1910  -11.9450 C.3     1  UNL1        0.1170
     12  C         26.7890  -24.3550  -11.4840 C.3     1  UNL1        0.0250
     13  C         27.1180  -24.3030   -9.9970 C.3     1  UNL1        0.0070
     14  C         25.5490  -23.2410  -13.4270 C.2     1  UNL1       -0.0350
     15  C         25.4150  -24.4550  -14.1120 C.2     1  UNL1        0.0100
     16  C         25.0780  -24.4730  -15.4670 C.2     1  UNL1        0.0080
     17  C         24.8570  -23.2800  -16.1700 C.2     1  UNL1       -0.0560
     18  C         24.4970  -23.3390  -17.6290 C.3     1  UNL1        0.0490
     19  C         24.9880  -22.0500  -15.4960 C.2     1  UNL1       -0.0560
     20  C         24.7570  -20.7410  -16.2000 C.3     1  UNL1        0.0490
     21  C         25.3240  -22.0470  -14.1310 C.2     1  UNL1        0.0160
     22  C         19.0240  -22.2560   -7.9550 C.3     1  UNL1        0.3110
     23  N         18.4030  -23.5900   -8.0240 N.3     1  UNL1        0.0970
     24  C         17.1250  -23.5640   -8.7570 C.3     1  UNL1        0.2770
     25  C         16.0190  -22.7350   -8.0830 C.3     1  UNL1        0.0690
     26  C         15.9620  -22.9370   -6.5910 C.2     1  UNL1       -0.0490
     27  C         14.8850  -22.4240   -5.8590 C.2     1  UNL1        0.0070
     28  C         17.0180  -23.5830   -5.9190 C.2     1  UNL1       -0.0240
     29  C         14.8430  -22.5670   -4.4730 C.2     1  UNL1        0.0010
     30  C         15.8780  -23.2200   -3.8070 C.2     1  UNL1        0.0010
     31  C         16.9580  -23.7300   -4.5260 C.2     1  UNL1        0.0090
     32  C         18.1780  -24.1800   -6.6900 C.3     1  UNL1        0.3110
@<TRIPOS>BOND
     1    18    17    1
     2    20    19    1
     3    17    19    2
     4    17    16    1
     5    19    21    1
     6    16    15    2
     7    21    14    2
     8    15    14    1
     9    14    11    1
    10    11    12    1
    11    11     8    1
    12    12    13    1
    13     9     8    1
    14     8     7   am
    15     6     5    1
    16     6     1    2
    17     7    10    2
    18     7     1    1
    19     5     4    2
    20     1     2    1
    21    24    25    1
    22    24    23    1
    23     4    22    1
    24     4     3    1
    25     2     3    2
    26    25    26    1
    27    23    22    1
    28    23    32    1
    29    32    28    1
    30    26    28    2
    31    26    27    1
    32    28    31    1
    33    27    29    2
    34    31    30    2
    35    29    30    1
