@<TRIPOS>MOLECULE
41266_out_ligand_01.pdbqt
 32 35 0 0 0
SMALL
GASTEIGER

@<TRIPOS>ATOM
      1  C         22.7980  -22.0730   -9.8740 C.2     1  UNL1        0.0320
      2  C         22.6890  -22.0930   -8.4780 C.2     1  UNL1        0.0170
      3  C         21.4290  -22.1490   -7.8790 C.2     1  UNL1        0.0100
      4  C         20.2650  -22.1950   -8.6630 C.2     1  UNL1       -0.0300
      5  C         20.3840  -22.2040  -10.0600 C.2     1  UNL1        0.0100
      6  C         21.6430  -22.1470  -10.6610 C.2     1  UNL1        0.0170
      7  C         24.1160  -21.9930  -10.5640 C.2     1  UNL1        0.2520
      8  N         24.4320  -23.0500  -11.3910 N.am    1  UNL1       -0.3480
      9  H         23.7930  -23.8240  -11.4860 H       1  UNL1        0.1630
     10  O         24.8580  -21.0370  -10.3590 O.2     1  UNL1       -0.2680
     11  C         25.6440  -23.0790  -12.1950 C.3     1  UNL1        0.1180
     12  C         26.5760  -24.2310  -11.7710 C.3     1  UNL1        0.0250
     13  C         27.1190  -24.0410  -10.3570 C.3     1  UNL1        0.0070
     14  C         25.2620  -23.0490  -13.6750 C.2     1  UNL1       -0.0290
     15  C         25.2640  -24.2950  -14.3430 C.2     1  UNL1        0.0100
     16  C         24.9440  -24.4070  -15.6970 C.2     1  UNL1        0.0070
     17  C         24.6070  -23.2740  -16.4310 C.2     1  UNL1       -0.0610
     18  C         24.2750  -23.3700  -17.8900 C.3     1  UNL1        0.0480
     19  C         24.6330  -22.0260  -15.7950 C.2     1  UNL1        0.0140
     20  C         24.9700  -21.8920  -14.4300 C.2     1  UNL1       -0.0530
     21  C         24.9680  -20.5000  -13.8570 C.3     1  UNL1        0.0490
     22  C         18.8980  -22.2380   -8.0100 C.3     1  UNL1        0.3110
     23  N         18.3160  -23.5910   -7.9890 N.3     1  UNL1        0.0970
     24  C         17.0150  -23.6410   -8.6730 C.3     1  UNL1        0.2770
     25  C         15.9060  -22.8170   -7.9960 C.3     1  UNL1        0.0690
     26  C         15.9010  -22.9670   -6.4940 C.2     1  UNL1       -0.0490
     27  C         14.8240  -22.4730   -5.7420 C.2     1  UNL1        0.0070
     28  C         17.0000  -23.5490   -5.8370 C.2     1  UNL1       -0.0240
     29  C         14.8270  -22.5810   -4.3520 C.2     1  UNL1        0.0010
     30  C         15.9040  -23.1780   -3.7010 C.2     1  UNL1        0.0010
     31  C         16.9850  -23.6620   -4.4380 C.2     1  UNL1        0.0090
     32  C         18.1630  -24.1230   -6.6210 C.3     1  UNL1        0.3110
@<TRIPOS>BOND
     1    18    17    1
     2    17    19    2
     3    17    16    1
     4    19    20    1
     5    16    15    2
     6    20    21    1
     7    20    14    2
     8    15    14    1
     9    14    11    1
    10    11    12    1
    11    11     8    1
    12    12    13    1
    13     9     8    1
    14     8     7   am
    15     6     5    1
    16     6     1    2
    17     7    10    2
    18     7     1    1
    19     5     4    2
    20     1     2    1
    21    24    25    1
    22    24    23    1
    23     4    22    1
    24     4     3    1
    25     2     3    2
    26    22    23    1
    27    25    26    1
    28    23    32    1
    29    32    28    1
    30    26    28    2
    31    26    27    1
    32    28    31    1
    33    27    29    2
    34    31    30    2
    35    29    30    1
