@<TRIPOS>MOLECULE
41272_out_ligand_01.pdbqt
 32 35 0 0 0
SMALL
GASTEIGER

@<TRIPOS>ATOM
      1  C         22.3300  -23.1690   -9.8710 C.2     1  UNL1        0.0320
      2  C         21.9670  -22.7010  -11.1400 C.2     1  UNL1        0.0170
      3  C         22.9480  -22.3690  -12.0790 C.2     1  UNL1        0.0110
      4  C         24.3120  -22.4870  -11.7650 C.2     1  UNL1       -0.0250
      5  C         24.6660  -22.9500  -10.4860 C.2     1  UNL1        0.0110
      6  C         23.6860  -23.2770   -9.5430 C.2     1  UNL1        0.0170
      7  C         21.2420  -23.5170   -8.9100 C.2     1  UNL1        0.2520
      8  N         20.6290  -22.4630   -8.2690 N.am    1  UNL1       -0.3490
      9  H         21.0000  -21.5270   -8.3570 H       1  UNL1        0.1630
     10  O         20.9490  -24.6920   -8.7090 O.2     1  UNL1       -0.2680
     11  C         19.5690  -22.6620   -7.2920 C.3     1  UNL1        0.1140
     12  C         19.5880  -21.5650   -6.2160 C.3     1  UNL1        0.0370
     13  C         18.2400  -22.7750   -8.0320 C.2     1  UNL1       -0.0290
     14  C         17.2290  -23.6630   -7.5990 C.2     1  UNL1       -0.0540
     15  C         16.0300  -23.7520   -8.3250 C.2     1  UNL1        0.0080
     16  C         17.3840  -24.5150   -6.3660 C.3     1  UNL1        0.0490
     17  C         15.8320  -22.9970   -9.4800 C.2     1  UNL1        0.0070
     18  C         16.8240  -22.1290   -9.9340 C.2     1  UNL1       -0.0610
     19  C         16.6250  -21.3520  -11.2010 C.3     1  UNL1        0.0480
     20  C         18.0250  -22.0360   -9.2160 C.2     1  UNL1        0.0160
     21  C         25.3570  -22.1410  -12.8090 C.3     1  UNL1        0.1830
     22  S         26.9680  -21.8460  -12.0320 S.3     1  UNL1       -0.1300
     23  C         27.1210  -20.1670  -12.6690 C.3     1  UNL1        0.1790
     24  C         25.9450  -19.9230  -13.5820 C.2     1  UNL1        0.2300
     25  O         25.8250  -18.8980  -14.2490 O.2     1  UNL1       -0.2720
     26  N         25.0300  -20.9560  -13.5710 N.am    1  UNL1       -0.3280
     27  C         23.9160  -20.9780  -14.5060 C.3     1  UNL1        0.1920
     28  C         24.3180  -21.6910  -15.7450 C.2     1  UNL1        0.0700
     29  C         24.5320  -23.0190  -16.0420 C.2     1  UNL1        0.0360
     30  C         24.8980  -23.0690  -17.4080 C.2     1  UNL1        0.0270
     31  C         24.8900  -21.7660  -17.8550 C.2     1  UNL1        0.1420
     32  O         24.5360  -20.9210  -16.8540 O.2     1  UNL1       -0.3250
@<TRIPOS>BOND
     1    31    30    2
     2    31    32    1
     3    30    29    1
     4    32    28    1
     5    29    28    2
     6    28    27    1
     7    27    26    1
     8    25    24    2
     9    24    26   am
    10    24    23    1
    11    26    21    1
    12    21    22    1
    13    21     4    1
    14    23    22    1
    15     3     4    2
    16     3     2    1
    17     4     5    1
    18    19    18    1
    19     2     1    2
    20     5     6    2
    21    18    17    2
    22    18    20    1
    23     1     6    1
    24     1     7    1
    25    17    15    1
    26    20    13    2
    27     7    10    2
    28     7     8   am
    29     9     8    1
    30    15    14    2
    31     8    11    1
    32    13    14    1
    33    13    11    1
    34    14    16    1
    35    11    12    1
