@<TRIPOS>MOLECULE
41273_out_ligand_01.pdbqt
 31 33 0 0 0
SMALL
GASTEIGER

@<TRIPOS>ATOM
      1  C         19.5390  -21.8530   -5.9800 C.2     1  UNL1        0.0330
      2  C         19.5300  -20.5720   -5.4040 C.2     1  UNL1        0.0170
      3  C         18.6620  -20.2940   -4.3460 C.2     1  UNL1        0.0030
      4  C         17.8030  -21.2870   -3.8710 C.2     1  UNL1        0.0240
      5  C         17.7980  -22.5550   -4.4590 C.2     1  UNL1        0.0230
      6  C         18.6650  -22.8420   -5.5130 C.2     1  UNL1        0.0410
      7  C         20.4470  -22.1970   -7.1060 C.2     1  UNL1        0.2520
      8  N         20.0760  -23.2870   -7.8650 N.am    1  UNL1       -0.3490
      9  H         19.1410  -23.6560   -7.7540 H       1  UNL1        0.1630
     10  O         21.4370  -21.5050   -7.3220 O.2     1  UNL1       -0.2680
     11  C         20.7850  -23.6590   -9.0800 C.3     1  UNL1        0.1140
     12  C         20.5150  -25.1290   -9.4170 C.3     1  UNL1        0.0370
     13  C         20.3970  -22.7090  -10.2090 C.2     1  UNL1       -0.0290
     14  C         21.3430  -22.2600  -11.1610 C.2     1  UNL1       -0.0540
     15  C         20.9330  -21.3840  -12.1820 C.2     1  UNL1        0.0080
     16  C         22.7890  -22.6880  -11.1250 C.3     1  UNL1        0.0490
     17  C         19.6130  -20.9320  -12.2580 C.2     1  UNL1        0.0070
     18  C         18.6750  -21.3360  -11.3090 C.2     1  UNL1       -0.0610
     19  C         17.2500  -20.8690  -11.4080 C.3     1  UNL1        0.0480
     20  C         19.0690  -22.2300  -10.3030 C.2     1  UNL1        0.0160
     21  N         16.9430  -23.5840   -3.9440 N.pl3   1  UNL1       -0.1810
     22  H         16.9650  -23.6390   -2.9250 H       1  UNL1        0.1460
     23  S         15.3190  -23.4700   -4.4600 S.O2    1  UNL1        0.2450
     24  O         14.7770  -22.1830   -4.0780 O.2     1  UNL1       -0.2060
     25  O         14.6670  -24.7130   -4.1000 O.2     1  UNL1       -0.2060
     26  C         15.5380  -23.4600   -6.2240 C.2     1  UNL1        0.0740
     27  C         15.7570  -24.6680   -6.8920 C.2     1  UNL1        0.0250
     28  C         15.9490  -24.6620   -8.2740 C.2     1  UNL1        0.0020
     29  C         15.9260  -23.4540   -8.9760 C.2     1  UNL1        0.0000
     30  C         15.7170  -22.2490   -8.3020 C.2     1  UNL1        0.0020
     31  C         15.5230  -22.2470   -6.9210 C.2     1  UNL1        0.0250
@<TRIPOS>BOND
     1    17    15    2
     2    17    18    1
     3    15    14    1
     4    19    18    1
     5    18    20    2
     6    14    16    1
     7    14    13    2
     8    20    13    1
     9    13    11    1
    10    12    11    1
    11    11     8    1
    12    29    30    2
    13    29    28    1
    14    30    31    1
    15    28    27    2
    16     8     9    1
    17     8     7   am
    18    10     7    2
    19     7     1    1
    20    31    26    2
    21    27    26    1
    22    26    23    1
    23     1     6    2
    24     1     2    1
    25     6     5    1
    26     2     3    2
    27    23    25    2
    28    23    24    2
    29    23    21    1
    30     5    21    1
    31     5     4    2
    32     3     4    1
    33    21    22    1
