@<TRIPOS>MOLECULE
41286_out_ligand_01.pdbqt
 33 35 0 0 0
SMALL
GASTEIGER

@<TRIPOS>ATOM
      1  C         19.5930  -22.7260  -10.8050 C.2     1  UNL1        0.0290
      2  C         20.7650  -22.5370  -11.5410 C.2     1  UNL1        0.0420
      3  C         20.9480  -21.3620  -12.2800 C.2     1  UNL1        0.0330
      4  C         19.9770  -20.3570  -12.2370 C.2     1  UNL1        0.0170
      5  C         18.8120  -20.5440  -11.4870 C.2     1  UNL1        0.0090
      6  C         18.6000  -21.7350  -10.7760 C.2     1  UNL1       -0.0400
      7  C         17.3440  -21.8930   -9.9650 C.3     1  UNL1        0.0500
      8  C         22.2040  -21.2110  -13.0640 C.2     1  UNL1        0.2520
      9  O         22.2280  -20.4290  -14.0050 O.2     1  UNL1       -0.2680
     10  N         23.2780  -21.9540  -12.6300 N.am    1  UNL1       -0.3490
     11  H         23.1470  -22.5790  -11.8490 H       1  UNL1        0.1630
     12  C         24.5350  -22.1200  -13.3530 C.3     1  UNL1        0.1140
     13  C         25.2380  -23.4650  -13.1440 C.3     1  UNL1        0.0370
     14  C         25.4400  -20.9110  -13.1400 C.2     1  UNL1       -0.0290
     15  C         25.7130  -20.0540  -14.2260 C.2     1  UNL1        0.0160
     16  C         26.5540  -18.9430  -14.0980 C.2     1  UNL1       -0.0610
     17  C         26.7960  -18.0330  -15.2670 C.3     1  UNL1        0.0480
     18  C         27.1210  -18.6640  -12.8570 C.2     1  UNL1        0.0070
     19  C         26.8730  -19.5020  -11.7690 C.2     1  UNL1        0.0080
     20  C         26.0450  -20.6300  -11.8930 C.2     1  UNL1       -0.0540
     21  C         25.8250  -21.4900  -10.6790 C.3     1  UNL1        0.0490
     22  N         19.4410  -23.9230  -10.0230 N.pl3   1  UNL1       -0.1810
     23  H         19.6860  -24.7440  -10.5830 H       1  UNL1        0.1460
     24  S         20.4530  -23.9850   -8.6440 S.O2    1  UNL1        0.2450
     25  O         21.4880  -22.9800   -8.7320 O.2     1  UNL1       -0.2060
     26  O         20.7520  -25.3840   -8.4240 O.2     1  UNL1       -0.2060
     27  C         19.3080  -23.4670   -7.3890 C.2     1  UNL1        0.0740
     28  C         19.4360  -22.1940   -6.8290 C.2     1  UNL1        0.0250
     29  C         18.5530  -21.7900   -5.8270 C.2     1  UNL1        0.0080
     30  C         17.5530  -22.6600   -5.3700 C.2     1  UNL1       -0.0620
     31  C         16.5910  -22.2110   -4.3090 C.3     1  UNL1        0.0480
     32  C         17.4360  -23.9340   -5.9430 C.2     1  UNL1        0.0080
     33  C         18.3160  -24.3450   -6.9450 C.2     1  UNL1        0.0250
@<TRIPOS>BOND
     1    17    16    1
     2    15    16    1
     3    15    14    2
     4    16    18    2
     5     9     8    2
     6    12    13    1
     7    12    14    1
     8    12    10    1
     9    14    20    1
    10     8    10   am
    11     8     3    1
    12    18    19    1
    13    10    11    1
    14     3     4    2
    15     3     2    1
    16     4     5    1
    17    20    19    2
    18    20    21    1
    19     2     1    2
    20     5     6    2
    21     1     6    1
    22     1    22    1
    23     6     7    1
    24    23    22    1
    25    22    24    1
    26    25    24    2
    27    24    26    2
    28    24    27    1
    29    27    33    2
    30    27    28    1
    31    33    32    1
    32    28    29    2
    33    32    30    2
    34    29    30    1
    35    30    31    1
