@<TRIPOS>MOLECULE
41288_out_ligand_01.pdbqt
 33 35 0 0 0
SMALL
GASTEIGER

@<TRIPOS>ATOM
      1  C         21.1520  -22.5100  -11.0490 C.2     1  UNL1        0.0290
      2  C         19.8450  -22.5940  -10.5610 C.2     1  UNL1        0.0420
      3  C         18.8470  -21.7740  -11.0940 C.2     1  UNL1        0.0330
      4  C         19.1580  -20.8630  -12.1080 C.2     1  UNL1        0.0170
      5  C         20.4640  -20.7860  -12.5970 C.2     1  UNL1        0.0090
      6  C         21.4770  -21.6040  -12.0710 C.2     1  UNL1       -0.0400
      7  C         22.8640  -21.5130  -12.6420 C.3     1  UNL1        0.0500
      8  C         17.4710  -21.8930  -10.5420 C.2     1  UNL1        0.2520
      9  O         16.6860  -20.9600  -10.6550 O.2     1  UNL1       -0.2680
     10  N         17.1820  -23.0680   -9.8890 N.am    1  UNL1       -0.3490
     11  H         17.9450  -23.6820   -9.6310 H       1  UNL1        0.1630
     12  C         15.9230  -23.2570   -9.1840 C.3     1  UNL1        0.1140
     13  C         15.1230  -24.4260   -9.7640 C.3     1  UNL1        0.0370
     14  C         16.2030  -23.4150   -7.6980 C.2     1  UNL1       -0.0350
     15  C         17.1550  -24.3470   -7.2700 C.2     1  UNL1        0.0100
     16  C         17.4000  -24.5420   -5.9090 C.2     1  UNL1        0.0080
     17  C         16.6920  -23.8180   -4.9400 C.2     1  UNL1       -0.0560
     18  C         16.9920  -24.0520   -3.4850 C.3     1  UNL1        0.0490
     19  C         15.7370  -22.8690   -5.3530 C.2     1  UNL1       -0.0560
     20  C         14.9550  -22.0570   -4.3570 C.3     1  UNL1        0.0490
     21  C         15.4930  -22.6900   -6.7270 C.2     1  UNL1        0.0160
     22  N         22.1460  -23.4160  -10.5410 N.pl3   1  UNL1       -0.1810
     23  H         22.7740  -23.7080  -11.2940 H       1  UNL1        0.1460
     24  S         23.1410  -22.7340   -9.3290 S.O2    1  UNL1        0.2450
     25  O         23.7900  -21.5410   -9.8280 O.2     1  UNL1       -0.2060
     26  O         23.8910  -23.8290   -8.7520 O.2     1  UNL1       -0.2060
     27  C         21.9130  -22.2230   -8.1530 C.2     1  UNL1        0.0740
     28  C         20.7470  -22.9710   -7.9900 C.2     1  UNL1        0.0250
     29  C         19.7940  -22.5610   -7.0540 C.2     1  UNL1        0.0080
     30  C         20.0130  -21.4190   -6.2710 C.2     1  UNL1       -0.0620
     31  C         18.9780  -20.9620   -5.2850 C.3     1  UNL1        0.0480
     32  C         21.1890  -20.6770   -6.4500 C.2     1  UNL1        0.0080
     33  C         22.1440  -21.0810   -7.3840 C.2     1  UNL1        0.0250
@<TRIPOS>BOND
     1     7     6    1
     2     5     4    2
     3     5     6    1
     4     4     3    1
     5     6     1    2
     6    23    22    1
     7     3     2    2
     8     3     8    1
     9     1     2    1
    10     1    22    1
    11     9     8    2
    12     8    10   am
    13    22    24    1
    14    10    11    1
    15    10    12    1
    16    25    24    2
    17    13    12    1
    18    24    26    2
    19    24    27    1
    20    12    14    1
    21    27    28    2
    22    27    33    1
    23    28    29    1
    24    14    15    2
    25    14    21    1
    26    33    32    2
    27    15    16    1
    28    29    30    2
    29    21    19    2
    30    32    30    1
    31    30    31    1
    32    16    17    2
    33    19    17    1
    34    19    20    1
    35    17    18    1
