@<TRIPOS>MOLECULE
41284_out_ligand_01.pdbqt
 33 35 0 0 0
SMALL
GASTEIGER

@<TRIPOS>ATOM
      1  C         19.2350  -22.8510  -10.0870 C.2     1  UNL1        0.0290
      2  C         18.6340  -22.0600  -11.0770 C.2     1  UNL1        0.0250
      3  C         19.3950  -21.1810  -11.8420 C.2     1  UNL1        0.0030
      4  C         20.7620  -21.0780  -11.6100 C.2     1  UNL1        0.0170
      5  C         21.3720  -21.8620  -10.6140 C.2     1  UNL1        0.0390
      6  C         20.6160  -22.7680   -9.8330 C.2     1  UNL1       -0.0240
      7  C         21.2800  -23.5660   -8.7430 C.3     1  UNL1        0.0510
      8  C         22.8320  -21.6800  -10.3900 C.2     1  UNL1        0.2520
      9  O         23.2470  -21.0310   -9.4380 O.2     1  UNL1       -0.2680
     10  N         23.6430  -22.2970  -11.3130 N.am    1  UNL1       -0.3490
     11  H         23.2360  -22.8880  -12.0240 H       1  UNL1        0.1630
     12  C         25.0930  -22.2460  -11.2210 C.3     1  UNL1        0.1140
     13  C         25.7210  -23.5990  -11.5670 C.3     1  UNL1        0.0370
     14  C         25.6100  -21.1140  -12.0930 C.2     1  UNL1       -0.0350
     15  C         26.3940  -20.0760  -11.5760 C.2     1  UNL1        0.0100
     16  C         26.8710  -19.0600  -12.4080 C.2     1  UNL1        0.0080
     17  C         26.5820  -19.0580  -13.7800 C.2     1  UNL1       -0.0560
     18  C         27.1200  -17.9510  -14.6460 C.3     1  UNL1        0.0490
     19  C         25.8100  -20.1040  -14.3200 C.2     1  UNL1       -0.0560
     20  C         25.4830  -20.1620  -15.7880 C.3     1  UNL1        0.0490
     21  C         25.3360  -21.1200  -13.4710 C.2     1  UNL1        0.0160
     22  N         18.3510  -23.6810   -9.3200 N.pl3   1  UNL1       -0.1810
     23  H         18.7990  -24.0570   -8.4840 H       1  UNL1        0.1460
     24  S         16.9100  -22.9240   -8.8100 S.O2    1  UNL1        0.2450
     25  O         15.8330  -23.8850   -8.7100 O.2     1  UNL1       -0.2060
     26  O         16.7930  -21.7140   -9.5970 O.2     1  UNL1       -0.2060
     27  C         17.3660  -22.4590   -7.1560 C.2     1  UNL1        0.0740
     28  C         18.6350  -21.9190   -6.9240 C.2     1  UNL1        0.0250
     29  C         19.0050  -21.5700   -5.6250 C.2     1  UNL1        0.0080
     30  C         18.1130  -21.7550   -4.5580 C.2     1  UNL1       -0.0620
     31  C         18.5210  -21.4110   -3.1560 C.3     1  UNL1        0.0480
     32  C         16.8550  -22.3200   -4.8040 C.2     1  UNL1        0.0080
     33  C         16.4770  -22.6730   -6.1010 C.2     1  UNL1        0.0250
@<TRIPOS>BOND
     1    20    19    1
     2    18    17    1
     3    19    17    2
     4    19    21    1
     5    17    16    1
     6    21    14    2
     7    16    15    2
     8    14    15    1
     9    14    12    1
    10    11    10    1
    11     3     4    2
    12     3     2    1
    13     4     5    1
    14    13    12    1
    15    10    12    1
    16    10     8   am
    17     2     1    2
    18     5     8    1
    19     5     6    2
    20     8     9    2
    21     1     6    1
    22     1    22    1
    23     6     7    1
    24    26    24    2
    25    22    24    1
    26    22    23    1
    27    24    25    2
    28    24    27    1
    29    27    28    2
    30    27    33    1
    31    28    29    1
    32    33    32    2
    33    29    30    2
    34    32    30    1
    35    30    31    1
