@<TRIPOS>MOLECULE
41283_out_ligand_01.pdbqt
 33 35 0 0 0
SMALL
GASTEIGER

@<TRIPOS>ATOM
      1  C         23.0290  -22.7540  -11.3340 C.2     1  UNL1        0.0290
      2  C         22.2270  -22.0900  -12.2720 C.2     1  UNL1        0.0250
      3  C         20.8970  -21.7950  -11.9870 C.2     1  UNL1        0.0030
      4  C         20.3620  -22.1620  -10.7580 C.2     1  UNL1        0.0170
      5  C         21.1530  -22.8430   -9.8180 C.2     1  UNL1        0.0390
      6  C         22.4990  -23.1700  -10.0990 C.2     1  UNL1       -0.0240
      7  C         23.3300  -23.9110   -9.0850 C.3     1  UNL1        0.0510
      8  C         20.5340  -23.1770   -8.5070 C.2     1  UNL1        0.2520
      9  O         20.3680  -24.3440   -8.1790 O.2     1  UNL1       -0.2680
     10  N         20.1630  -22.0880   -7.7500 N.am    1  UNL1       -0.3490
     11  H         20.0740  -21.2040   -8.2340 H       1  UNL1        0.1630
     12  C         19.4070  -22.2330   -6.5170 C.3     1  UNL1        0.1140
     13  C         19.3260  -20.9430   -5.6930 C.3     1  UNL1        0.0370
     14  C         18.0150  -22.8050   -6.7790 C.2     1  UNL1       -0.0290
     15  C         17.4380  -22.5250   -8.0380 C.2     1  UNL1        0.0160
     16  C         16.1720  -23.0020   -8.3980 C.2     1  UNL1       -0.0610
     17  C         15.5770  -22.6550   -9.7300 C.3     1  UNL1        0.0480
     18  C         15.4510  -23.7550   -7.4750 C.2     1  UNL1        0.0070
     19  C         16.0000  -24.0490   -6.2280 C.2     1  UNL1        0.0080
     20  C         17.2840  -23.6000   -5.8660 C.2     1  UNL1       -0.0540
     21  C         17.7630  -23.9450   -4.4810 C.3     1  UNL1        0.0490
     22  N         24.3860  -23.0300  -11.7060 N.pl3   1  UNL1       -0.1810
     23  H         24.5070  -23.3030  -12.6800 H       1  UNL1        0.1460
     24  S         25.5080  -21.8230  -11.2730 S.O2    1  UNL1        0.2450
     25  O         24.8310  -20.8860  -10.4010 O.2     1  UNL1       -0.2060
     26  O         26.7610  -22.4430  -10.8990 O.2     1  UNL1       -0.2060
     27  C         25.7460  -21.0300  -12.8440 C.2     1  UNL1        0.0740
     28  C         26.2460  -19.7270  -12.9030 C.2     1  UNL1        0.0250
     29  C         26.4280  -19.1190  -14.1470 C.2     1  UNL1        0.0080
     30  C         26.1090  -19.8040  -15.3270 C.2     1  UNL1       -0.0620
     31  C         26.3350  -19.1620  -16.6650 C.3     1  UNL1        0.0480
     32  C         25.6290  -21.1200  -15.2510 C.2     1  UNL1        0.0080
     33  C         25.4450  -21.7350  -14.0120 C.2     1  UNL1        0.0250
@<TRIPOS>BOND
     1    31    30    1
     2    30    32    2
     3    30    29    1
     4    32    33    1
     5    29    28    2
     6    33    27    2
     7    28    27    1
     8    27    24    1
     9    23    22    1
    10     2     3    1
    11     2     1    2
    12     3     4    2
    13    22     1    1
    14    22    24    1
    15     1     6    1
    16    24    26    2
    17    24    25    2
    18     4     5    1
    19     6     5    2
    20     6     7    1
    21     5     8    1
    22    17    16    1
    23     8     9    2
    24     8    10   am
    25    16    15    1
    26    16    18    2
    27    11    10    1
    28    15    14    2
    29    10    12    1
    30    18    19    1
    31    14    12    1
    32    14    20    1
    33    12    13    1
    34    19    20    2
    35    20    21    1
