@<TRIPOS>MOLECULE
412_out_ligand_01.pdbqt
 33 36 0 0 0
SMALL
GASTEIGER

@<TRIPOS>ATOM
      1  C         18.7700  -23.0640   -9.0260 C.2     1  UNL1        0.0790
      2  C         19.8250  -23.7390   -8.4050 C.2     1  UNL1        0.0260
      3  C         21.1410  -23.4940   -8.8130 C.2     1  UNL1        0.0180
      4  C         21.4020  -22.5720   -9.8380 C.2     1  UNL1        0.0320
      5  C         20.3300  -21.9290  -10.4780 C.2     1  UNL1        0.0180
      6  C         19.0150  -22.1790  -10.0810 C.2     1  UNL1        0.0260
      7  C         22.7860  -22.2580  -10.3010 C.2     1  UNL1        0.2510
      8  O         23.3640  -21.2670   -9.8690 O.2     1  UNL1       -0.2680
      9  N         23.3590  -23.1460  -11.1850 N.am    1  UNL1       -0.3530
     10  H         22.9200  -24.0380  -11.3520 H       1  UNL1        0.1630
     11  C         24.7420  -23.0260  -11.5870 C.3     1  UNL1        0.1610
     12  C         24.8690  -23.1810  -13.0800 C.2     1  UNL1       -0.0380
     13  C         25.3040  -24.3980  -13.6290 C.2     1  UNL1        0.0120
     14  C         25.3950  -24.5600  -15.0130 C.2     1  UNL1        0.0400
     15  C         25.0480  -23.5090  -15.8600 C.2     1  UNL1        0.1020
     16  C         24.6350  -22.2850  -15.3240 C.2     1  UNL1        0.1020
     17  O         25.1390  -23.7450  -17.2080 O.2     1  UNL1       -0.3460
     18  C         24.5290  -22.1260  -13.9420 C.2     1  UNL1        0.0480
     19  O         24.3100  -21.1970  -16.0950 O.2     1  UNL1       -0.3460
     20  C         24.7870  -21.3550  -17.4370 C.3     1  UNL1        0.2020
     21  C         24.4560  -22.7410  -17.9640 C.3     1  UNL1        0.2020
     22  S         17.0930  -23.3840   -8.5190 S.O2    1  UNL1        0.2630
     23  O         16.2610  -23.3690   -9.7020 O.2     1  UNL1       -0.2000
     24  O         17.1200  -24.5370   -7.6400 O.2     1  UNL1       -0.2000
     25  N         16.7220  -22.0650   -7.5350 N.pl3   1  UNL1       -0.2800
     26  H         16.1680  -21.3580   -8.0130 H       1  UNL1        0.1790
     27  C         16.5410  -22.2430   -6.1340 C.2     1  UNL1        0.0480
     28  C         15.2960  -22.6630   -5.6510 C.2     1  UNL1        0.0300
     29  C         15.0800  -22.8010   -4.2810 C.2     1  UNL1        0.0020
     30  C         16.1080  -22.5230   -3.3860 C.2     1  UNL1        0.0010
     31  C         17.3560  -22.1200   -3.8630 C.2     1  UNL1        0.0090
     32  C         17.5910  -21.9740   -5.2400 C.2     1  UNL1       -0.0350
     33  C         18.9500  -21.5420   -5.7080 C.3     1  UNL1        0.0500
@<TRIPOS>BOND
     1    21    20    1
     2    21    17    1
     3    20    19    1
     4    17    15    1
     5    19    16    1
     6    15    16    2
     7    15    14    1
     8    16    18    1
     9    14    13    2
    10    18    12    2
    11    13    12    1
    12    12    11    1
    13    11     9    1
    14    10     9    1
    15     9     7   am
    16     5     6    1
    17     5     4    2
    18     7     8    2
    19     7     4    1
    20     6     1    2
    21     4     3    1
    22    23    22    2
    23     1    22    1
    24     1     2    1
    25     3     2    2
    26    22    24    2
    27    22    25    1
    28    26    25    1
    29    25    27    1
    30    27    28    2
    31    27    32    1
    32    33    32    1
    33    28    29    1
    34    32    31    2
    35    29    30    2
    36    31    30    1
