@<TRIPOS>MOLECULE
41306_out_ligand_01.pdbqt
 34 38 0 0 0
SMALL
GASTEIGER

@<TRIPOS>ATOM
      1  C         20.4380  -21.4910  -12.0900 C.3     1  UNL1        0.0730
      2  C         20.3960  -21.9180  -10.6510 C.2     1  UNL1        0.0700
      3  C         21.4440  -22.2300   -9.8530 C.2     1  UNL1        0.1710
      4  N         21.2610  -22.6670   -8.5440 N.2     1  UNL1       -0.1410
      5  N         20.1220  -22.7810   -8.0250 N.2     1  UNL1       -0.1280
      6  C         19.0100  -22.4750   -8.7510 C.2     1  UNL1        0.1850
      7  C         17.6590  -22.5000   -8.4680 C.2     1  UNL1        0.0440
      8  C         17.0400  -22.0770   -9.6560 C.2     1  UNL1        0.1550
      9  N         17.9160  -21.7860  -10.6180 N.2     1  UNL1       -0.1770
     10  N         19.1330  -22.0400  -10.0650 N.pl3   1  UNL1       -0.2150
     11  C         22.8860  -22.1060  -10.3070 C.2     1  UNL1        0.2780
     12  O         23.5910  -21.1610   -9.9840 O.2     1  UNL1       -0.2650
     13  N         23.2750  -23.1740  -11.0970 N.am    1  UNL1       -0.3220
     14  H         22.5670  -23.8820  -11.2570 H       1  UNL1        0.1690
     15  C         24.5350  -23.4100  -11.6840 C.2     1  UNL1        0.0350
     16  C         25.6590  -23.1900  -10.8790 C.2     1  UNL1        0.0290
     17  C         26.9460  -23.3970  -11.3790 C.2     1  UNL1        0.0030
     18  C         27.1210  -23.8240  -12.6930 C.2     1  UNL1        0.0160
     19  C         26.0090  -24.0530  -13.5170 C.2     1  UNL1        0.0500
     20  C         24.7170  -23.8380  -13.0010 C.2     1  UNL1        0.0450
     21  C         26.1950  -24.4780  -14.9530 C.3     1  UNL1        0.4170
     22  F         26.9920  -25.5780  -15.0660 F       1  UNL1       -0.1660
     23  F         26.7630  -23.5190  -15.7350 F       1  UNL1       -0.1660
     24  F         25.0220  -24.8060  -15.5670 F       1  UNL1       -0.1660
     25  C         17.0830  -22.9120   -7.2000 C.2     1  UNL1       -0.0090
     26  C         16.0590  -23.8730   -7.2320 C.2     1  UNL1        0.0130
     27  C         15.4480  -24.2910   -6.0560 C.2     1  UNL1        0.0020
     28  C         15.8490  -23.7490   -4.8380 C.2     1  UNL1        0.0120
     29  C         16.8710  -22.7870   -4.7740 C.2     1  UNL1       -0.0250
     30  C         17.2590  -22.2590   -3.5300 C.2     1  UNL1        0.0120
     31  C         17.5130  -22.3540   -5.9620 C.2     1  UNL1       -0.0150
     32  C         18.2800  -21.3140   -3.4370 C.2     1  UNL1        0.0010
     33  C         18.9300  -20.8880   -4.5860 C.2     1  UNL1        0.0010
     34  C         18.5540  -21.4000   -5.8290 C.2     1  UNL1        0.0130
@<TRIPOS>BOND
     1    23    21    1
     2    24    21    1
     3    22    21    1
     4    21    19    1
     5    19    20    1
     6    19    18    2
     7    20    15    2
     8    18    17    1
     9     1     2    1
    10    15    13    1
    11    15    16    1
    12    17    16    2
    13    14    13    1
    14    13    11   am
    15     2    10    1
    16     2     3    2
    17     9    10    1
    18     9     8    2
    19    11    12    2
    20    11     3    1
    21    10     6    1
    22     3     4    1
    23     8     7    1
    24     6     7    2
    25     6     5    1
    26     4     5    2
    27     7    25    1
    28    26    25    2
    29    26    27    1
    30    25    31    1
    31    27    28    2
    32    31    34    1
    33    31    29    2
    34    34    33    2
    35    28    29    1
    36    29    30    1
    37    33    32    1
    38    30    32    2
