@<TRIPOS>MOLECULE
41309_out_ligand_01.pdbqt
 34 38 0 0 0
SMALL
GASTEIGER

@<TRIPOS>ATOM
      1  C         20.7150  -21.0590  -12.3710 C.3     1  UNL1        0.0730
      2  C         20.6860  -21.7220  -11.0240 C.2     1  UNL1        0.0700
      3  C         21.7340  -22.2050  -10.3240 C.2     1  UNL1        0.1710
      4  N         21.5670  -22.8540   -9.1060 N.2     1  UNL1       -0.1410
      5  N         20.4380  -22.9820   -8.5660 N.2     1  UNL1       -0.1280
      6  C         19.3260  -22.4970   -9.1830 C.2     1  UNL1        0.1850
      7  C         17.9920  -22.4560   -8.8360 C.2     1  UNL1        0.0440
      8  C         17.3600  -21.8360   -9.9290 C.2     1  UNL1        0.1550
      9  N         18.2150  -21.4810  -10.8860 N.2     1  UNL1       -0.1770
     10  N         19.4330  -21.8760  -10.4220 N.pl3   1  UNL1       -0.2150
     11  C         23.1660  -22.0490  -10.7940 C.2     1  UNL1        0.2780
     12  O         23.9450  -21.2870  -10.2370 O.2     1  UNL1       -0.2650
     13  N         23.4520  -22.8680  -11.8750 N.am    1  UNL1       -0.3210
     14  H         22.6670  -23.4360  -12.1940 H       1  UNL1        0.1690
     15  C         24.6830  -23.0360  -12.5540 C.2     1  UNL1        0.0500
     16  C         25.7060  -23.8460  -12.0400 C.2     1  UNL1        0.0300
     17  C         26.9110  -24.0200  -12.7280 C.2     1  UNL1        0.0020
     18  C         27.1190  -23.3860  -13.9450 C.2     1  UNL1        0.0010
     19  C         26.1200  -22.5720  -14.4700 C.2     1  UNL1        0.0180
     20  C         24.8940  -22.3880  -13.7910 C.2     1  UNL1        0.0740
     21  C         23.8980  -21.4480  -14.4220 C.3     1  UNL1        0.4190
     22  F         24.2740  -21.0630  -15.6750 F       1  UNL1       -0.1660
     23  F         23.7090  -20.2900  -13.7260 F       1  UNL1       -0.1660
     24  F         22.6600  -21.9980  -14.5580 F       1  UNL1       -0.1660
     25  C         17.4390  -22.9630   -7.5940 C.2     1  UNL1       -0.0090
     26  C         16.5120  -24.0150   -7.6690 C.2     1  UNL1        0.0130
     27  C         15.9220  -24.5190   -6.5150 C.2     1  UNL1        0.0020
     28  C         16.2500  -23.9740   -5.2760 C.2     1  UNL1        0.0120
     29  C         17.1780  -22.9250   -5.1680 C.2     1  UNL1       -0.0250
     30  C         17.4980  -22.3970   -3.9070 C.2     1  UNL1        0.0120
     31  C         17.7950  -22.4040   -6.3330 C.2     1  UNL1       -0.0150
     32  C         18.4260  -21.3630   -3.7710 C.2     1  UNL1        0.0010
     33  C         19.0500  -20.8480   -4.8990 C.2     1  UNL1        0.0010
     34  C         18.7420  -21.3610   -6.1610 C.2     1  UNL1        0.0130
@<TRIPOS>BOND
     1    22    21    1
     2    24    21    1
     3    19    18    2
     4    19    20    1
     5    21    20    1
     6    21    23    1
     7    18    17    1
     8    20    15    2
     9    17    16    2
    10    15    16    1
    11    15    13    1
    12     1     2    1
    13    14    13    1
    14    13    11   am
    15     2    10    1
    16     2     3    2
    17     9    10    1
    18     9     8    2
    19    11     3    1
    20    11    12    2
    21    10     6    1
    22     3     4    1
    23     8     7    1
    24     6     7    2
    25     6     5    1
    26     4     5    2
    27     7    25    1
    28    26    25    2
    29    26    27    1
    30    25    31    1
    31    27    28    2
    32    31    34    1
    33    31    29    2
    34    34    33    2
    35    28    29    1
    36    29    30    1
    37    33    32    1
    38    30    32    2
