@<TRIPOS>MOLECULE
4130_out_ligand_01.pdbqt
 38 41 0 0 0
SMALL
GASTEIGER

@<TRIPOS>ATOM
      1  C         22.2320  -23.0520   -9.4410 C.2     1  UNL1        0.1030
      2  C         23.5470  -23.4790   -9.4220 C.2     1  UNL1        0.1340
      3  N         24.2160  -22.7360  -10.3530 N.pl3   1  UNL1       -0.2730
      4  N         23.4240  -21.8540  -10.9970 N.2     1  UNL1       -0.1460
      5  C         22.2290  -22.0540  -10.4400 C.2     1  UNL1        0.2010
      6  C         21.1610  -23.5690   -8.5970 C.2     1  UNL1        0.2620
      7  N         20.4550  -22.5900   -7.9240 N.am    1  UNL1       -0.3230
      8  H         20.7550  -21.6350   -8.0920 H       1  UNL1        0.1690
      9  O         20.9460  -24.7750   -8.5360 O.2     1  UNL1       -0.2670
     10  C         19.3680  -22.7490   -7.0440 C.2     1  UNL1        0.0350
     11  C         18.9650  -21.7880   -6.1130 C.2     1  UNL1        0.0310
     12  C         17.8720  -22.0280   -5.2720 C.2     1  UNL1        0.0270
     13  C         17.1850  -23.2390   -5.3560 C.2     1  UNL1        0.0740
     14  C         17.5660  -24.2050   -6.2880 C.2     1  UNL1        0.0270
     15  C         18.6570  -23.9570   -7.1260 C.2     1  UNL1        0.0310
     16  S         15.7920  -23.5250   -4.3070 S.O2    1  UNL1        0.2390
     17  O         14.6580  -23.9040   -5.1160 O.2     1  UNL1       -0.2060
     18  O         16.2120  -24.2850   -3.1530 O.2     1  UNL1       -0.2060
     19  N         15.4630  -21.9800   -3.7370 N.3     1  UNL1       -0.2250
     20  H         14.5350  -21.6900   -4.0470 H       1  UNL1        0.1360
     21  H         16.2080  -21.3440   -4.0180 H       1  UNL1        0.1360
     22  O         21.1530  -21.3210  -10.8090 O.2     1  UNL1       -0.3280
     23  C         20.2500  -21.9620  -11.7130 C.3     1  UNL1        0.2160
     24  C         18.8250  -21.8510  -11.2230 C.2     1  UNL1       -0.0310
     25  C         18.0800  -20.6860  -11.4550 C.2     1  UNL1        0.0090
     26  C         16.7590  -20.5850  -11.0110 C.2     1  UNL1        0.0040
     27  C         16.1720  -21.6480  -10.3300 C.2     1  UNL1        0.0420
     28  C         16.9050  -22.8050  -10.1080 C.2     1  UNL1        0.1170
     29  F         16.3380  -23.8330   -9.4600 F       1  UNL1       -0.2060
     30  C         18.2210  -22.9190  -10.5490 C.2     1  UNL1        0.0510
     31  C         25.6240  -22.8550  -10.7110 C.3     1  UNL1        0.1890
     32  C         26.0930  -21.6660  -11.5090 C.2     1  UNL1       -0.0350
     33  C         26.3330  -21.7750  -12.8890 C.2     1  UNL1        0.0090
     34  C         26.7780  -20.6720  -13.6240 C.2     1  UNL1        0.0040
     35  C         26.9880  -19.4510  -12.9880 C.2     1  UNL1        0.0420
     36  C         26.7550  -19.3400  -11.6230 C.2     1  UNL1        0.1170
     37  F         26.9550  -18.1650  -11.0110 F       1  UNL1       -0.2060
     38  C         26.3140  -20.4310  -10.8800 C.2     1  UNL1        0.0510
@<TRIPOS>BOND
     1    34    35    2
     2    34    33    1
     3    35    36    1
     4    33    32    2
     5    23    24    1
     6    23    22    1
     7    36    37    1
     8    36    38    2
     9    32    38    1
    10    32    31    1
    11    25    24    2
    12    25    26    1
    13    24    30    1
    14    26    27    2
    15     4     5    2
    16     4     3    1
    17    22     5    1
    18    31     3    1
    19    30    28    2
    20     5     1    1
    21     3     2    1
    22    27    28    1
    23    28    29    1
    24     1     2    2
    25     1     6    1
    26     6     9    2
    27     6     7   am
    28     8     7    1
    29     7    10    1
    30    15    10    2
    31    15    14    1
    32    10    11    1
    33    14    13    2
    34    11    12    2
    35    13    12    1
    36    13    16    1
    37    17    16    2
    38    16    19    1
    39    16    18    2
    40    20    19    1
    41    21    19    1
