@<TRIPOS>MOLECULE
41305_out_ligand_01.pdbqt
 31 35 0 0 0
SMALL
GASTEIGER

@<TRIPOS>ATOM
      1  C         24.1600  -21.8320  -10.7510 C.3     1  UNL1        0.0730
      2  C         22.6810  -21.8660  -11.0110 C.2     1  UNL1        0.0700
      3  C         22.0570  -21.6110  -12.1840 C.2     1  UNL1        0.1710
      4  N         20.6720  -21.6250  -12.2960 N.2     1  UNL1       -0.1410
      5  N         19.9240  -21.8950  -11.3210 N.2     1  UNL1       -0.1280
      6  C         20.4650  -22.1880  -10.1060 C.2     1  UNL1        0.1850
      7  C         19.9190  -22.5190   -8.8840 C.2     1  UNL1        0.0440
      8  C         21.0270  -22.7020   -8.0370 C.2     1  UNL1        0.1550
      9  N         22.1880  -22.4880   -8.6560 N.2     1  UNL1       -0.1770
     10  N         21.8450  -22.1750   -9.9350 N.pl3   1  UNL1       -0.2150
     11  C         22.8200  -21.3170  -13.4620 C.2     1  UNL1        0.2780
     12  O         22.5840  -20.3290  -14.1460 O.2     1  UNL1       -0.2650
     13  N         23.7920  -22.2700  -13.7170 N.am    1  UNL1       -0.3220
     14  H         23.8740  -23.0090  -13.0260 H       1  UNL1        0.1690
     15  C         24.6860  -22.3270  -14.8040 C.2     1  UNL1        0.0350
     16  C         26.0350  -21.9670  -14.7280 C.2     1  UNL1        0.0320
     17  C         26.8550  -22.0530  -15.8570 C.2     1  UNL1        0.0440
     18  C         26.3260  -22.4990  -17.0610 C.2     1  UNL1        0.1160
     19  F         27.1120  -22.5800  -18.1420 F       1  UNL1       -0.2060
     20  C         24.9890  -22.8610  -17.1580 C.2     1  UNL1        0.0440
     21  C         24.1700  -22.7750  -16.0300 C.2     1  UNL1        0.0320
     22  C         18.4990  -22.6460   -8.6160 C.2     1  UNL1       -0.0090
     23  C         17.6580  -22.9650   -9.6950 C.2     1  UNL1        0.0130
     24  C         16.2920  -23.1340   -9.4990 C.2     1  UNL1        0.0020
     25  C         15.7530  -22.9880   -8.2230 C.2     1  UNL1        0.0120
     26  C         16.5680  -22.6650   -7.1260 C.2     1  UNL1       -0.0250
     27  C         15.9990  -22.5180   -5.8490 C.2     1  UNL1        0.0120
     28  C         17.9630  -22.4840   -7.3070 C.2     1  UNL1       -0.0150
     29  C         16.7830  -22.1870   -4.7460 C.2     1  UNL1        0.0010
     30  C         18.1490  -21.9960   -4.9040 C.2     1  UNL1        0.0010
     31  C         18.7300  -22.1390   -6.1670 C.2     1  UNL1        0.0130
@<TRIPOS>BOND
     1    19    18    1
     2    20    18    2
     3    20    21    1
     4    18    17    1
     5    21    15    2
     6    17    16    2
     7    15    16    1
     8    15    13    1
     9    12    11    2
    10    13    11   am
    11    13    14    1
    12    11     3    1
    13     4     3    1
    14     4     5    2
    15     3     2    2
    16     5     6    1
    17     2     1    1
    18     2    10    1
    19     6    10    1
    20     6     7    2
    21    10     9    1
    22    23    24    1
    23    23    22    2
    24    24    25    2
    25     7    22    1
    26     7     8    1
    27     9     8    2
    28    22    28    1
    29    25    26    1
    30    28    26    2
    31    28    31    1
    32    26    27    1
    33    31    30    2
    34    27    29    2
    35    30    29    1
