@<TRIPOS>MOLECULE
41307_out_ligand_01.pdbqt
 32 36 0 0 0
SMALL
GASTEIGER

@<TRIPOS>ATOM
      1  C         21.5910  -22.4420  -10.8360 C.2     1  UNL1        0.1710
      2  N         21.4760  -21.6780  -11.9930 N.2     1  UNL1       -0.1410
      3  N         22.4640  -21.4250  -12.7290 N.2     1  UNL1       -0.1280
      4  C         23.6980  -21.9010  -12.4040 C.2     1  UNL1        0.1850
      5  C         24.9350  -21.8080  -13.0060 C.2     1  UNL1        0.0440
      6  C         25.8000  -22.5140  -12.1520 C.2     1  UNL1        0.1550
      7  N         25.1720  -23.0330  -11.0960 N.2     1  UNL1       -0.1770
      8  N         23.8720  -22.6560  -11.2500 N.pl3   1  UNL1       -0.2150
      9  C         22.7810  -22.9360  -10.4240 C.2     1  UNL1        0.0700
     10  C         23.0380  -23.7290   -9.1750 C.3     1  UNL1        0.0730
     11  C         20.2990  -22.7040  -10.0850 C.2     1  UNL1        0.2780
     12  N         20.4850  -22.6970   -8.7140 N.am    1  UNL1       -0.3220
     13  H         21.4300  -22.5050   -8.3990 H       1  UNL1        0.1690
     14  O         19.2350  -22.8760  -10.6670 O.2     1  UNL1       -0.2650
     15  C         19.5240  -22.9030   -7.7050 C.2     1  UNL1        0.0350
     16  C         19.3960  -21.9040   -6.7320 C.2     1  UNL1        0.0300
     17  C         18.4660  -22.0300   -5.6940 C.2     1  UNL1        0.0090
     18  C         17.6440  -23.1570   -5.6140 C.2     1  UNL1       -0.0580
     19  C         17.7780  -24.1580   -6.5820 C.2     1  UNL1        0.0090
     20  C         18.7080  -24.0310   -7.6200 C.2     1  UNL1        0.0300
     21  C         16.6530  -23.3060   -4.4890 C.3     1  UNL1        0.0340
     22  C         15.2710  -22.8090   -4.8840 C.3     1  UNL1        0.0100
     23  C         25.2060  -21.1010  -14.2430 C.2     1  UNL1       -0.0090
     24  C         25.7070  -19.7920  -14.1510 C.2     1  UNL1        0.0130
     25  C         26.0160  -19.0730  -15.3000 C.2     1  UNL1        0.0020
     26  C         25.8310  -19.6540  -16.5510 C.2     1  UNL1        0.0120
     27  C         25.3280  -20.9590  -16.6760 C.2     1  UNL1       -0.0250
     28  C         25.1460  -21.5220  -17.9500 C.2     1  UNL1        0.0120
     29  C         25.0010  -21.7060  -15.5150 C.2     1  UNL1       -0.0150
     30  C         24.6380  -22.8110  -18.1020 C.2     1  UNL1        0.0010
     31  C         24.3020  -23.5540  -16.9790 C.2     1  UNL1        0.0010
     32  C         24.4780  -23.0100  -15.7050 C.2     1  UNL1        0.0130
@<TRIPOS>BOND
     1    30    28    2
     2    30    31    1
     3    28    27    1
     4    31    32    2
     5    27    26    2
     6    27    29    1
     7    26    25    1
     8    32    29    1
     9    29    23    2
    10    25    24    2
    11    23    24    1
    12    23     5    1
    13     5     4    2
    14     5     6    1
    15     3     4    1
    16     3     2    2
    17     4     8    1
    18     6     7    2
    19     2     1    1
    20     8     7    1
    21     8     9    1
    22     1     9    2
    23     1    11    1
    24    14    11    2
    25     9    10    1
    26    11    12   am
    27    12    13    1
    28    12    15    1
    29    15    20    2
    30    15    16    1
    31    20    19    1
    32    16    17    2
    33    19    18    2
    34    17    18    1
    35    18    21    1
    36    22    21    1
