@<TRIPOS>MOLECULE
41304_out_ligand_01.pdbqt
 29 32 0 0 0
SMALL
GASTEIGER

@<TRIPOS>ATOM
      1  C         19.6850  -21.8480  -10.4030 C.2     1  UNL1        0.1010
      2  C         20.9150  -22.3930  -10.3770 C.2     1  UNL1        0.0400
      3  C         21.8640  -22.1530  -11.4480 C.2     1  UNL1        0.0340
      4  C         21.5060  -21.3990  -12.5040 C.2     1  UNL1        0.0270
      5  N         20.2440  -20.8430  -12.5390 N.am    1  UNL1       -0.3250
      6  C         19.2900  -20.9930  -11.5520 C.2     1  UNL1        0.2610
      7  O         18.2120  -20.4170  -11.6240 O.2     1  UNL1       -0.2670
      8  C         22.4130  -21.0900  -13.6680 C.3     1  UNL1        0.0690
      9  C         23.8910  -21.3250  -13.3290 C.3     1  UNL1        0.0560
     10  C         24.0830  -22.6800  -12.6550 C.3     1  UNL1        0.0950
     11  C         23.2240  -22.7770  -11.4150 C.2     1  UNL1        0.1620
     12  O         23.6000  -23.3990  -10.4230 O.2     1  UNL1       -0.2920
     13  H         19.9600  -20.2580  -13.3180 H       1  UNL1        0.1690
     14  C         18.7300  -22.1820   -9.3200 C.2     1  UNL1        0.2610
     15  N         19.3340  -22.2090   -8.0770 N.am    1  UNL1       -0.3230
     16  H         20.3150  -21.9660   -8.0350 H       1  UNL1        0.1690
     17  O         17.5620  -22.4250   -9.5930 O.2     1  UNL1       -0.2670
     18  C         18.7290  -22.5130   -6.8390 C.2     1  UNL1        0.0350
     19  C         18.1590  -23.7850   -6.7010 C.2     1  UNL1        0.0300
     20  C         17.5370  -24.1660   -5.5070 C.2     1  UNL1        0.0090
     21  C         17.4850  -23.2830   -4.4250 C.2     1  UNL1       -0.0620
     22  C         16.7920  -23.6730   -3.1540 C.3     1  UNL1        0.0480
     23  C         18.0420  -22.0090   -4.5680 C.2     1  UNL1        0.0090
     24  C         18.6630  -21.6280   -5.7640 C.2     1  UNL1        0.0300
     25  C         24.7390  -21.1840  -14.5500 C.2     1  UNL1        0.0570
     26  C         26.0980  -21.1560  -14.7830 C.2     1  UNL1        0.0350
     27  C         26.2610  -21.0090  -16.1820 C.2     1  UNL1        0.0270
     28  C         24.9940  -20.9620  -16.7120 C.2     1  UNL1        0.1420
     29  O         24.0630  -21.0720  -15.7290 O.2     1  UNL1       -0.3270
@<TRIPOS>BOND
     1    28    27    2
     2    28    29    1
     3    27    26    1
     4    29    25    1
     5    26    25    2
     6    25     9    1
     7     8     9    1
     8     8     4    1
     9     9    10    1
    10    13     5    1
    11    10    11    1
    12     5     4    1
    13     5     6   am
    14     4     3    2
    15     7     6    2
    16     6     1    1
    17     3    11    1
    18     3     2    1
    19    11    12    2
    20     1     2    2
    21     1    14    1
    22    17    14    2
    23    14    15   am
    24    15    16    1
    25    15    18    1
    26    18    19    2
    27    18    24    1
    28    19    20    1
    29    24    23    2
    30    20    21    2
    31    23    21    1
    32    21    22    1
