@<TRIPOS>MOLECULE
41308_out_ligand_01.pdbqt
 33 37 0 0 0
SMALL
GASTEIGER

@<TRIPOS>ATOM
      1  C         23.7110  -21.7990  -12.6840 C.2     1  UNL1        0.1710
      2  N         22.3970  -21.7280  -13.1340 N.2     1  UNL1       -0.1410
      3  N         21.4150  -21.8130  -12.3510 N.2     1  UNL1       -0.1280
      4  C         21.6190  -21.9770  -11.0160 C.2     1  UNL1        0.1850
      5  C         20.7670  -22.1140   -9.9380 C.2     1  UNL1        0.0440
      6  C         21.6180  -22.2350   -8.8260 C.2     1  UNL1        0.1550
      7  N         22.9080  -22.1960   -9.1570 N.2     1  UNL1       -0.1770
      8  N         22.9130  -22.0360  -10.5090 N.pl3   1  UNL1       -0.2150
      9  C         24.0090  -21.9350  -11.3710 C.2     1  UNL1        0.0700
     10  C         25.3780  -21.9700  -10.7560 C.3     1  UNL1        0.0730
     11  C         24.7830  -21.7380  -13.7540 C.2     1  UNL1        0.2780
     12  N         24.6140  -20.6590  -14.5970 N.am    1  UNL1       -0.3190
     13  H         23.8100  -20.0580  -14.4290 H       1  UNL1        0.1690
     14  O         25.6690  -22.5800  -13.8340 O.2     1  UNL1       -0.2650
     15  C         25.3970  -20.2660  -15.7020 C.2     1  UNL1        0.0680
     16  C         26.3890  -19.2850  -15.6400 C.2     1  UNL1        0.0320
     17  C         27.1210  -18.9520  -16.7810 C.2     1  UNL1        0.0020
     18  C         26.8650  -19.5950  -17.9900 C.2     1  UNL1        0.0030
     19  C         25.8760  -20.5770  -18.0660 C.2     1  UNL1        0.0390
     20  C         25.1380  -20.9170  -16.9290 C.2     1  UNL1        0.0950
     21  O         24.1420  -21.8650  -16.8900 O.2     1  UNL1       -0.3490
     22  C         24.4560  -23.1680  -17.3790 C.3     1  UNL1        0.1710
     23  C         23.2540  -23.6780  -18.1530 C.3     1  UNL1        0.0340
     24  C         19.3180  -22.1060  -10.0190 C.2     1  UNL1       -0.0090
     25  C         18.7250  -21.3100  -11.0130 C.2     1  UNL1        0.0130
     26  C         17.3410  -21.2300  -11.1190 C.2     1  UNL1        0.0020
     27  C         16.5360  -21.9430  -10.2350 C.2     1  UNL1        0.0120
     28  C         17.1000  -22.7510   -9.2350 C.2     1  UNL1       -0.0250
     29  C         16.2670  -23.4650   -8.3570 C.2     1  UNL1        0.0120
     30  C         18.5110  -22.8490   -9.1130 C.2     1  UNL1       -0.0150
     31  C         16.8010  -24.2830   -7.3630 C.2     1  UNL1        0.0010
     32  C         18.1780  -24.4010   -7.2350 C.2     1  UNL1        0.0010
     33  C         19.0210  -23.6980   -8.0990 C.2     1  UNL1        0.0130
@<TRIPOS>BOND
     1    23    22    1
     2    19    18    2
     3    19    20    1
     4    18    17    1
     5    22    21    1
     6    20    21    1
     7    20    15    2
     8    17    16    2
     9    15    16    1
    10    15    12    1
    11    12    13    1
    12    12    11   am
    13    14    11    2
    14    11     1    1
    15     2     1    1
    16     2     3    2
    17     1     9    2
    18     3     4    1
    19     9    10    1
    20     9     8    1
    21    26    25    1
    22    26    27    2
    23     4     8    1
    24     4     5    2
    25    25    24    2
    26     8     7    1
    27    27    28    1
    28    24     5    1
    29    24    30    1
    30     5     6    1
    31    28    30    2
    32    28    29    1
    33     7     6    2
    34    30    33    1
    35    29    31    2
    36    33    32    2
    37    31    32    1
