@<TRIPOS>MOLECULE
41317_out_ligand_01.pdbqt
 30 34 0 0 0
SMALL
GASTEIGER

@<TRIPOS>ATOM
      1  C         19.6040  -23.4070   -7.8760 C.2     1  UNL1        0.0510
      2  C         18.5990  -24.3520   -7.7220 C.2     1  UNL1        0.1360
      3  N         17.6630  -24.2920   -6.7400 N.2     1  UNL1       -0.2410
      4  C         17.7330  -23.2670   -5.8440 C.ar    1  UNL1        0.1490
      5  C         18.7410  -22.3120   -5.9230 C.ar    1  UNL1        0.0790
      6  C         19.7000  -22.3830   -6.9380 C.2     1  UNL1        0.0390
      7  C         18.7430  -21.2000   -4.9740 C.ar    1  UNL1        0.2630
      8  O         19.5860  -20.3190   -5.0320 O.2     1  UNL1       -0.2670
      9  N         17.7290  -21.1880   -4.0600 N.ar    1  UNL1       -0.2740
     10  C         16.6810  -22.0650   -3.9930 C.ar    1  UNL1        0.3310
     11  O         15.7640  -21.8300   -3.2050 O.2     1  UNL1       -0.2460
     12  N         16.7330  -23.1600   -4.8420 N.ar    1  UNL1       -0.2780
     13  H         17.6730  -20.3930   -3.4500 H       1  UNL1        0.1730
     14  C         20.5490  -23.5360   -9.0020 C.2     1  UNL1        0.2590
     15  N         20.4680  -22.6050  -10.0560 N.am    1  UNL1       -0.3130
     16  C         19.2560  -21.7850  -10.2390 C.3     1  UNL1        0.1330
     17  C         21.5290  -22.4230  -11.0210 C.2     1  UNL1        0.0440
     18  C         18.8970  -21.5720  -11.6970 C.3     1  UNL1        0.0250
     19  C         20.0400  -20.8590  -12.3830 C.3     1  UNL1        0.0420
     20  C         21.3370  -21.5840  -12.1390 C.2     1  UNL1       -0.0280
     21  C         22.3830  -21.3750  -13.0600 C.2     1  UNL1        0.0460
     22  C         23.6170  -22.0080  -12.9180 C.2     1  UNL1        0.0680
     23  C         23.8160  -22.8360  -11.8240 C.2     1  UNL1        0.0390
     24  C         22.7870  -23.0330  -10.8870 C.2     1  UNL1        0.0330
     25  O         21.3240  -24.4840   -8.9060 O.2     1  UNL1       -0.2670
     26  O         24.5320  -21.7230  -13.8920 O.2     1  UNL1       -0.3560
     27  C         24.5460  -20.3910  -14.3900 C.3     1  UNL1        0.2100
     28  C         15.6480  -24.1210   -4.8520 C.3     1  UNL1        0.0960
     29  C         14.8960  -24.4820   -6.1140 C.3     1  UNL1        0.0280
     30  C         14.2060  -23.7020   -5.0380 C.3     1  UNL1        0.0280
@<TRIPOS>BOND
     1    27    26    1
     2    26    22    1
     3    21    22    2
     4    21    20    1
     5    22    23    1
     6    19    20    1
     7    19    18    1
     8    20    17    2
     9    23    24    2
    10    18    16    1
    11    17    24    1
    12    17    15    1
    13    16    15    1
    14    15    14   am
    15    14    25    2
    16    14     1    1
    17     1     2    2
    18     1     6    1
    19     2     3    1
    20     6     5    2
    21     3     4    2
    22    29    30    1
    23    29    28    1
    24     5     4   ar
    25     5     7   ar
    26     4    12   ar
    27    30    28    1
    28     8     7    2
    29     7     9   ar
    30    28    12    1
    31    12    10   ar
    32     9    10   ar
    33     9    13    1
    34    10    11    2
