@<TRIPOS>MOLECULE
41314_out_ligand_01.pdbqt
 31 35 0 0 0
SMALL
GASTEIGER

@<TRIPOS>ATOM
      1  C         20.6070  -21.2910  -12.1580 C.3     1  UNL1        0.0730
      2  C         20.5310  -21.8340  -10.7610 C.2     1  UNL1        0.0700
      3  C         21.5640  -22.1500   -9.9470 C.2     1  UNL1        0.1710
      4  N         21.3620  -22.5880   -8.6430 N.2     1  UNL1       -0.1410
      5  N         20.2120  -22.7340   -8.1560 N.2     1  UNL1       -0.1280
      6  C         19.1110  -22.4700   -8.9120 C.2     1  UNL1        0.1850
      7  C         17.7550  -22.5460   -8.6690 C.2     1  UNL1        0.0440
      8  C         17.1550  -22.1300   -9.8690 C.2     1  UNL1        0.1550
      9  N         18.0460  -21.8150  -10.8090 N.2     1  UNL1       -0.1770
     10  N         19.2550  -22.0190  -10.2200 N.pl3   1  UNL1       -0.2150
     11  C         23.0080  -22.0620  -10.3940 C.2     1  UNL1        0.2780
     12  O         23.7700  -21.2060   -9.9640 O.2     1  UNL1       -0.2650
     13  N         23.3250  -23.0390  -11.3230 N.am    1  UNL1       -0.3220
     14  H         22.5650  -23.6590  -11.5830 H       1  UNL1        0.1690
     15  C         24.5660  -23.2740  -11.9480 C.2     1  UNL1        0.0360
     16  C         25.6710  -23.4770  -11.1090 C.2     1  UNL1        0.0290
     17  C         26.9400  -23.7130  -11.6420 C.2     1  UNL1        0.0040
     18  C         27.1200  -23.7510  -13.0220 C.2     1  UNL1        0.0240
     19  C         26.0250  -23.5560  -13.8590 C.2     1  UNL1        0.0360
     20 CL         26.2470  -23.6040  -15.5660 Cl      1  UNL1       -0.0840
     21  C         24.7520  -23.3180  -13.3320 C.2     1  UNL1        0.0530
     22  C         17.1580  -22.9620   -7.4130 C.2     1  UNL1       -0.0090
     23  C         16.1550  -23.9460   -7.4620 C.2     1  UNL1        0.0130
     24  C         15.5680  -24.4150   -6.2920 C.2     1  UNL1        0.0020
     25  C         15.9740  -23.9030   -5.0620 C.2     1  UNL1        0.0120
     26  C         16.9670  -22.9140   -4.9810 C.2     1  UNL1       -0.0250
     27  C         17.3550  -22.4110   -3.7290 C.2     1  UNL1        0.0120
     28  C         17.5770  -22.4220   -6.1640 C.2     1  UNL1       -0.0150
     29  C         18.3360  -21.4250   -3.6230 C.2     1  UNL1        0.0010
     30  C         18.9370  -20.9240   -4.7690 C.2     1  UNL1        0.0010
     31  C         18.5580  -21.4110   -6.0210 C.2     1  UNL1        0.0130
@<TRIPOS>BOND
     1    20    19    1
     2    19    21    1
     3    19    18    2
     4    21    15    2
     5    18    17    1
     6     1     2    1
     7    15    13    1
     8    15    16    1
     9    17    16    2
    10    14    13    1
    11    13    11   am
    12     9    10    1
    13     9     8    2
    14     2    10    1
    15     2     3    2
    16    11    12    2
    17    11     3    1
    18    10     6    1
    19     3     4    1
    20     8     7    1
    21     6     7    2
    22     6     5    1
    23     7    22    1
    24     4     5    2
    25    23    22    2
    26    23    24    1
    27    22    28    1
    28    24    25    2
    29    28    31    1
    30    28    26    2
    31    31    30    2
    32    25    26    1
    33    26    27    1
    34    30    29    1
    35    27    29    2
