@<TRIPOS>MOLECULE
41311_out_ligand_01.pdbqt
 30 34 0 0 0
SMALL
GASTEIGER

@<TRIPOS>ATOM
      1  C         20.8720  -21.2110  -12.4010 C.3     1  UNL1        0.0730
      2  C         20.8130  -21.8050  -11.0230 C.2     1  UNL1        0.0700
      3  C         21.8580  -22.2600  -10.2940 C.2     1  UNL1        0.1710
      4  N         21.6790  -22.8380   -9.0400 N.2     1  UNL1       -0.1410
      5  N         20.5460  -22.9470   -8.5080 N.2     1  UNL1       -0.1280
      6  C         19.4390  -22.4940   -9.1600 C.2     1  UNL1        0.1850
      7  C         18.0990  -22.4590   -8.8340 C.2     1  UNL1        0.0440
      8  C         17.4770  -21.8710   -9.9500 C.2     1  UNL1        0.1550
      9  N         18.3430  -21.5400  -10.9080 N.2     1  UNL1       -0.1770
     10  N         19.5570  -21.9240  -10.4220 N.pl3   1  UNL1       -0.2150
     11  C         23.2920  -22.1530  -10.7760 C.2     1  UNL1        0.2780
     12  O         24.0840  -21.3620  -10.2800 O.2     1  UNL1       -0.2650
     13  N         23.5670  -23.0540  -11.7910 N.am    1  UNL1       -0.3220
     14  H         22.8010  -23.6620  -12.0590 H       1  UNL1        0.1690
     15  C         24.7800  -23.2410  -12.4820 C.2     1  UNL1        0.0350
     16  C         25.9450  -23.7410  -11.8950 C.2     1  UNL1        0.0290
     17  C         27.1110  -23.8940  -12.6550 C.2     1  UNL1        0.0020
     18  C         27.1210  -23.5490  -14.0040 C.2     1  UNL1        0.0000
     19  C         25.9650  -23.0500  -14.5970 C.2     1  UNL1        0.0020
     20  C         24.8010  -22.8970  -13.8400 C.2     1  UNL1        0.0290
     21  C         17.5310  -22.9560   -7.5960 C.2     1  UNL1       -0.0090
     22  C         16.6170  -24.0190   -7.6780 C.2     1  UNL1        0.0130
     23  C         16.0130  -24.5200   -6.5300 C.2     1  UNL1        0.0020
     24  C         16.3150  -23.9630   -5.2900 C.2     1  UNL1        0.0120
     25  C         17.2280  -22.9030   -5.1760 C.2     1  UNL1       -0.0250
     26  C         17.5200  -22.3610   -3.9120 C.2     1  UNL1        0.0120
     27  C         17.8580  -22.3820   -6.3340 C.2     1  UNL1       -0.0150
     28  C         18.4300  -21.3160   -3.7700 C.2     1  UNL1        0.0010
     29  C         19.0660  -20.8000   -4.8910 C.2     1  UNL1        0.0010
     30  C         18.7870  -21.3260   -6.1550 C.2     1  UNL1        0.0130
@<TRIPOS>BOND
     1    19    18    2
     2    19    20    1
     3    18    17    1
     4    20    15    2
     5    17    16    2
     6    15    16    1
     7    15    13    1
     8     1     2    1
     9    14    13    1
    10    13    11   am
    11     2    10    1
    12     2     3    2
    13     9    10    1
    14     9     8    2
    15    11     3    1
    16    11    12    2
    17    10     6    1
    18     3     4    1
    19     8     7    1
    20     6     7    2
    21     6     5    1
    22     4     5    2
    23     7    21    1
    24    22    21    2
    25    22    23    1
    26    21    27    1
    27    23    24    2
    28    27    30    1
    29    27    25    2
    30    30    29    2
    31    24    25    1
    32    25    26    1
    33    29    28    1
    34    26    28    2
