@<TRIPOS>MOLECULE
41312_out_ligand_01.pdbqt
 31 35 0 0 0
SMALL
GASTEIGER

@<TRIPOS>ATOM
      1  C         21.8760  -22.0730  -10.2260 C.2     1  UNL1        0.1710
      2  N         21.7050  -22.5400   -8.9270 N.2     1  UNL1       -0.1410
      3  N         20.5660  -22.7090   -8.4200 N.2     1  UNL1       -0.1280
      4  C         19.4480  -22.4310   -9.1470 C.2     1  UNL1        0.1850
      5  C         18.0990  -22.5290   -8.8790 C.2     1  UNL1        0.0440
      6  C         17.4690  -22.0760  -10.0500 C.2     1  UNL1        0.1550
      7  N         18.3370  -21.7280  -11.0000 N.2     1  UNL1       -0.1770
      8  N         19.5610  -21.9470  -10.4450 N.pl3   1  UNL1       -0.2150
      9  C         20.8240  -21.7500  -11.0120 C.2     1  UNL1        0.0700
     10  C         20.8810  -21.1940  -12.4050 C.3     1  UNL1        0.0730
     11  C         23.3120  -21.9740  -10.7090 C.2     1  UNL1        0.2780
     12  N         23.5510  -22.8000  -11.7940 N.am    1  UNL1       -0.3210
     13  H         22.7460  -23.3230  -12.1170 H       1  UNL1        0.1690
     14  O         24.1210  -21.2240  -10.1770 O.2     1  UNL1       -0.2650
     15  C         24.7530  -22.9880  -12.5120 C.2     1  UNL1        0.0410
     16  C         25.8200  -23.7400  -12.0060 C.2     1  UNL1        0.0300
     17  C         26.9960  -23.9080  -12.7450 C.2     1  UNL1        0.0020
     18  C         27.1210  -23.3270  -14.0000 C.2     1  UNL1        0.0010
     19  C         26.0690  -22.5770  -14.5200 C.2     1  UNL1        0.0090
     20  C         24.8800  -22.3970  -13.7900 C.2     1  UNL1       -0.0350
     21  C         23.7830  -21.5740  -14.4100 C.3     1  UNL1        0.0500
     22  C         17.5320  -22.9950   -7.6260 C.2     1  UNL1       -0.0090
     23  C         16.6380  -24.0770   -7.6770 C.2     1  UNL1        0.0130
     24  C         16.0860  -24.5910   -6.5100 C.2     1  UNL1        0.0020
     25  C         16.4220  -24.0300   -5.2800 C.2     1  UNL1        0.0120
     26  C         17.3070  -22.9440   -5.1980 C.2     1  UNL1       -0.0250
     27  C         17.6270  -22.3930   -3.9460 C.2     1  UNL1        0.0120
     28  C         17.8770  -22.4030   -6.3790 C.2     1  UNL1       -0.0150
     29  C         18.4960  -21.3080   -3.8370 C.2     1  UNL1        0.0010
     30  C         19.0550  -20.7570   -4.9820 C.2     1  UNL1        0.0010
     31  C         18.7490  -21.2950   -6.2350 C.2     1  UNL1        0.0130
@<TRIPOS>BOND
     1    19    18    2
     2    19    20    1
     3    21    20    1
     4    18    17    1
     5    20    15    2
     6    17    16    2
     7    15    16    1
     8    15    12    1
     9    10     9    1
    10    13    12    1
    11    12    11   am
    12     9     8    1
    13     9     1    2
    14     7     8    1
    15     7     6    2
    16    11     1    1
    17    11    14    2
    18     8     4    1
    19     1     2    1
    20     6     5    1
    21     4     5    2
    22     4     3    1
    23     2     3    2
    24     5    22    1
    25    23    22    2
    26    23    24    1
    27    22    28    1
    28    24    25    2
    29    28    31    1
    30    28    26    2
    31    31    30    2
    32    25    26    1
    33    26    27    1
    34    30    29    1
    35    27    29    2
