@<TRIPOS>MOLECULE
41310_out_ligand_01.pdbqt
 31 35 0 0 0
SMALL
GASTEIGER

@<TRIPOS>ATOM
      1  C         21.5680  -22.4170  -10.9250 C.2     1  UNL1        0.1710
      2  N         21.4470  -21.7480  -12.1400 N.2     1  UNL1       -0.1410
      3  N         22.4420  -21.5100  -12.8710 N.2     1  UNL1       -0.1280
      4  C         23.6840  -21.9240  -12.4930 C.2     1  UNL1        0.1850
      5  C         24.9360  -21.7900  -13.0560 C.2     1  UNL1        0.0440
      6  C         25.7990  -22.4450  -12.1610 C.2     1  UNL1        0.1550
      7  N         25.1600  -22.9520  -11.1060 N.2     1  UNL1       -0.1770
      8  N         23.8540  -22.6240  -11.3050 N.pl3   1  UNL1       -0.2150
      9  C         22.7540  -22.8920  -10.4850 C.2     1  UNL1        0.0700
     10  C         23.0060  -23.6780   -9.2320 C.3     1  UNL1        0.0730
     11  C         20.2930  -22.5570  -10.1190 C.2     1  UNL1        0.2780
     12  N         20.5480  -22.6780   -8.7630 N.am    1  UNL1       -0.3220
     13  H         21.5260  -22.6590   -8.4920 H       1  UNL1        0.1690
     14  O         19.1940  -22.5750  -10.6570 O.2     1  UNL1       -0.2650
     15  C         19.6160  -22.8260   -7.7160 C.2     1  UNL1        0.0350
     16  C         18.8690  -24.0100   -7.6900 C.2     1  UNL1        0.0300
     17  C         17.9290  -24.2420   -6.6790 C.2     1  UNL1        0.0090
     18  C         17.7200  -23.2910   -5.6780 C.2     1  UNL1       -0.0620
     19  C         16.7190  -23.5210   -4.5840 C.3     1  UNL1        0.0480
     20  C         18.4600  -22.1020   -5.7120 C.2     1  UNL1        0.0090
     21  C         19.4010  -21.8730   -6.7200 C.2     1  UNL1        0.0300
     22  C         25.2170  -21.0910  -14.2960 C.2     1  UNL1       -0.0090
     23  C         25.7220  -19.7840  -14.2070 C.2     1  UNL1        0.0130
     24  C         25.9930  -19.0530  -15.3590 C.2     1  UNL1        0.0020
     25  C         25.7590  -19.6190  -16.6100 C.2     1  UNL1        0.0120
     26  C         25.2540  -20.9240  -16.7310 C.2     1  UNL1       -0.0250
     27  C         25.0270  -21.4740  -18.0050 C.2     1  UNL1        0.0120
     28  C         24.9780  -21.6880  -15.5680 C.2     1  UNL1       -0.0150
     29  C         24.5340  -22.7710  -18.1530 C.2     1  UNL1        0.0010
     30  C         24.2690  -23.5390  -17.0260 C.2     1  UNL1        0.0010
     31  C         24.4900  -23.0070  -15.7530 C.2     1  UNL1        0.0130
@<TRIPOS>BOND
     1    29    27    2
     2    29    30    1
     3    27    26    1
     4    30    31    2
     5    26    25    2
     6    26    28    1
     7    25    24    1
     8    31    28    1
     9    28    22    2
    10    24    23    2
    11    22    23    1
    12    22     5    1
    13     5     4    2
    14     5     6    1
    15     3     4    1
    16     3     2    2
    17     4     8    1
    18     6     7    2
    19     2     1    1
    20     8     7    1
    21     8     9    1
    22     1     9    2
    23     1    11    1
    24    14    11    2
    25     9    10    1
    26    11    12   am
    27    12    13    1
    28    12    15    1
    29    15    16    2
    30    15    21    1
    31    16    17    1
    32    21    20    2
    33    17    18    2
    34    20    18    1
    35    18    19    1
