@<TRIPOS>MOLECULE
41313_out_ligand_01.pdbqt
 33 37 0 0 0
SMALL
GASTEIGER

@<TRIPOS>ATOM
      1  C         21.5590  -22.4290  -10.8850 C.2     1  UNL1        0.1710
      2  N         21.4590  -21.7460  -12.0910 N.2     1  UNL1       -0.1410
      3  N         22.4610  -21.5090  -12.8160 N.2     1  UNL1       -0.1280
      4  C         23.6940  -21.9450  -12.4360 C.2     1  UNL1        0.1850
      5  C         24.9540  -21.8280  -12.9890 C.2     1  UNL1        0.0440
      6  C         25.7940  -22.5330  -12.1030 C.2     1  UNL1        0.1550
      7  N         25.1390  -23.0350  -11.0570 N.2     1  UNL1       -0.1770
      8  N         23.8440  -22.6670  -11.2550 N.pl3   1  UNL1       -0.2150
      9  C         22.7380  -22.9270  -10.4430 C.2     1  UNL1        0.0700
     10  C         22.9920  -23.7480   -9.2090 C.3     1  UNL1        0.0730
     11  C         20.2740  -22.5620  -10.0940 C.2     1  UNL1        0.2780
     12  N         20.5030  -22.7570   -8.7420 N.am    1  UNL1       -0.3220
     13  H         21.4750  -22.7900   -8.4580 H       1  UNL1        0.1690
     14  O         19.1780  -22.5020  -10.6370 O.2     1  UNL1       -0.2650
     15  C         19.5470  -22.8840   -7.7140 C.2     1  UNL1        0.0350
     16  C         18.8050  -24.0700   -7.6640 C.2     1  UNL1        0.0320
     17  C         17.8650  -24.2780   -6.6490 C.2     1  UNL1        0.0390
     18  C         17.6390  -23.3030   -5.6760 C.2     1  UNL1        0.0680
     19  C         18.3580  -22.1100   -5.7370 C.2     1  UNL1        0.0390
     20  C         19.3090  -21.9040   -6.7470 C.2     1  UNL1        0.0320
     21  O         16.7070  -23.6320   -4.7330 O.2     1  UNL1       -0.3520
     22  C         16.1040  -22.5570   -4.0150 C.3     1  UNL1        0.1710
     23  C         14.7810  -22.2240   -4.6840 C.3     1  UNL1        0.0340
     24  C         25.2700  -21.1400  -14.2290 C.2     1  UNL1       -0.0090
     25  C         25.7730  -19.8320  -14.1420 C.2     1  UNL1        0.0130
     26  C         26.0330  -19.0970  -15.2950 C.2     1  UNL1        0.0020
     27  C         25.7870  -19.6580  -16.5460 C.2     1  UNL1        0.0120
     28  C         25.2930  -20.9680  -16.6670 C.2     1  UNL1       -0.0250
     29  C         25.0530  -21.5150  -17.9410 C.2     1  UNL1        0.0120
     30  C         25.0360  -21.7380  -15.5030 C.2     1  UNL1       -0.0150
     31  C         24.5740  -22.8170  -18.0900 C.2     1  UNL1        0.0010
     32  C         24.3360  -23.5950  -16.9650 C.2     1  UNL1        0.0010
     33  C         24.5680  -23.0670  -15.6930 C.2     1  UNL1        0.0130
@<TRIPOS>BOND
     1    31    29    2
     2    31    32    1
     3    29    28    1
     4    32    33    2
     5    28    27    2
     6    28    30    1
     7    27    26    1
     8    33    30    1
     9    30    24    2
    10    26    25    2
    11    24    25    1
    12    24     5    1
    13     5     4    2
    14     5     6    1
    15     3     4    1
    16     3     2    2
    17     4     8    1
    18     6     7    2
    19     2     1    1
    20     8     7    1
    21     8     9    1
    22     1     9    2
    23     1    11    1
    24    14    11    2
    25     9    10    1
    26    11    12   am
    27    12    13    1
    28    12    15    1
    29    15    16    2
    30    15    20    1
    31    16    17    1
    32    20    19    2
    33    17    18    2
    34    19    18    1
    35    18    21    1
    36    21    22    1
    37    23    22    1
