@<TRIPOS>MOLECULE
4134_out_ligand_01.pdbqt
 37 40 0 0 0
SMALL
GASTEIGER

@<TRIPOS>ATOM
      1  C         16.5850  -21.9970  -10.0010 C.ar    1  UNL1        0.1960
      2  N         15.3880  -22.4770  -10.2460 N.ar    1  UNL1       -0.1220
      3  N         15.1820  -23.5420   -9.4250 N.ar    1  UNL1       -0.1330
      4  C         16.2600  -23.7060   -8.6820 C.ar    1  UNL1        0.1410
      5  N         17.2320  -22.7810   -9.0630 N.ar    1  UNL1       -0.2750
      6  S         17.2680  -20.6840  -10.9040 S.3     1  UNL1       -0.0800
      7  C         18.3980  -21.5880  -12.0130 C.3     1  UNL1        0.1850
      8  C         19.8260  -21.0540  -12.0090 C.2     1  UNL1        0.2310
      9  N         20.7370  -21.8180  -12.7130 N.am    1  UNL1       -0.3260
     10  H         20.3530  -22.5970  -13.2490 H       1  UNL1        0.1690
     11  O         20.0670  -19.9800  -11.4510 O.2     1  UNL1       -0.2720
     12  C         22.1330  -21.6490  -12.8030 C.2     1  UNL1        0.0350
     13  C         22.8890  -22.0360  -11.6870 C.2     1  UNL1        0.0360
     14  C         24.2810  -21.8760  -11.6670 C.2     1  UNL1       -0.0590
     15  C         24.9200  -21.3190  -12.7830 C.2     1  UNL1        0.0130
     16  C         25.0770  -22.2430  -10.4480 C.3     1  UNL1        0.0480
     17  C         24.1830  -20.9530  -13.9160 C.2     1  UNL1       -0.0590
     18  C         24.8650  -20.3400  -15.1060 C.3     1  UNL1        0.0480
     19  C         22.7880  -21.1100  -13.9110 C.2     1  UNL1        0.0360
     20  C         18.5460  -22.6620   -8.5450 C.2     1  UNL1        0.0430
     21  C         18.8100  -21.8080   -7.4680 C.2     1  UNL1        0.0300
     22  C         20.1010  -21.7220   -6.9500 C.2     1  UNL1        0.0030
     23  C         21.1320  -22.4740   -7.5070 C.2     1  UNL1        0.0070
     24  C         20.8860  -23.3120   -8.6040 C.2     1  UNL1       -0.0600
     25  C         22.0040  -24.1110   -9.2170 C.3     1  UNL1        0.0480
     26  C         19.5840  -23.4150   -9.1100 C.2     1  UNL1        0.0370
     27  C         16.3120  -24.6030   -7.4810 C.3     1  UNL1        0.1380
     28  C         16.2540  -23.9060   -6.1380 C.2     1  UNL1        0.0260
     29  C         15.2490  -23.0870   -5.7910 C.2     1  UNL1        0.1000
     30  C         15.2180  -22.5130   -4.4320 C.2     1  UNL1        0.2510
     31  O         14.2960  -21.7840   -4.0770 O.2     1  UNL1       -0.2680
     32  N         16.2510  -22.8620   -3.6100 N.am    1  UNL1       -0.2750
     33  C         17.2730  -23.6980   -3.9480 C.2     1  UNL1        0.3270
     34  H         16.2360  -22.5050   -2.6680 H       1  UNL1        0.1730
     35  O         18.1470  -24.0190   -3.1540 O.2     1  UNL1       -0.2470
     36  N         17.2490  -24.1770   -5.2300 N.am    1  UNL1       -0.3120
     37  H         18.0250  -24.7860   -5.4750 H       1  UNL1        0.1700
@<TRIPOS>BOND
     1    18    17    1
     2    17    19    1
     3    17    15    2
     4    19    12    2
     5    10     9    1
     6    12     9    1
     7    12    13    1
     8    15    14    1
     9     9     8   am
    10     7     8    1
    11     7     6    1
    12     8    11    2
    13    13    14    2
    14    14    16    1
    15     6     1    1
    16     2     1   ar
    17     2     3   ar
    18     1     5   ar
    19     3     4   ar
    20    25    24    1
    21    26    24    1
    22    26    20    2
    23     5     4   ar
    24     5    20    1
    25     4    27    1
    26    24    23    2
    27    20    21    1
    28    23    22    1
    29    27    28    1
    30    21    22    2
    31    28    29    2
    32    28    36    1
    33    29    30    1
    34    37    36    1
    35    36    33   am
    36    30    31    2
    37    30    32   am
    38    33    32   am
    39    33    35    2
    40    32    34    1
