@<TRIPOS>MOLECULE
41341_out_ligand_01.pdbqt
 31 33 0 0 0
SMALL
GASTEIGER

@<TRIPOS>ATOM
      1  C         22.9860  -22.0270  -10.1380 C.2     1  UNL1        0.2350
      2  O         22.9300  -21.0120   -9.4470 O.2     1  UNL1       -0.2720
      3  N         21.9700  -22.5510  -10.9210 N.am    1  UNL1       -0.3260
      4  H         22.2080  -23.3870  -11.4340 H       1  UNL1        0.1690
      5  C         24.2730  -22.8700  -10.1950 C.3     1  UNL1        0.1950
      6  N         24.9050  -22.8280  -11.5230 N.pl3   1  UNL1       -0.2830
      7  H         25.6110  -23.5850  -11.5790 H       1  UNL1        0.1280
      8  C         25.4900  -21.6250  -11.9690 C.2     1  UNL1        0.0240
      9  C         26.2350  -20.8180  -11.0940 C.2     1  UNL1        0.0240
     10  C         26.7900  -19.6010  -11.5090 C.2     1  UNL1        0.0020
     11  C         26.5890  -19.1490  -12.8060 C.2     1  UNL1        0.0010
     12  C         25.8020  -19.8960  -13.6800 C.2     1  UNL1        0.0190
     13  C         25.2260  -21.1110  -13.2620 C.2     1  UNL1        0.0520
     14  C         24.3570  -21.8640  -14.2160 C.2     1  UNL1        0.2510
     15  N         23.1500  -21.3040  -14.5390 N.am    1  UNL1       -0.3660
     16  H         22.7210  -20.6270  -13.9250 H       1  UNL1        0.1590
     17  H         22.5220  -21.9120  -15.0530 H       1  UNL1        0.1590
     18  O         24.6750  -22.9590  -14.6620 O.2     1  UNL1       -0.2680
     19  C         20.6330  -22.1060  -11.0470 C.2     1  UNL1        0.0410
     20  C         20.2460  -21.2000  -12.0380 C.2     1  UNL1        0.0300
     21  C         18.9260  -20.7510  -12.1350 C.2     1  UNL1        0.0020
     22  C         17.9680  -21.2050  -11.2390 C.2     1  UNL1        0.0010
     23  C         18.3270  -22.1140  -10.2450 C.2     1  UNL1        0.0100
     24  C         19.6550  -22.5770  -10.1330 C.2     1  UNL1       -0.0270
     25  C         19.9500  -23.5740   -9.0250 C.3     1  UNL1        0.0790
     26  C         19.2390  -23.3310   -7.7100 C.2     1  UNL1       -0.0540
     27  C         18.3490  -24.2740   -7.1720 C.2     1  UNL1        0.0070
     28  C         17.6790  -24.0140   -5.9760 C.2     1  UNL1        0.0010
     29  C         17.9020  -22.8180   -5.2940 C.2     1  UNL1        0.0000
     30  C         18.8130  -21.8900   -5.7970 C.2     1  UNL1        0.0010
     31  C         19.4870  -22.1510   -6.9930 C.2     1  UNL1        0.0070
@<TRIPOS>BOND
     1    17    15    1
     2    18    14    2
     3    15    14   am
     4    15    16    1
     5    14    13    1
     6    12    13    1
     7    12    11    2
     8    13     8    2
     9    11    10    1
    10    21    20    1
    11    21    22    2
    12    20    19    2
    13     8     6    1
    14     8     9    1
    15     7     6    1
    16     6     5    1
    17    10     9    2
    18     4     3    1
    19    22    23    1
    20    19     3    1
    21    19    24    1
    22     3     1   am
    23    23    24    2
    24     5     1    1
    25     1     2    2
    26    24    25    1
    27    25    26    1
    28    26    27    2
    29    26    31    1
    30    27    28    1
    31    31    30    2
    32    28    29    2
    33    30    29    1
