@<TRIPOS>MOLECULE
41352_out_ligand_01.pdbqt
 29 32 0 0 0
SMALL
GASTEIGER

@<TRIPOS>ATOM
      1  C         17.9870  -22.2500  -10.2060 C.2     1  UNL1        0.0480
      2  C         17.3860  -21.3320  -11.0820 C.2     1  UNL1        0.0180
      3  C         18.1720  -20.6000  -11.9710 C.2     1  UNL1        0.0010
      4  C         19.5520  -20.7830  -11.9860 C.2     1  UNL1        0.0010
      5  C         20.1500  -21.6970  -11.1140 C.2     1  UNL1        0.0190
      6  C         19.3770  -22.4390  -10.2100 C.2     1  UNL1        0.0160
      7  C         17.1020  -22.9890   -9.2780 C.2     1  UNL1        0.2530
      8  O         16.2450  -23.7510   -9.7080 O.2     1  UNL1       -0.2680
      9  N         17.3600  -22.7630   -7.9430 N.am    1  UNL1       -0.3520
     10  H         18.1310  -22.1570   -7.6930 H       1  UNL1        0.1630
     11  C         16.6710  -23.4930   -6.8830 C.3     1  UNL1        0.0840
     12  C         17.6600  -23.9170   -5.7860 C.3     1  UNL1        0.0250
     13  C         18.3700  -22.7990   -5.0230 C.3     1  UNL1        0.0020
     14  C         17.5070  -21.8490   -4.1930 C.3     1  UNL1        0.0000
     15  C         16.4340  -22.5270   -3.3390 C.3     1  UNL1        0.0000
     16  C         15.0170  -22.4400   -3.9080 C.3     1  UNL1        0.0000
     17  C         14.7360  -23.2370   -5.1830 C.3     1  UNL1        0.0020
     18  C         15.4360  -22.7000   -6.4330 C.3     1  UNL1        0.0250
     19  S         20.2150  -23.6250   -9.1660 S.3     1  UNL1       -0.1230
     20  C         21.3990  -22.4940   -8.3520 C.3     1  UNL1        0.1400
     21  C         22.7150  -22.5050   -9.0580 C.2     1  UNL1        0.0620
     22  C         23.5780  -23.5660   -9.2600 C.2     1  UNL1        0.1260
     23  N         24.6370  -23.0590   -9.9650 N.pl3   1  UNL1       -0.3160
     24  C         25.7810  -23.7000  -10.4340 C.2     1  UNL1        0.0980
     25  C         24.3810  -21.7060  -10.1570 C.2     1  UNL1        0.1340
     26  C         26.6990  -22.9880  -11.1110 C.2     1  UNL1        0.0180
     27  C         26.4660  -21.5680  -11.3310 C.2     1  UNL1        0.0050
     28  C         25.3560  -20.9560  -10.8730 C.2     1  UNL1        0.0510
     29  N         23.2330  -21.3540   -9.6190 N.2     1  UNL1       -0.2330
@<TRIPOS>BOND
     1     4     3    2
     2     4     5    1
     3     3     2    1
     4    27    26    1
     5    27    28    2
     6     5     6    2
     7    26    24    2
     8     2     1    2
     9    28    25    1
    10    24    23    1
    11     6     1    1
    12     6    19    1
    13     1     7    1
    14    25    23    1
    15    25    29    2
    16    23    22    1
    17     8     7    2
    18    29    21    1
    19     7     9   am
    20    22    21    2
    21    19    20    1
    22    21    20    1
    23     9    10    1
    24     9    11    1
    25    11    18    1
    26    11    12    1
    27    18    17    1
    28    12    13    1
    29    17    16    1
    30    13    14    1
    31    14    15    1
    32    16    15    1
