@<TRIPOS>MOLECULE
41354_out_ligand_01.pdbqt
 33 36 0 0 0
SMALL
GASTEIGER

@<TRIPOS>ATOM
      1  C         22.7980  -22.2630   -9.8240 C.ar    1  UNL1        0.0830
      2  S         24.2930  -23.0730   -9.7760 S.2     1  UNL1       -0.0830
      3  C         24.5180  -22.9310  -11.4710 C.ar    1  UNL1        0.0190
      4  C         25.6050  -23.4280  -12.2220 C.2     1  UNL1        0.0200
      5  C         25.6270  -23.2320  -13.6040 C.2     1  UNL1        0.0040
      6  C         24.5890  -22.5610  -14.2300 C.2     1  UNL1        0.0430
      7  C         23.5230  -22.0710  -13.4760 C.2     1  UNL1        0.1280
      8  F         22.5250  -21.4520  -14.1260 F       1  UNL1       -0.2050
      9  C         23.4620  -22.2380  -12.0710 C.ar    1  UNL1        0.0290
     10  C         22.4820  -21.7990  -11.0930 C.ar    1  UNL1        0.0030
     11  C         22.0500  -22.1290   -8.5820 C.2     1  UNL1        0.2630
     12  N         20.8440  -22.8100   -8.6250 N.am    1  UNL1       -0.3230
     13  H         20.6860  -23.3820   -9.4450 H       1  UNL1        0.1690
     14  O         22.4690  -21.4810   -7.6300 O.2     1  UNL1       -0.2670
     15  C         19.8430  -22.8590   -7.6330 C.2     1  UNL1        0.0350
     16  C         19.5580  -21.8120   -6.7550 C.2     1  UNL1        0.0300
     17  C         18.5400  -21.9430   -5.8010 C.2     1  UNL1        0.0190
     18  C         17.7870  -23.1170   -5.7220 C.2     1  UNL1        0.0320
     19  C         18.0740  -24.1730   -6.5910 C.2     1  UNL1        0.0190
     20  C         19.0940  -24.0400   -7.5410 C.2     1  UNL1        0.0300
     21  C         16.7180  -23.2060   -4.6910 C.2     1  UNL1        0.2490
     22  N         16.4750  -22.0910   -3.9370 N.am    1  UNL1       -0.3660
     23  H         17.1480  -21.3430   -3.8570 H       1  UNL1        0.1590
     24  H         15.8400  -22.2250   -3.1590 H       1  UNL1        0.1590
     25  O         16.0990  -24.2430   -4.4920 O.2     1  UNL1       -0.2680
     26  C         21.2880  -20.9390  -11.4310 C.3     1  UNL1        0.2160
     27  O         20.2450  -21.6540  -12.1000 O.2     1  UNL1       -0.3470
     28  C         19.0290  -21.7820  -11.4900 C.2     1  UNL1        0.0690
     29  C         18.5060  -22.9390  -10.9160 C.2     1  UNL1        0.0370
     30  C         17.2400  -22.9190  -10.3220 C.2     1  UNL1        0.0030
     31  C         16.4870  -21.7460  -10.3080 C.2     1  UNL1        0.0000
     32  C         16.9990  -20.5900  -10.8910 C.2     1  UNL1        0.0030
     33  C         18.2630  -20.6120  -11.4810 C.2     1  UNL1        0.0370
@<TRIPOS>BOND
     1     6     5    2
     2     6     7    1
     3     8     7    1
     4     5     4    1
     5     7     9    2
     6     4     3    2
     7    27    28    1
     8    27    26    1
     9     9     3   ar
    10     9    10   ar
    11    28    33    2
    12    28    29    1
    13    33    32    1
    14     3     2   ar
    15    26    10    1
    16    10     1   ar
    17    29    30    2
    18    32    31    2
    19    30    31    1
    20     1     2   ar
    21     1    11    1
    22    13    12    1
    23    12    11   am
    24    12    15    1
    25    11    14    2
    26    15    20    2
    27    15    16    1
    28    20    19    1
    29    16    17    2
    30    19    18    2
    31    17    18    1
    32    18    21    1
    33    21    25    2
    34    21    22   am
    35    22    23    1
    36    22    24    1
