@<TRIPOS>MOLECULE
41369_out_ligand_01.pdbqt
 31 33 0 0 0
SMALL
GASTEIGER

@<TRIPOS>ATOM
      1  C         19.1900  -21.4710  -11.2170 C.2     1  UNL1        0.2800
      2  O         19.2520  -20.6560  -12.1310 O.2     1  UNL1       -0.2650
      3  N         20.2970  -22.0710  -10.6280 N.am    1  UNL1       -0.3210
      4  H         20.1080  -22.6260   -9.8090 H       1  UNL1        0.1690
      5  C         17.9170  -21.8730  -10.6280 C.2     1  UNL1        0.1430
      6  C         16.6310  -21.3570  -10.6760 C.2     1  UNL1        0.0450
      7  C         15.8160  -22.1990   -9.8790 C.2     1  UNL1        0.0380
      8  C         16.6430  -23.1800   -9.3780 C.2     1  UNL1        0.0780
      9  O         17.9120  -22.9920   -9.8330 O.2     1  UNL1       -0.3070
     10  C         16.4330  -24.3440   -8.4790 C.3     1  UNL1        0.2400
     11  O         15.7910  -23.9010   -7.2810 O.2     1  UNL1       -0.3440
     12  C         16.5400  -23.2440   -6.3390 C.2     1  UNL1        0.0750
     13  C         17.7540  -22.5980   -6.5870 C.2     1  UNL1        0.0380
     14  C         18.4320  -21.9400   -5.5550 C.2     1  UNL1        0.0090
     15  C         17.9010  -21.9070   -4.2640 C.2     1  UNL1       -0.0610
     16  C         18.6480  -21.2290   -3.1530 C.3     1  UNL1        0.0480
     17  C         16.6900  -22.5590   -4.0130 C.2     1  UNL1        0.0160
     18  C         15.9980  -23.2210   -5.0410 C.2     1  UNL1       -0.0280
     19  C         14.6920  -23.9000   -4.7410 C.3     1  UNL1        0.0510
     20  C         21.6610  -21.9450  -10.9890 C.2     1  UNL1        0.0420
     21  C         22.0830  -21.8430  -12.3220 C.2     1  UNL1        0.0470
     22  C         23.4430  -21.7140  -12.6380 C.2     1  UNL1        0.0340
     23  C         24.3990  -21.7090  -11.6220 C.2     1  UNL1        0.0170
     24  C         23.9950  -21.8240  -10.2940 C.2     1  UNL1        0.0100
     25  C         22.6330  -21.9430   -9.9620 C.2     1  UNL1       -0.0350
     26  C         22.2700  -22.0630   -8.5050 C.3     1  UNL1        0.0500
     27  C         23.8380  -21.6180  -14.0660 C.2     1  UNL1        0.2490
     28  N         23.3580  -20.5480  -14.7710 N.am    1  UNL1       -0.3660
     29  H         23.5160  -20.5830  -15.7710 H       1  UNL1        0.1590
     30  H         22.5560  -20.0250  -14.4500 H       1  UNL1        0.1590
     31  O         24.5370  -22.4640  -14.6070 O.2     1  UNL1       -0.2680
@<TRIPOS>BOND
     1    29    28    1
     2    28    30    1
     3    28    27   am
     4    31    27    2
     5    27    22    1
     6    22    21    1
     7    22    23    2
     8    21    20    2
     9     2     1    2
    10    23    24    1
    11     1     3   am
    12     1     5    1
    13    20     3    1
    14    20    25    1
    15     6     5    2
    16     6     7    1
    17     3     4    1
    18     5     9    1
    19    24    25    2
    20    25    26    1
    21     7     8    2
    22     9     8    1
    23     8    10    1
    24    10    11    1
    25    11    12    1
    26    13    12    2
    27    13    14    1
    28    12    18    1
    29    14    15    2
    30    18    19    1
    31    18    17    2
    32    15    17    1
    33    15    16    1
