@<TRIPOS>MOLECULE
41388_out_ligand_01.pdbqt
 27 29 0 0 0
SMALL
GASTEIGER

@<TRIPOS>ATOM
      1  C         21.2430  -23.0590   -8.0490 C.3     1  UNL1        0.2750
      2  C         20.4670  -21.8820   -7.4320 C.3     1  UNL1        0.0680
      3  C         19.2480  -22.2990   -6.6390 C.2     1  UNL1       -0.0560
      4  C         18.6350  -23.5370   -6.8850 C.2     1  UNL1        0.0090
      5  C         17.5160  -23.9330   -6.1500 C.2     1  UNL1        0.0250
      6  C         17.0060  -23.0840   -5.1660 C.2     1  UNL1        0.0740
      7  C         17.6140  -21.8560   -4.8960 C.2     1  UNL1        0.0250
      8  C         18.7310  -21.4660   -5.6360 C.2     1  UNL1        0.0090
      9  S         15.5830  -23.5730   -4.2300 S.O2    1  UNL1        0.2390
     10  O         14.5240  -23.9250   -5.1480 O.2     1  UNL1       -0.2060
     11  O         16.0080  -24.4430   -3.1600 O.2     1  UNL1       -0.2060
     12  N         15.1150  -22.1040   -3.5470 N.3     1  UNL1       -0.2250
     13  H         15.0050  -22.1510   -2.5350 H       1  UNL1        0.1360
     14  H         15.7850  -21.3860   -3.8270 H       1  UNL1        0.1360
     15  N         20.5030  -23.8790   -9.0100 N.3     1  UNL1        0.0920
     16  H         19.5610  -24.0550   -8.6590 H       1  UNL1        0.3160
     17  C         20.4050  -23.3460  -10.3770 C.3     1  UNL1        0.2540
     18  C         21.6570  -22.5280  -10.7430 C.3     1  UNL1        0.0410
     19  C         21.4530  -21.7800  -12.0550 C.3     1  UNL1        0.0070
     20  C         20.3360  -20.7560  -11.9060 C.3     1  UNL1        0.0390
     21  C         19.0880  -21.3390  -11.2900 C.2     1  UNL1       -0.0500
     22  C         17.8790  -20.6350  -11.4370 C.2     1  UNL1        0.0110
     23  C         19.1200  -22.5340  -10.5380 C.2     1  UNL1       -0.0160
     24  C         16.7010  -21.1250  -10.8760 C.2     1  UNL1        0.0430
     25  C         16.7290  -22.3150  -10.1650 C.2     1  UNL1        0.1170
     26  F         15.5950  -22.7910   -9.6340 F       1  UNL1       -0.2060
     27  C         17.9150  -23.0190   -9.9970 C.2     1  UNL1        0.0520
@<TRIPOS>BOND
     1    19    20    1
     2    19    18    1
     3    20    21    1
     4    22    21    2
     5    22    24    1
     6    21    23    1
     7    24    25    2
     8    18    17    1
     9    23    17    1
    10    23    27    2
    11    17    15    1
    12    25    27    1
    13    25    26    1
    14    15    16    1
    15    15     1    1
    16     1     2    1
    17     2     3    1
    18     4     3    2
    19     4     5    1
    20     3     8    1
    21     5     6    2
    22     8     7    2
    23     6     7    1
    24     6     9    1
    25    10     9    2
    26     9    12    1
    27     9    11    2
    28    14    12    1
    29    12    13    1
