@<TRIPOS>MOLECULE
41397_out_ligand_01.pdbqt
 29 32 0 0 0
SMALL
GASTEIGER

@<TRIPOS>ATOM
      1  N         20.7150  -22.8550   -8.9990 N.am    1  UNL1       -0.3230
      2  C         20.4450  -22.2690   -7.7790 C.2     1  UNL1        0.2580
      3  O         21.2640  -21.6690   -7.0900 O.2     1  UNL1       -0.2670
      4  H         19.9160  -23.3050   -9.4480 H       1  UNL1        0.1690
      5  C         19.0280  -22.3820   -7.2700 C.2     1  UNL1        0.0620
      6  C         18.8780  -22.3260   -5.8740 C.2     1  UNL1        0.0310
      7  C         17.6270  -22.4190   -5.2680 C.2     1  UNL1       -0.0240
      8  C         17.5270  -22.3570   -3.8680 C.2     1  UNL1        0.0120
      9  C         16.4760  -22.5720   -6.0700 C.2     1  UNL1       -0.0130
     10  C         16.2940  -22.4460   -3.2300 C.2     1  UNL1        0.0010
     11  C         15.1450  -22.5980   -3.9900 C.2     1  UNL1        0.0010
     12  C         15.2360  -22.6600   -5.3840 C.2     1  UNL1        0.0130
     13  C         16.6300  -22.6290   -7.5030 C.2     1  UNL1        0.0050
     14  C         15.5320  -22.7830   -8.3840 C.2     1  UNL1        0.0160
     15  C         17.9130  -22.5330   -8.1070 C.2     1  UNL1        0.0830
     16  C         15.6990  -22.8370   -9.7610 C.2     1  UNL1        0.0200
     17  C         16.9760  -22.7340  -10.2480 C.2     1  UNL1        0.1170
     18  N         18.0600  -22.5870   -9.4600 N.2     1  UNL1       -0.2590
     19  C         21.9360  -22.9070   -9.6970 C.2     1  UNL1        0.0350
     20  C         23.1410  -23.3310   -9.1370 C.2     1  UNL1        0.0300
     21  C         24.3120  -23.3530   -9.9050 C.2     1  UNL1        0.0190
     22  C         24.2920  -22.9400  -11.2410 C.2     1  UNL1        0.0320
     23  C         23.0850  -22.5280  -11.8120 C.2     1  UNL1        0.0190
     24  C         21.9160  -22.5110  -11.0410 C.2     1  UNL1        0.0300
     25  C         25.5610  -22.9770  -12.0150 C.2     1  UNL1        0.2490
     26  N         26.3170  -24.1150  -11.9280 N.am    1  UNL1       -0.3660
     27  H         25.9220  -24.9890  -11.6140 H       1  UNL1        0.1590
     28  H         27.0960  -24.1650  -12.5730 H       1  UNL1        0.1590
     29  O         25.9090  -22.0490  -12.7330 O.2     1  UNL1       -0.2680
@<TRIPOS>BOND
     1    29    25    2
     2    28    26    1
     3    25    26   am
     4    25    22    1
     5    26    27    1
     6    23    22    2
     7    23    24    1
     8    22    21    1
     9    24    19    2
    10    17    16    1
    11    17    18    2
    12    21    20    2
    13    16    14    2
    14    19    20    1
    15    19     1    1
    16    18    15    1
    17     4     1    1
    18     1     2   am
    19    14    13    1
    20    15    13    1
    21    15     5    2
    22     2     5    1
    23     2     3    2
    24    13     9    2
    25     5     6    1
    26     9    12    1
    27     9     7    1
    28     6     7    2
    29    12    11    2
    30     7     8    1
    31    11    10    1
    32     8    10    2
