@<TRIPOS>MOLECULE
41391_out_ligand_01.pdbqt
 38 41 0 0 0
SMALL
GASTEIGER

@<TRIPOS>ATOM
      1  C         21.0980  -21.7800  -11.9220 C.ar    1  UNL1        0.0500
      2  N         21.3880  -21.1580  -13.1190 N.ar    1  UNL1       -0.3540
      3  C         22.7370  -21.1860  -13.3780 C.ar    1  UNL1        0.0430
      4  C         23.4560  -20.6700  -14.4650 C.2     1  UNL1        0.0330
      5  C         24.8420  -20.8390  -14.4550 C.2     1  UNL1        0.0440
      6  C         25.4660  -21.4930  -13.3980 C.2     1  UNL1        0.1170
      7  F         26.7990  -21.6300  -13.4150 F       1  UNL1       -0.2060
      8  C         24.7410  -22.0060  -12.3240 C.2     1  UNL1        0.0560
      9  C         23.3390  -21.8580  -12.3140 C.ar    1  UNL1        0.0020
     10  C         22.2990  -22.2570  -11.4060 C.ar    1  UNL1       -0.0180
     11  H         20.7000  -20.7350  -13.7280 H       1  UNL1        0.1660
     12  C         22.5050  -23.0140  -10.1180 C.3     1  UNL1        0.0510
     13  C         22.3840  -22.1260   -8.8790 C.3     1  UNL1        0.1080
     14  C         21.2330  -22.5830   -8.0010 C.2     1  UNL1        0.2220
     15  O         20.8650  -23.7560   -8.0090 O.2     1  UNL1       -0.2730
     16  N         20.6690  -21.5480   -7.2710 N.am    1  UNL1       -0.3270
     17  H         21.0320  -20.6160   -7.4430 H       1  UNL1        0.1690
     18  C         19.6410  -21.6380   -6.3100 C.2     1  UNL1        0.0360
     19  C         19.5870  -20.8660   -5.1510 C.2     1  UNL1        0.0300
     20  C         18.5270  -21.0140   -4.2460 C.2     1  UNL1        0.0100
     21  C         17.5010  -21.9470   -4.4650 C.2     1  UNL1       -0.0390
     22  C         16.3880  -22.0340   -3.4570 C.3     1  UNL1        0.0500
     23  C         17.5520  -22.7120   -5.6450 C.2     1  UNL1        0.0820
     24  C         18.6090  -22.5510   -6.5590 C.2     1  UNL1        0.0540
     25  S         16.2940  -23.9130   -6.0480 S.O2    1  UNL1        0.2390
     26  O         15.7510  -24.4430   -4.8170 O.2     1  UNL1       -0.2060
     27  O         16.7790  -24.7770   -7.1000 O.2     1  UNL1       -0.2060
     28  N         15.0720  -22.9310   -6.6730 N.3     1  UNL1       -0.2250
     29  H         15.1100  -22.9740   -7.6920 H       1  UNL1        0.1360
     30  H         14.1460  -23.1670   -6.3150 H       1  UNL1        0.1360
     31  C         19.7320  -21.8430  -11.4090 C.2     1  UNL1       -0.0090
     32  C         18.8730  -20.7450  -11.5550 C.2     1  UNL1        0.0160
     33  C         17.5680  -20.7870  -11.0490 C.2     1  UNL1        0.0370
     34  C         17.1090  -21.9280  -10.3930 C.2     1  UNL1        0.0680
     35  C         17.9620  -23.0250  -10.2520 C.2     1  UNL1        0.0370
     36  C         19.2630  -22.9880  -10.7600 C.2     1  UNL1        0.0160
     37  O         15.8670  -22.1010   -9.8470 O.2     1  UNL1       -0.3560
     38  C         15.3030  -23.4030   -9.9230 C.3     1  UNL1        0.2100
@<TRIPOS>BOND
     1     4     5    1
     2     4     3    2
     3     5     6    2
     4    11     2    1
     5     7     6    1
     6     6     8    1
     7     3     2   ar
     8     3     9   ar
     9     2     1   ar
    10     8     9    2
    11     9    10   ar
    12     1    31    1
    13     1    10   ar
    14    32    31    2
    15    32    33    1
    16    31    36    1
    17    10    12    1
    18    33    34    2
    19    36    35    2
    20    34    35    1
    21    34    37    1
    22    12    13    1
    23    38    37    1
    24    13    14    1
    25    15    14    2
    26    14    16   am
    27    29    28    1
    28    17    16    1
    29    16    18    1
    30    27    25    2
    31    28    30    1
    32    28    25    1
    33    24    18    2
    34    24    23    1
    35    18    19    1
    36    25    23    1
    37    25    26    2
    38    23    21    2
    39    19    20    2
    40    21    20    1
    41    21    22    1
