@<TRIPOS>MOLECULE
41411_out_ligand_01.pdbqt
 33 36 0 0 0
SMALL
GASTEIGER

@<TRIPOS>ATOM
      1  N         24.2240  -23.0810  -10.8630 N.am    1  UNL1       -0.3260
      2  C         25.0810  -21.9960  -10.8810 C.2     1  UNL1        0.2350
      3  O         24.8600  -20.8710  -10.4420 O.2     1  UNL1       -0.2720
      4  H         24.6410  -23.9200  -11.2660 H       1  UNL1        0.1690
      5  C         22.9260  -23.1720  -10.3340 C.2     1  UNL1        0.0350
      6  C         21.8190  -22.5200  -10.8860 C.2     1  UNL1        0.0440
      7  C         20.5430  -22.6620  -10.2910 C.ar    1  UNL1        0.0050
      8  C         19.2520  -22.1330  -10.6020 C.ar    1  UNL1        0.0030
      9  C         20.4100  -23.4600   -9.1560 C.ar    1  UNL1        0.0460
     10  C         18.7720  -21.2750  -11.6150 C.2     1  UNL1        0.0140
     11  C         18.3540  -22.6180   -9.6490 C.ar    1  UNL1        0.0460
     12  C         17.4180  -20.9270  -11.6460 C.2     1  UNL1        0.0010
     13  C         16.5430  -21.4190  -10.6840 C.2     1  UNL1        0.0020
     14  C         16.9920  -22.2700   -9.6700 C.2     1  UNL1        0.0300
     15  N         19.0770  -23.4250   -8.7920 N.ar    1  UNL1       -0.3460
     16  C         21.5100  -24.1190   -8.5860 C.2     1  UNL1        0.0330
     17  C         22.7610  -23.9610   -9.1940 C.2     1  UNL1        0.0320
     18  C         18.5090  -24.1500   -7.6650 C.3     1  UNL1        0.1250
     19  C         18.4400  -23.2980   -6.4100 C.3     1  UNL1        0.0270
     20  C         26.4190  -22.3320  -11.5600 C.3     1  UNL1        0.1950
     21  N         26.5480  -21.6740  -12.8820 N.pl3   1  UNL1       -0.2830
     22  H         27.5320  -21.4290  -13.0720 H       1  UNL1        0.1280
     23  C         26.0180  -22.3770  -13.9910 C.2     1  UNL1        0.0240
     24  C         26.5290  -23.6460  -14.3200 C.2     1  UNL1        0.0240
     25  C         25.9800  -24.4060  -15.3540 C.2     1  UNL1        0.0020
     26  C         24.8920  -23.9230  -16.0700 C.2     1  UNL1        0.0010
     27  C         24.3570  -22.6730  -15.7630 C.2     1  UNL1        0.0190
     28  C         24.9170  -21.8860  -14.7380 C.2     1  UNL1        0.0520
     29  C         24.3570  -20.5260  -14.4550 C.2     1  UNL1        0.2510
     30  N         23.0120  -20.3310  -14.6260 N.am    1  UNL1       -0.3660
     31  H         22.6990  -19.3700  -14.5530 H       1  UNL1        0.1590
     32  H         22.4450  -20.9510  -15.1860 H       1  UNL1        0.1590
     33  O         25.0700  -19.5810  -14.1320 O.2     1  UNL1       -0.2680
@<TRIPOS>BOND
     1    26    27    2
     2    26    25    1
     3    27    28    1
     4    25    24    2
     5    32    30    1
     6    28    29    1
     7    28    23    2
     8    30    31    1
     9    30    29   am
    10    29    33    2
    11    24    23    1
    12    23    21    1
    13    22    21    1
    14    21    20    1
    15    12    10    1
    16    12    13    2
    17    10     8    2
    18    20     2    1
    19     4     1    1
    20     6     5    2
    21     6     7    1
    22     2     1   am
    23     2     3    2
    24     1     5    1
    25    13    14    1
    26     8     7   ar
    27     8    11   ar
    28     5    17    1
    29     7     9   ar
    30    14    11    2
    31    11    15   ar
    32    17    16    2
    33     9    15   ar
    34     9    16    1
    35    15    18    1
    36    18    19    1
