@<TRIPOS>MOLECULE
41429_out_ligand_01.pdbqt
 31 34 0 0 0
SMALL
GASTEIGER

@<TRIPOS>ATOM
      1  C         25.6370  -22.5590  -10.6570 C.3     1  UNL1        0.1850
      2  S         25.4220  -23.1340  -12.3700 S.3     1  UNL1       -0.0810
      3  C         24.0650  -22.2010  -12.8560 C.ar    1  UNL1        0.1900
      4  N         24.0280  -21.2080  -13.7070 N.ar    1  UNL1       -0.1220
      5  N         22.7410  -20.7230  -13.7050 N.ar    1  UNL1       -0.1300
      6  C         22.0170  -21.4530  -12.8760 C.ar    1  UNL1        0.1510
      7  N         22.8350  -22.4040  -12.3150 N.ar    1  UNL1       -0.3170
      8  H         22.6060  -23.0870  -11.6120 H       1  UNL1        0.1690
      9  C         20.6490  -21.3250  -12.5320 C.2     1  UNL1        0.0550
     10  C         20.1050  -21.7870  -11.3960 C.2     1  UNL1        0.0410
     11  C         18.7210  -21.6440  -11.0920 C.2     1  UNL1        0.0750
     12  C         17.7960  -20.6520  -11.4060 C.2     1  UNL1        0.0390
     13  C         16.5490  -21.0180  -10.8440 C.2     1  UNL1        0.0350
     14  C         16.7590  -22.2180  -10.2100 C.2     1  UNL1        0.0500
     15  C         15.8890  -23.1310   -9.4430 C.3     1  UNL1        0.0760
     16  O         18.0540  -22.5980  -10.3510 O.2     1  UNL1       -0.3160
     17  C         24.2930  -22.2120  -10.0310 C.2     1  UNL1        0.2310
     18  O         23.9080  -21.0460   -9.9790 O.2     1  UNL1       -0.2720
     19  N         23.6100  -23.3170   -9.5510 N.am    1  UNL1       -0.3260
     20  H         24.1320  -24.1940   -9.5290 H       1  UNL1        0.1690
     21  C         22.3430  -23.3500   -8.9370 C.2     1  UNL1        0.0370
     22  C         21.5430  -24.4860   -9.1990 C.2     1  UNL1        0.0320
     23  C         20.2660  -24.6190   -8.6430 C.2     1  UNL1        0.0420
     24  C         19.8170  -23.6020   -7.8330 C.2     1  UNL1        0.1110
     25  C         20.5870  -22.4900   -7.5750 C.2     1  UNL1        0.1130
     26  O         18.6110  -23.5580   -7.2090 O.2     1  UNL1       -0.2560
     27  C         21.8510  -22.3340   -8.1120 C.2     1  UNL1        0.0690
     28  O         19.9600  -21.6030   -6.7560 O.2     1  UNL1       -0.2560
     29  C         18.7270  -22.2990   -6.5320 C.3     1  UNL1        0.4980
     30  F         17.7030  -21.5030   -6.9260 F       1  UNL1       -0.1470
     31  F         18.5880  -22.5140   -5.1990 F       1  UNL1       -0.1470
@<TRIPOS>BOND
     1     4     5   ar
     2     4     3   ar
     3     5     6   ar
     4     6     9    1
     5     6     7   ar
     6     3     2    1
     7     3     7   ar
     8     9    10    2
     9     2     1    1
    10     7     8    1
    11    12    11    2
    12    12    13    1
    13    10    11    1
    14    11    16    1
    15    13    14    2
    16     1    17    1
    17    16    14    1
    18    14    15    1
    19    17    18    2
    20    17    19   am
    21    19    20    1
    22    19    21    1
    23    22    21    2
    24    22    23    1
    25    21    27    1
    26    23    24    2
    27    27    25    2
    28    24    25    1
    29    24    26    1
    30    25    28    1
    31    26    29    1
    32    30    29    1
    33    28    29    1
    34    29    31    1
