@<TRIPOS>MOLECULE
41425_out_ligand_01.pdbqt
 28 30 0 0 0
SMALL
GASTEIGER

@<TRIPOS>ATOM
      1  N         19.5680  -22.1200  -10.4640 N.am    1  UNL1       -0.3240
      2  C         18.8810  -21.1540  -11.1450 C.2     1  UNL1        0.2450
      3  O         19.3660  -20.2160  -11.7730 O.2     1  UNL1       -0.2680
      4  H         19.0000  -22.7620   -9.9150 H       1  UNL1        0.1690
      5  C         17.3940  -21.2970  -11.1870 C.2     1  UNL1        0.0760
      6  C         16.4660  -21.8620  -10.3960 C.2     1  UNL1        0.0370
      7  C         16.5550  -22.5310   -9.0920 C.2     1  UNL1        0.0570
      8  C         15.9230  -23.7530   -8.8980 C.2     1  UNL1        0.0320
      9  C         15.9700  -24.3370   -7.6360 C.2     1  UNL1        0.0160
     10  C         16.6220  -23.6790   -6.5900 C.2     1  UNL1       -0.0070
     11  C         16.6750  -24.2210   -5.2940 C.2     1  UNL1        0.0150
     12  C         17.2280  -22.4370   -6.8710 C.2     1  UNL1        0.0690
     13  C         17.3200  -23.5270   -4.2730 C.2     1  UNL1        0.0250
     14  C         17.9040  -22.2960   -4.5480 C.2     1  UNL1        0.0360
     15 CL         18.6970  -21.4290   -3.2930 Cl      1  UNL1       -0.0840
     16  C         17.8530  -21.7590   -5.8340 C.2     1  UNL1        0.0560
     17  N         17.2170  -21.8910   -8.1030 N.2     1  UNL1       -0.2480
     18  C         20.9630  -22.2930  -10.3750 C.2     1  UNL1        0.0350
     19  C         21.6690  -22.4360  -11.5760 C.2     1  UNL1        0.0300
     20  C         23.0550  -22.6140  -11.5760 C.2     1  UNL1        0.0190
     21  C         23.7590  -22.6570  -10.3680 C.2     1  UNL1        0.0320
     22  C         23.0640  -22.4920   -9.1670 C.2     1  UNL1        0.0190
     23  C         21.6740  -22.3130   -9.1740 C.2     1  UNL1        0.0300
     24  C         25.2330  -22.8500  -10.4140 C.2     1  UNL1        0.2490
     25  N         25.7450  -23.9640   -9.8100 N.am    1  UNL1       -0.3660
     26  H         26.7290  -24.1380   -9.9680 H       1  UNL1        0.1590
     27  H         25.1670  -24.7580   -9.5720 H       1  UNL1        0.1590
     28  O         25.9680  -22.0640  -11.0020 O.2     1  UNL1       -0.2680
@<TRIPOS>BOND
     1     3     2    2
     2    20    19    1
     3    20    21    2
     4    19    18    2
     5     5     2    1
     6     5     6    2
     7     2     1   am
     8    28    24    2
     9     1    18    1
    10     1     4    1
    11    24    21    1
    12    24    25   am
    13     6     7    1
    14    18    23    1
    15    21    22    1
    16    26    25    1
    17    25    27    1
    18    23    22    2
    19     7     8    2
    20     7    17    1
    21     8     9    1
    22    17    12    2
    23     9    10    2
    24    12    10    1
    25    12    16    1
    26    10    11    1
    27    16    14    2
    28    11    13    2
    29    14    13    1
    30    14    15    1
