@<TRIPOS>MOLECULE
41430_out_ligand_01.pdbqt
 34 37 0 0 0
SMALL
GASTEIGER

@<TRIPOS>ATOM
      1  C         22.1810  -22.3780   -8.6460 C.2     1  UNL1        0.2570
      2  O         22.9660  -21.6830   -8.0130 O.2     1  UNL1       -0.2670
      3  N         22.3710  -22.8940   -9.9100 N.am    1  UNL1       -0.3220
      4  H         21.5850  -23.3670  -10.3600 H       1  UNL1        0.1690
      5  C         23.4960  -22.7550  -10.7640 C.2     1  UNL1        0.0500
      6  C         24.7460  -23.3050  -10.4530 C.2     1  UNL1        0.0300
      7  C         25.8420  -23.1180  -11.3010 C.2     1  UNL1        0.0020
      8  C         25.7100  -22.3770  -12.4700 C.2     1  UNL1        0.0010
      9  C         24.4720  -21.8320  -12.8070 C.2     1  UNL1        0.0190
     10  C         23.3570  -22.0320  -11.9750 C.2     1  UNL1        0.0580
     11  C         22.0210  -21.4880  -12.3780 C.2     1  UNL1        0.2540
     12  O         21.7630  -21.3050  -13.5660 O.2     1  UNL1       -0.2680
     13  N         21.1580  -21.1440  -11.3630 N.am    1  UNL1       -0.3540
     14  H         21.5060  -21.0640  -10.4160 H       1  UNL1        0.1620
     15  C         19.8940  -20.4660  -11.6100 C.3     1  UNL1        0.1550
     16  C         18.7390  -21.4350  -11.9040 C.3     1  UNL1        0.1390
     17  C         17.3410  -20.8810  -11.6540 C.3     1  UNL1        0.0350
     18  C         16.9220  -21.5320  -10.3590 C.3     1  UNL1        0.0290
     19  C         17.6300  -22.8640  -10.4330 C.3     1  UNL1        0.1680
     20  O         18.8860  -22.6090  -11.0730 O.3     1  UNL1       -0.3840
     21  C         20.8790  -22.7020   -8.0100 C.2     1  UNL1        0.0510
     22  C         20.3640  -21.8570   -7.0250 C.2     1  UNL1        0.0390
     23  C         19.1490  -22.1830   -6.4170 C.ar    1  UNL1        0.0790
     24  C         18.5620  -21.3210   -5.3890 C.ar    1  UNL1        0.2630
     25  C         18.4760  -23.3390   -6.7880 C.ar    1  UNL1        0.1480
     26  N         17.3740  -21.7440   -4.8590 N.ar    1  UNL1       -0.2750
     27  O         19.1050  -20.2820   -5.0340 O.2     1  UNL1       -0.2670
     28  C         16.6810  -22.8710   -5.2030 C.ar    1  UNL1        0.3300
     29  H         16.9530  -21.1600   -4.1510 H       1  UNL1        0.1730
     30  N         17.2470  -23.6670   -6.1740 N.ar    1  UNL1       -0.2870
     31  O         15.6140  -23.1140   -4.6440 O.2     1  UNL1       -0.2460
     32  C         16.5820  -24.8860   -6.6010 C.3     1  UNL1        0.1630
     33  N         18.9730  -24.1780   -7.7330 N.2     1  UNL1       -0.2410
     34  C         20.1550  -23.8470   -8.3150 C.2     1  UNL1        0.1360
@<TRIPOS>BOND
     1    12    11    2
     2     9     8    2
     3     9    10    1
     4     8     7    1
     5    11    10    1
     6    11    13   am
     7    10     5    2
     8    16    17    1
     9    16    15    1
    10    16    20    1
    11    17    18    1
    12    15    13    1
    13    13    14    1
    14     7     6    2
    15    20    19    1
    16     5     6    1
    17     5     3    1
    18    19    18    1
    19     4     3    1
    20     3     1   am
    21     1     2    2
    22     1    21    1
    23    34    21    2
    24    34    33    1
    25    21    22    1
    26    33    25    2
    27    22    23    2
    28    25    23   ar
    29    25    30   ar
    30    32    30    1
    31    23    24   ar
    32    30    28   ar
    33    24    27    2
    34    24    26   ar
    35    28    26   ar
    36    28    31    2
    37    26    29    1
