@<TRIPOS>MOLECULE
41461_out_ligand_01.pdbqt
 38 41 0 0 0
SMALL
GASTEIGER

@<TRIPOS>ATOM
      1  C         19.7420  -22.2650  -10.3110 C.2     1  UNL1        0.0540
      2  C         18.9300  -21.2900  -10.9090 C.2     1  UNL1        0.0190
      3  C         19.3910  -20.5890  -12.0240 C.2     1  UNL1        0.0010
      4  C         20.6560  -20.8620  -12.5480 C.2     1  UNL1        0.0020
      5  C         21.4650  -21.8390  -11.9630 C.2     1  UNL1        0.0250
      6  C         21.0060  -22.5540  -10.8540 C.2     1  UNL1        0.0380
      7  N         21.8950  -23.4890  -10.2250 N.pl3   1  UNL1       -0.1800
      8  H         21.4340  -24.0850   -9.5210 H       1  UNL1        0.1460
      9  S         23.2910  -22.8250   -9.5190 S.O2    1  UNL1        0.2460
     10  O         22.9620  -21.5470   -8.9230 O.2     1  UNL1       -0.2060
     11  O         23.9230  -23.8780   -8.7550 O.2     1  UNL1       -0.2060
     12  C         24.3210  -22.5400  -10.9400 C.2     1  UNL1        0.0770
     13  C         25.0790  -21.3460  -11.0280 C.2     1  UNL1        0.0270
     14  C         25.8960  -21.1020  -12.1390 C.2     1  UNL1        0.0330
     15  C         25.9180  -22.0740  -13.1130 C.ar    1  UNL1        0.0630
     16  N         26.6220  -22.1120  -14.3110 N.ar    1  UNL1       -0.3070
     17  C         25.1760  -23.2520  -13.0150 C.ar    1  UNL1        0.0640
     18  C         26.3290  -23.3160  -14.9690 C.ar    1  UNL1        0.3250
     19  H         27.2560  -21.4190  -14.6730 H       1  UNL1        0.1700
     20  O         26.7730  -23.6840  -16.0410 O.2     1  UNL1       -0.2470
     21  N         25.4260  -24.0110  -14.1510 N.ar    1  UNL1       -0.3060
     22  H         25.0510  -24.9180  -14.3790 H       1  UNL1        0.1700
     23  C         24.3670  -23.5240  -11.9390 C.2     1  UNL1        0.0560
     24  C         19.2570  -23.0250   -9.1320 C.2     1  UNL1        0.2580
     25  O         19.6420  -24.1820   -9.0020 O.2     1  UNL1       -0.2670
     26  N         18.4490  -22.3080   -8.2700 N.am    1  UNL1       -0.3230
     27  H         18.3770  -21.3120   -8.4410 H       1  UNL1        0.1690
     28  C         17.8400  -22.7770   -7.0890 C.2     1  UNL1        0.0350
     29  C         18.4810  -23.5920   -6.1530 C.2     1  UNL1        0.0320
     30  C         17.8050  -24.0160   -5.0040 C.2     1  UNL1        0.0450
     31  C         16.4870  -23.6270   -4.7930 C.2     1  UNL1        0.1310
     32  F         15.8580  -24.0470   -3.6880 F       1  UNL1       -0.2050
     33  C         15.8220  -22.8210   -5.7100 C.2     1  UNL1        0.0880
     34  C         16.5090  -22.3990   -6.8620 C.2     1  UNL1        0.0480
     35  C         14.4020  -22.4270   -5.4430 C.3     1  UNL1        0.4200
     36  F         13.8880  -21.6000   -6.3950 F       1  UNL1       -0.1660
     37  F         14.2410  -21.7870   -4.2520 F       1  UNL1       -0.1660
     38  F         13.5560  -23.4970   -5.3950 F       1  UNL1       -0.1660
@<TRIPOS>BOND
     1    20    18    2
     2    18    16   ar
     3    18    21   ar
     4    19    16    1
     5    22    21    1
     6    16    15   ar
     7    21    17   ar
     8    15    17   ar
     9    15    14    1
    10    17    23    1
    11     4     3    2
    12     4     5    1
    13    14    13    2
    14     3     2    1
    15     5     6    2
    16    23    12    2
    17    13    12    1
    18    12     9    1
    19     2     1    2
    20     6     1    1
    21     6     7    1
    22     1    24    1
    23     7     8    1
    24     7     9    1
    25     9    10    2
    26     9    11    2
    27    24    25    2
    28    24    26   am
    29    27    26    1
    30    26    28    1
    31    28    34    2
    32    28    29    1
    33    34    33    1
    34    36    35    1
    35    29    30    2
    36    33    35    1
    37    33    31    2
    38    35    38    1
    39    35    37    1
    40    30    31    1
    41    31    32    1
