@<TRIPOS>MOLECULE
41477_out_ligand_01.pdbqt
 30 33 0 0 0
SMALL
GASTEIGER

@<TRIPOS>ATOM
      1  C         18.5090  -22.5150   -9.3320 C.2     1  UNL1        0.0590
      2  C         17.6200  -22.5810  -10.4110 C.2     1  UNL1        0.0190
      3  C         16.2560  -22.7590  -10.1920 C.2     1  UNL1        0.0020
      4  C         15.7520  -22.8650   -8.8890 C.2     1  UNL1        0.0140
      5  C         16.6260  -22.7670   -7.7840 C.ar    1  UNL1       -0.0000
      6  C         16.4450  -22.8110   -6.3640 C.ar    1  UNL1       -0.0230
      7  C         17.6940  -22.6340   -5.7890 C.ar    1  UNL1        0.0170
      8  N         18.6010  -22.4590   -6.8010 N.ar    1  UNL1       -0.3580
      9  C         17.9880  -22.5840   -8.0270 C.ar    1  UNL1        0.0590
     10  C         18.1060  -22.5860   -4.3520 C.3     1  UNL1        0.0570
     11  C         17.2410  -23.4900   -3.4770 C.3     1  UNL1        0.0060
     12  C         15.8510  -22.9300   -3.1550 C.3     1  UNL1        0.0010
     13  C         15.0860  -22.2610   -4.3010 C.3     1  UNL1        0.0050
     14  C         15.1490  -23.0050   -5.6350 C.3     1  UNL1        0.0410
     15  H         19.5850  -22.2570   -6.6730 H       1  UNL1        0.1660
     16  C         19.9610  -22.3770   -9.5870 C.2     1  UNL1        0.2580
     17  N         20.2870  -22.3600  -10.9320 N.am    1  UNL1       -0.3230
     18  H         19.5090  -22.2800  -11.5760 H       1  UNL1        0.1690
     19  O         20.7180  -22.2560   -8.6350 O.2     1  UNL1       -0.2670
     20  C         21.5760  -22.3120  -11.4960 C.2     1  UNL1        0.0350
     21  C         22.6700  -23.0180  -10.9960 C.2     1  UNL1        0.0300
     22  C         23.9190  -22.9310  -11.6240 C.2     1  UNL1        0.0190
     23  C         24.0880  -22.1280  -12.7550 C.2     1  UNL1        0.0320
     24  C         22.9910  -21.4300  -13.2710 C.2     1  UNL1        0.0190
     25  C         21.7440  -21.5240  -12.6430 C.2     1  UNL1        0.0300
     26  C         25.4320  -22.0670  -13.3890 C.2     1  UNL1        0.2490
     27  N         26.4550  -22.7170  -12.7550 N.am    1  UNL1       -0.3660
     28  H         27.3190  -22.7780  -13.2790 H       1  UNL1        0.1590
     29  H         26.2800  -23.4420  -12.0740 H       1  UNL1        0.1590
     30  O         25.6180  -21.4910  -14.4530 O.2     1  UNL1       -0.2680
@<TRIPOS>BOND
     1    30    26    2
     2    26    27   am
     3    26    23    1
     4    28    27    1
     5    24    23    2
     6    24    25    1
     7    27    29    1
     8    23    22    1
     9    25    20    2
    10    22    21    2
    11    18    17    1
    12    20    21    1
    13    20    17    1
    14    17    16   am
    15     2     3    1
    16     2     1    2
    17     3     4    2
    18    16     1    1
    19    16    19    2
    20     1     9    1
    21     4     5    1
    22     9     5   ar
    23     9     8   ar
    24     5     6   ar
    25     8    15    1
    26     8     7   ar
    27     6     7   ar
    28     6    14    1
    29     7    10    1
    30    14    13    1
    31    10    11    1
    32    13    12    1
    33    11    12    1
