@<TRIPOS>MOLECULE
41475_out_ligand_01.pdbqt
 31 33 0 0 0
SMALL
GASTEIGER

@<TRIPOS>ATOM
      1  N         21.3970  -22.3390   -9.9030 N.am    1  UNL1       -0.3230
      2  C         21.1010  -23.4120   -9.0840 C.2     1  UNL1        0.2560
      3  O         21.5580  -24.5450   -9.1540 O.2     1  UNL1       -0.2670
      4  H         20.8200  -21.5140   -9.7990 H       1  UNL1        0.1690
      5  C         22.3430  -22.2970  -10.9500 C.2     1  UNL1        0.0360
      6  C         21.9220  -21.7430  -12.1610 C.2     1  UNL1        0.0300
      7  C         22.7950  -21.6610  -13.2490 C.2     1  UNL1        0.0110
      8  C         24.1200  -22.1230  -13.1610 C.2     1  UNL1       -0.0350
      9  C         24.5410  -22.6740  -11.9350 C.2     1  UNL1        0.0820
     10  C         23.6540  -22.7580  -10.8420 C.2     1  UNL1        0.0540
     11  C         24.9850  -21.9780  -14.3920 C.3     1  UNL1        0.0350
     12  C         24.8320  -23.1550  -15.3480 C.3     1  UNL1        0.0100
     13  S         26.1810  -23.3160  -11.6820 S.O2    1  UNL1        0.2390
     14  O         27.1210  -22.2200  -11.6560 O.2     1  UNL1       -0.2060
     15  O         26.3880  -24.4810  -12.5100 O.2     1  UNL1       -0.2060
     16  N         26.1160  -23.9330  -10.1200 N.3     1  UNL1       -0.2250
     17  H         27.0380  -24.2740   -9.8500 H       1  UNL1        0.1360
     18  H         25.3900  -24.6490  -10.0790 H       1  UNL1        0.1360
     19  C         20.0830  -23.1310   -8.0350 C.2     1  UNL1        0.0330
     20  C         18.9770  -23.9960   -7.9280 C.2     1  UNL1        0.0190
     21  C         17.9890  -23.7770   -6.9610 C.2     1  UNL1        0.0320
     22  C         18.1510  -22.7210   -6.0820 C.2     1  UNL1        0.0510
     23  C         19.2380  -21.8530   -6.1960 C.2     1  UNL1       -0.0280
     24  N         17.2810  -22.2640   -5.0510 N.pl3   1  UNL1       -0.2750
     25  C         20.2190  -22.0450   -7.1600 C.2     1  UNL1        0.0260
     26  C         19.1380  -20.7280   -5.2130 C.3     1  UNL1        0.0620
     27  C         17.9750  -21.1740   -4.3090 C.3     1  UNL1        0.1460
     28  S         16.2830  -23.3050   -4.1880 S.O2    1  UNL1        0.2290
     29  C         15.0780  -23.7990   -5.4070 C.3     1  UNL1        0.1860
     30  O         15.5880  -22.5670   -3.1530 O.2     1  UNL1       -0.2060
     31  O         17.0660  -24.4780   -3.8540 O.2     1  UNL1       -0.2060
@<TRIPOS>BOND
     1    12    11    1
     2    11     8    1
     3     7     8    2
     4     7     6    1
     5     8     9    1
     6    15    13    2
     7     6     5    2
     8     9    13    1
     9     9    10    2
    10    13    14    2
    11    13    16    1
    12     5    10    1
    13     5     1    1
    14    16    18    1
    15    16    17    1
    16     1     4    1
    17     1     2   am
    18     3     2    2
    19     2    19    1
    20    19    20    2
    21    19    25    1
    22    20    21    1
    23    25    23    2
    24    21    22    2
    25    23    22    1
    26    23    26    1
    27    22    24    1
    28    29    28    1
    29    26    27    1
    30    24    27    1
    31    24    28    1
    32    28    31    2
    33    28    30    2
