@<TRIPOS>MOLECULE
41497_out_ligand_01.pdbqt
 36 39 0 0 0
SMALL
GASTEIGER

@<TRIPOS>ATOM
      1  C         18.7080  -22.2410  -10.2350 C.2     1  UNL1        0.0870
      2  C         20.0080  -22.7690  -10.1350 C.2     1  UNL1        0.0550
      3  C         21.0350  -22.3080  -10.9650 C.2     1  UNL1        0.0360
      4  C         20.7400  -21.3310  -11.9120 C.2     1  UNL1        0.0300
      5  C         19.4430  -20.8140  -12.0250 C.2     1  UNL1        0.0100
      6  C         18.4070  -21.2490  -11.1850 C.2     1  UNL1       -0.0390
      7  C         17.0380  -20.6550  -11.3660 C.3     1  UNL1        0.0500
      8  N         22.3130  -22.8760  -10.7810 N.am    1  UNL1       -0.3270
      9  C         23.4190  -22.2890  -10.1880 C.2     1  UNL1        0.2230
     10  O         23.4640  -21.1740   -9.6780 O.2     1  UNL1       -0.2730
     11  H         22.4270  -23.8210  -11.1240 H       1  UNL1        0.1690
     12  C         24.6240  -23.2090  -10.1580 C.3     1  UNL1        0.1230
     13  C         25.8920  -22.4780  -10.5900 C.3     1  UNL1        0.1430
     14  N         25.7930  -21.9520  -11.9300 N.ar    1  UNL1       -0.2970
     15  C         25.9100  -20.5850  -12.2680 C.ar    1  UNL1        0.3290
     16  O         26.1000  -19.6590  -11.4930 O.2     1  UNL1       -0.2460
     17  N         25.7870  -20.5110  -13.6690 N.ar    1  UNL1       -0.3020
     18  C         25.8450  -19.3110  -14.4530 C.3     1  UNL1        0.1610
     19  C         25.6190  -21.8030  -14.1820 C.ar    1  UNL1        0.0650
     20  C         25.4750  -22.2280  -15.4870 C.2     1  UNL1        0.0320
     21  C         25.6300  -22.6980  -13.1090 C.ar    1  UNL1        0.0660
     22  C         25.3400  -23.6030  -15.7000 C.2     1  UNL1        0.0020
     23  C         25.3510  -24.5070  -14.6190 C.2     1  UNL1        0.0020
     24  C         25.4970  -24.0560  -13.3010 C.2     1  UNL1        0.0320
     25  S         17.4810  -22.8890   -9.1130 S.O2    1  UNL1        0.2630
     26  O         16.8100  -24.0040   -9.7470 O.2     1  UNL1       -0.2000
     27  O         16.7100  -21.7780   -8.5960 O.2     1  UNL1       -0.2000
     28  N         18.4140  -23.4680   -7.8250 N.pl3   1  UNL1       -0.2810
     29  H         19.3020  -23.8340   -8.1650 H       1  UNL1        0.1790
     30  C         18.4460  -22.6910   -6.6320 C.2     1  UNL1        0.0430
     31  C         19.3330  -21.6220   -6.5340 C.2     1  UNL1        0.0300
     32  C         19.4140  -20.8960   -5.3450 C.2     1  UNL1        0.0030
     33  C         18.6150  -21.2490   -4.2570 C.2     1  UNL1        0.0070
     34  C         17.7140  -22.3180   -4.3520 C.2     1  UNL1       -0.0600
     35  C         16.8990  -22.7340   -3.1630 C.3     1  UNL1        0.0480
     36  C         17.6420  -23.0450   -5.5480 C.2     1  UNL1        0.0370
@<TRIPOS>BOND
     1    22    20    1
     2    22    23    2
     3    20    19    2
     4    23    24    1
     5    18    17    1
     6    19    17   ar
     7    19    21   ar
     8    17    15   ar
     9    24    21    2
    10    21    14   ar
    11    15    14   ar
    12    15    16    2
    13     5     4    2
    14     5     6    1
    15    14    13    1
    16     4     3    1
    17     7     6    1
    18     6     1    2
    19    11     8    1
    20     3     8    1
    21     3     2    2
    22     8     9   am
    23    13    12    1
    24     1     2    1
    25     1    25    1
    26     9    12    1
    27     9    10    2
    28    26    25    2
    29    25    27    2
    30    25    28    1
    31    29    28    1
    32    28    30    1
    33    30    31    2
    34    30    36    1
    35    31    32    1
    36    36    34    2
    37    32    33    2
    38    34    33    1
    39    34    35    1
