@<TRIPOS>MOLECULE
41491_out_ligand_01.pdbqt
 36 39 0 0 0
SMALL
GASTEIGER

@<TRIPOS>ATOM
      1  C         17.0410  -20.7190  -11.3790 C.3     1  UNL1        0.0500
      2  C         18.4120  -21.2970  -11.1690 C.2     1  UNL1       -0.0390
      3  C         19.4600  -20.8250  -11.9700 C.2     1  UNL1        0.0100
      4  C         20.7630  -21.3170  -11.8290 C.2     1  UNL1        0.0300
      5  C         21.0550  -22.2910  -10.8770 C.2     1  UNL1        0.0360
      6  C         20.0270  -22.7520  -10.0530 C.2     1  UNL1        0.0540
      7  C         18.7150  -22.2600  -10.1910 C.2     1  UNL1        0.0830
      8  N         22.3310  -22.8680  -10.7020 N.am    1  UNL1       -0.3270
      9  C         23.4600  -22.2680  -10.1640 C.2     1  UNL1        0.2230
     10  O         23.5050  -21.1660   -9.6270 O.2     1  UNL1       -0.2730
     11  H         22.4340  -23.8240  -11.0200 H       1  UNL1        0.1690
     12  C         24.6780  -23.1690  -10.2350 C.3     1  UNL1        0.1230
     13  C         25.9250  -22.4080  -10.6760 C.3     1  UNL1        0.1430
     14  N         25.8220  -21.9080  -12.0290 N.ar    1  UNL1       -0.2970
     15  C         25.9150  -20.5450  -12.3890 C.ar    1  UNL1        0.3290
     16  O         26.1020  -19.6050  -11.6310 O.2     1  UNL1       -0.2460
     17  N         25.7680  -20.4940  -13.7890 N.ar    1  UNL1       -0.3020
     18  C         25.8020  -19.3050  -14.5900 C.3     1  UNL1        0.1610
     19  C         25.6080  -21.7970  -14.2790 C.ar    1  UNL1        0.0650
     20  C         25.4380  -22.2420  -15.5740 C.2     1  UNL1        0.0320
     21  C         25.6430  -22.6740  -13.1900 C.ar    1  UNL1        0.0660
     22  C         25.3010  -23.6210  -15.7620 C.2     1  UNL1        0.0020
     23  C         25.3380  -24.5080  -14.6660 C.2     1  UNL1        0.0020
     24  C         25.5110  -24.0360  -13.3600 C.2     1  UNL1        0.0320
     25  S         17.4830  -22.8820   -9.0560 S.O2    1  UNL1        0.2460
     26  O         16.8090  -21.7440   -8.4700 O.2     1  UNL1       -0.2060
     27  O         16.7430  -23.9340   -9.7160 O.2     1  UNL1       -0.2060
     28  N         18.4780  -23.5420   -7.8310 N.pl3   1  UNL1       -0.1780
     29  H         19.4290  -23.5360   -8.2120 H       1  UNL1        0.1460
     30  C         18.4630  -22.7630   -6.6180 C.2     1  UNL1        0.0610
     31  C         19.2840  -21.6400   -6.5090 C.2     1  UNL1        0.0270
     32  C         19.3240  -20.9280   -5.3070 C.2     1  UNL1        0.0020
     33  C         18.5600  -21.3470   -4.2120 C.2     1  UNL1        0.0030
     34  C         17.7470  -22.4760   -4.3180 C.2     1  UNL1        0.0440
     35  C         17.7070  -23.1780   -5.5170 C.2     1  UNL1        0.1380
     36  F         16.9150  -24.2580   -5.6220 F       1  UNL1       -0.2040
@<TRIPOS>BOND
     1    22    20    1
     2    22    23    2
     3    20    19    2
     4    23    24    1
     5    18    17    1
     6    19    17   ar
     7    19    21   ar
     8    17    15   ar
     9    24    21    2
    10    21    14   ar
    11    15    14   ar
    12    15    16    2
    13    14    13    1
    14     3     4    1
    15     3     2    2
    16     4     5    2
    17     1     2    1
    18     2     7    1
    19    11     8    1
    20     5     8    1
    21     5     6    1
    22     8     9   am
    23    13    12    1
    24    12     9    1
    25     7     6    2
    26     7    25    1
    27     9    10    2
    28    27    25    2
    29    25    26    2
    30    25    28    1
    31    29    28    1
    32    28    30    1
    33    30    31    2
    34    30    35    1
    35    31    32    1
    36    36    35    1
    37    35    34    2
    38    32    33    2
    39    34    33    1
