@<TRIPOS>MOLECULE
41498_out_ligand_01.pdbqt
 30 32 0 0 0
SMALL
GASTEIGER

@<TRIPOS>ATOM
      1  N         24.8100  -22.0940  -10.6820 N.am    1  UNL1       -0.3440
      2  C         25.5660  -20.8590  -10.8620 C.3     1  UNL1        0.1530
      3  C         23.7180  -22.0500   -9.8220 C.2     1  UNL1        0.2430
      4  O         23.3410  -21.0330   -9.2480 O.2     1  UNL1       -0.2680
      5  C         25.2400  -23.2900  -11.4410 C.3     1  UNL1        0.1160
      6  C         26.6420  -23.7290  -10.9990 C.3     1  UNL1        0.0370
      7  C         25.0600  -23.1150  -12.9470 C.2     1  UNL1       -0.0360
      8  C         25.7250  -24.0070  -13.8120 C.2     1  UNL1        0.0110
      9  C         25.5790  -23.9110  -15.1970 C.2     1  UNL1        0.0250
     10  C         24.7650  -22.9120  -15.7310 C.2     1  UNL1        0.0740
     11  C         24.0820  -22.0270  -14.8950 C.2     1  UNL1        0.0250
     12  C         24.2320  -22.1300  -13.5090 C.2     1  UNL1        0.0110
     13  S         24.5570  -22.7850  -17.4870 S.O2    1  UNL1        0.2390
     14  O         25.8140  -23.1070  -18.1230 O.2     1  UNL1       -0.2060
     15  O         23.3160  -23.4260  -17.8480 O.2     1  UNL1       -0.2060
     16  N         24.3630  -21.1240  -17.6810 N.3     1  UNL1       -0.2250
     17  H         24.9440  -20.5730  -17.0510 H       1  UNL1        0.1360
     18  H         24.5270  -20.8860  -18.6610 H       1  UNL1        0.1360
     19  C         22.9980  -23.3260   -9.6010 C.2     1  UNL1        0.0750
     20  C         21.7080  -23.5540   -9.8970 C.2     1  UNL1        0.0190
     21  C         20.7050  -22.6600  -10.5230 C.2     1  UNL1       -0.0060
     22  C         21.0390  -21.8710  -11.6380 C.2     1  UNL1        0.0140
     23  C         20.0900  -21.0540  -12.2450 C.2     1  UNL1        0.0020
     24  C         18.7910  -21.0290  -11.7540 C.2     1  UNL1        0.0140
     25  C         18.4310  -21.8310  -10.6600 C.2     1  UNL1       -0.0060
     26  C         17.1160  -21.8160  -10.1720 C.2     1  UNL1        0.0150
     27  C         19.3820  -22.6680  -10.0300 C.2     1  UNL1        0.0760
     28  C         16.7650  -22.6150   -9.0950 C.2     1  UNL1        0.0200
     29  C         17.7460  -23.4110   -8.5400 C.2     1  UNL1        0.1170
     30  N         19.0210  -23.4530   -8.9850 N.2     1  UNL1       -0.2590
@<TRIPOS>BOND
     1    18    16    1
     2    14    13    2
     3    15    13    2
     4    16    13    1
     5    16    17    1
     6    13    10    1
     7    10     9    2
     8    10    11    1
     9     9     8    1
    10    11    12    2
    11     8     7    2
    12    12     7    1
    13     7     5    1
    14    23    24    2
    15    23    22    1
    16    24    25    1
    17    22    21    2
    18     5     6    1
    19     5     1    1
    20     2     1    1
    21     1     3   am
    22    25    26    2
    23    25    27    1
    24    21    27    1
    25    21    20    1
    26    26    28    1
    27    27    30    2
    28    20    19    2
    29     3    19    1
    30     3     4    2
    31    28    29    2
    32    30    29    1
