@<TRIPOS>MOLECULE
41518_out_ligand_01.pdbqt
 35 37 0 0 0
SMALL
GASTEIGER

@<TRIPOS>ATOM
      1  O         24.9840  -20.9550  -10.3220 O.2     1  UNL1       -0.2730
      2  C         24.8420  -22.1690  -10.4360 C.2     1  UNL1        0.2270
      3  N         23.9630  -22.8920   -9.6470 N.am    1  UNL1       -0.3520
      4  H         23.6370  -23.7660  -10.0650 H       1  UNL1        0.1620
      5  C         25.6340  -22.9980  -11.4330 C.3     1  UNL1        0.1850
      6  S         26.0600  -22.0040  -12.8930 S.3     1  UNL1       -0.0810
      7  C         24.5050  -21.4660  -13.3840 C.ar    1  UNL1        0.1900
      8  N         24.1830  -20.7730  -14.4460 N.ar    1  UNL1       -0.1220
      9  N         22.8150  -20.6340  -14.4380 N.ar    1  UNL1       -0.1300
     10  C         22.3370  -21.2240  -13.3570 C.ar    1  UNL1        0.1510
     11  N         23.3920  -21.7690  -12.6670 N.ar    1  UNL1       -0.3170
     12  H         23.3660  -22.3140  -11.8180 H       1  UNL1        0.1690
     13  C         20.9950  -21.3490  -12.9240 C.2     1  UNL1        0.0530
     14  C         20.6190  -21.6750  -11.6760 C.2     1  UNL1        0.0150
     15  C         19.2080  -21.7790  -11.2730 C.2     1  UNL1       -0.0360
     16  C         18.3630  -20.6760  -11.4690 C.2     1  UNL1        0.0140
     17  C         17.0250  -20.7280  -11.0720 C.2     1  UNL1        0.0430
     18  C         16.5340  -21.8790  -10.4700 C.2     1  UNL1        0.1160
     19  F         15.2510  -21.9290  -10.0880 F       1  UNL1       -0.2060
     20  C         17.3560  -22.9770  -10.2520 C.2     1  UNL1        0.0430
     21  C         18.6950  -22.9270  -10.6490 C.2     1  UNL1        0.0140
     22  C         22.9650  -22.1830   -8.8500 C.3     1  UNL1        0.2250
     23  C         21.7280  -23.0110   -8.4640 C.2     1  UNL1        0.2390
     24  O         21.6140  -24.1780   -8.8300 O.2     1  UNL1       -0.2710
     25  N         20.8590  -22.3360   -7.6290 N.am    1  UNL1       -0.3230
     26  H         21.1180  -21.3730   -7.4280 H       1  UNL1        0.1690
     27  C         19.6460  -22.7860   -7.0770 C.2     1  UNL1        0.0770
     28  C         19.0140  -23.9800   -7.4350 C.2     1  UNL1        0.0360
     29  C         17.8050  -24.3460   -6.8310 C.2     1  UNL1        0.0480
     30  C         17.2290  -23.5190   -5.8710 C.2     1  UNL1        0.1580
     31  F         16.0740  -23.8810   -5.3010 F       1  UNL1       -0.2030
     32  C         17.8460  -22.3310   -5.5080 C.2     1  UNL1        0.1950
     33  F         17.2890  -21.5360   -4.5820 F       1  UNL1       -0.1990
     34  C         19.0450  -21.9690   -6.1080 C.2     1  UNL1        0.1840
     35  F         19.6430  -20.8170   -5.7540 F       1  UNL1       -0.2000
@<TRIPOS>BOND
     1     8     9   ar
     2     8     7   ar
     3     9    10   ar
     4     7     6    1
     5     7    11   ar
     6    10    13    1
     7    10    11   ar
     8    13    14    2
     9     6     5    1
    10    11    12    1
    11    14    15    1
    12    16    15    2
    13    16    17    1
    14     5     2    1
    15    15    21    1
    16    17    18    2
    17    21    20    2
    18    18    20    1
    19    18    19    1
    20     2     1    2
    21     2     3   am
    22     4     3    1
    23     3    22    1
    24    22    23    1
    25    24    23    2
    26    23    25   am
    27    25    26    1
    28    25    27    1
    29    28    27    2
    30    28    29    1
    31    27    34    1
    32    29    30    2
    33    34    35    1
    34    34    32    2
    35    30    32    1
    36    30    31    1
    37    32    33    1
