@<TRIPOS>MOLECULE
41534_out_ligand_01.pdbqt
 34 37 0 0 0
SMALL
GASTEIGER

@<TRIPOS>ATOM
      1  N         18.8320  -23.1690   -6.5070 N.am    1  UNL1       -0.3220
      2  C         19.7660  -22.1620   -6.6740 C.2     1  UNL1        0.2560
      3  O         19.8350  -21.0970   -6.0740 O.2     1  UNL1       -0.2670
      4  H         19.0370  -24.0280   -6.9910 H       1  UNL1        0.1690
      5  C         17.6790  -23.1640   -5.6810 C.2     1  UNL1        0.0430
      6  C         17.7340  -23.6180   -4.3550 C.2     1  UNL1        0.0300
      7  C         16.6150  -23.5710   -3.5180 C.2     1  UNL1        0.0020
      8  C         15.4190  -23.0540   -3.9900 C.2     1  UNL1        0.0010
      9  C         15.3410  -22.5970   -5.3020 C.2     1  UNL1        0.0110
     10  C         16.4500  -22.6620   -6.1770 C.2     1  UNL1       -0.0030
     11  C         16.2620  -22.1200   -7.5880 C.3     1  UNL1        0.3130
     12  N         15.7400  -23.1070   -8.5610 N.3     1  UNL1        0.0930
     13  C         15.8530  -24.4710   -8.0320 C.3     1  UNL1        0.3100
     14  C         16.3470  -22.9270   -9.9000 C.3     1  UNL1        0.2230
     15  C         17.8840  -23.0910   -9.8180 C.3     1  UNL1        0.0360
     16  C         18.5510  -22.6240  -11.1070 C.3     1  UNL1        0.0020
     17  C         18.3100  -21.1370  -11.3640 C.3     1  UNL1        0.0000
     18  C         17.0280  -20.6020  -10.7250 C.3     1  UNL1        0.0020
     19  C         15.9300  -21.6580  -10.6810 C.3     1  UNL1        0.0360
     20  C         20.8190  -22.4670   -7.6830 C.2     1  UNL1        0.0320
     21  C         20.7450  -23.6670   -8.3950 C.2     1  UNL1        0.0190
     22  C         21.7150  -23.9810   -9.3550 C.2     1  UNL1        0.0300
     23  C         22.7760  -23.1080   -9.6050 C.2     1  UNL1        0.0350
     24  C         22.8580  -21.9180   -8.8670 C.2     1  UNL1        0.0300
     25  C         21.8880  -21.5960   -7.9100 C.2     1  UNL1        0.0190
     26  N         23.7960  -23.3410  -10.5530 N.am    1  UNL1       -0.3230
     27  C         23.8590  -22.8980  -11.8680 C.2     1  UNL1        0.2630
     28  O         22.9910  -22.2010  -12.3890 O.2     1  UNL1       -0.2670
     29  H         24.5730  -23.8890  -10.2220 H       1  UNL1        0.1690
     30  C         25.0630  -23.3260  -12.5930 C.2     1  UNL1        0.0720
     31  C         26.1550  -24.0810  -12.1890 C.2     1  UNL1        0.0250
     32  C         27.1210  -24.2610  -13.2250 C.2     1  UNL1        0.0090
     33  C         26.7430  -23.6440  -14.3930 C.2     1  UNL1        0.0500
     34  S         25.2380  -22.8560  -14.2410 S.3     1  UNL1       -0.0970
@<TRIPOS>BOND
     1    33    34    1
     2    33    32    2
     3    34    30    1
     4    32    31    1
     5    30    31    2
     6    30    27    1
     7    28    27    2
     8    27    26   am
     9    17    16    1
    10    17    18    1
    11    16    15    1
    12    18    19    1
    13    19    14    1
    14    26    29    1
    15    26    23    1
    16    14    15    1
    17    14    12    1
    18    23    22    2
    19    23    24    1
    20    22    21    1
    21    24    25    2
    22    12    13    1
    23    12    11    1
    24    21    20    2
    25    25    20    1
    26    20     2    1
    27    11    10    1
    28     4     1    1
    29     2     1   am
    30     2     3    2
    31     1     5    1
    32    10     5    2
    33    10     9    1
    34     5     6    1
    35     9     8    2
    36     6     7    2
    37     8     7    1
