@<TRIPOS>MOLECULE
41554_out_ligand_01.pdbqt
 30 33 0 0 0
SMALL
GASTEIGER

@<TRIPOS>ATOM
      1  C         24.7730  -22.0490  -13.5490 C.ar    1  UNL1        0.1900
      2  N         24.6160  -21.1130  -14.4470 N.ar    1  UNL1       -0.1220
      3  N         23.2990  -20.7070  -14.3750 N.ar    1  UNL1       -0.1300
      4  C         22.6960  -21.3950  -13.4230 C.ar    1  UNL1        0.1510
      5  N         23.6150  -22.2530  -12.8690 N.ar    1  UNL1       -0.3170
      6  H         23.4600  -22.9370  -12.1490 H       1  UNL1        0.1690
      7  S         26.2120  -22.9230  -13.2210 S.3     1  UNL1       -0.0810
      8  C         26.3880  -22.6770  -11.4350 C.3     1  UNL1        0.1850
      9  C         25.1690  -22.1800  -10.6660 C.2     1  UNL1        0.2310
     10  O         24.9660  -20.9620  -10.6430 O.2     1  UNL1       -0.2720
     11  N         24.3670  -23.1310  -10.0750 N.am    1  UNL1       -0.3270
     12  H         24.5440  -24.0980  -10.3340 H       1  UNL1        0.1690
     13  C         23.2080  -22.9240   -9.2950 C.2     1  UNL1        0.0350
     14  C         22.9430  -21.7410   -8.5810 C.2     1  UNL1        0.0300
     15  C         21.7740  -21.5950   -7.8220 C.2     1  UNL1        0.0100
     16  C         20.8720  -22.6420   -7.7920 C.2     1  UNL1       -0.0520
     17  C         21.1390  -23.8360   -8.4720 C.2     1  UNL1       -0.0500
     18  C         19.5800  -22.7350   -7.0410 C.3     1  UNL1        0.0390
     19  C         22.2960  -23.9910   -9.2230 C.2     1  UNL1        0.0370
     20  C         20.0510  -24.8360   -8.2360 C.3     1  UNL1        0.0390
     21  C         18.9150  -23.9200   -7.7590 C.3     1  UNL1        0.0090
     22  C         21.3430  -21.3600  -13.0020 C.2     1  UNL1        0.0530
     23  C         20.9200  -21.7520  -11.7880 C.2     1  UNL1        0.0150
     24  C         19.5060  -21.7130  -11.3790 C.2     1  UNL1       -0.0360
     25  C         18.7280  -20.5520  -11.5110 C.2     1  UNL1        0.0140
     26  C         17.3770  -20.5630  -11.1570 C.2     1  UNL1        0.0430
     27  C         16.8010  -21.7340  -10.6800 C.2     1  UNL1        0.1160
     28  F         15.5120  -21.7370  -10.3210 F       1  UNL1       -0.2060
     29  C         17.5500  -22.8970  -10.5530 C.2     1  UNL1        0.0430
     30  C         18.9020  -22.8880  -10.9100 C.2     1  UNL1        0.0140
@<TRIPOS>BOND
     1     2     3   ar
     2     2     1   ar
     3     3     4   ar
     4     1     7    1
     5     1     5   ar
     6     4    22    1
     7     4     5   ar
     8     7     8    1
     9    22    23    2
    10     5     6    1
    11    23    24    1
    12    25    24    2
    13    25    26    1
    14     8     9    1
    15    24    30    1
    16    26    27    2
    17    30    29    2
    18    27    29    1
    19    27    28    1
    20     9    10    2
    21     9    11   am
    22    12    11    1
    23    11    13    1
    24    13    19    2
    25    13    14    1
    26    19    17    1
    27    14    15    2
    28    17    20    1
    29    17    16    2
    30    20    21    1
    31    15    16    1
    32    16    18    1
    33    21    18    1
