@<TRIPOS>MOLECULE
41575_out_ligand_01.pdbqt
 33 36 0 0 0
SMALL
GASTEIGER

@<TRIPOS>ATOM
      1  C         17.4210  -22.4690   -9.4720 C.2     1  UNL1        0.0770
      2  C         16.6940  -21.6750  -10.3600 C.2     1  UNL1        0.0250
      3  C         17.3590  -21.0620  -11.4180 C.2     1  UNL1        0.0040
      4  C         18.7360  -21.2490  -11.5880 C.2     1  UNL1        0.0290
      5  C         19.4650  -22.0520  -10.7050 C.2     1  UNL1        0.0360
      6  C         18.7950  -22.6720   -9.6460 C.2     1  UNL1        0.0540
      7  N         20.8500  -22.2950  -10.8190 N.am    1  UNL1       -0.3230
      8  C         21.7000  -21.8450  -11.8130 C.2     1  UNL1        0.2560
      9  O         21.4170  -21.0830  -12.7310 O.2     1  UNL1       -0.2670
     10  H         21.2670  -22.8060  -10.0510 H       1  UNL1        0.1690
     11  C         23.1110  -22.3150  -11.7020 C.2     1  UNL1        0.0340
     12  C         23.8980  -21.8030  -10.6570 C.2     1  UNL1        0.0190
     13  C         25.2340  -22.1890  -10.4830 C.2     1  UNL1        0.0340
     14  C         25.7330  -23.1010  -11.4130 C.ar    1  UNL1        0.0760
     15  N         26.9520  -23.6950  -11.5810 N.ar    1  UNL1       -0.2800
     16  C         24.9880  -23.6130  -12.4660 C.ar    1  UNL1        0.1030
     17  N         26.9660  -24.5180  -12.6420 N.ar    1  UNL1        0.0030
     18  H         27.7970  -23.5940  -11.0310 H       1  UNL1        0.1840
     19  N         25.7620  -24.4700  -13.1990 N.ar    1  UNL1       -0.1580
     20  C         23.6530  -23.2190  -12.6320 C.2     1  UNL1        0.0520
     21  S         16.5800  -23.2530   -8.1200 S.O2    1  UNL1        0.2460
     22  O         15.9510  -24.4610   -8.6120 O.2     1  UNL1       -0.2060
     23  O         15.8060  -22.2280   -7.4530 O.2     1  UNL1       -0.2060
     24  N         17.8600  -23.6440   -7.0780 N.pl3   1  UNL1       -0.1790
     25  H         18.7010  -23.7700   -7.6480 H       1  UNL1        0.1460
     26  C         18.0620  -22.7660   -5.9650 C.2     1  UNL1        0.0560
     27  C         18.8810  -21.6460   -6.1060 C.2     1  UNL1        0.0270
     28  C         19.1300  -20.8300   -5.0050 C.2     1  UNL1        0.0020
     29  C         18.5650  -21.1380   -3.7660 C.2     1  UNL1        0.0030
     30  C         17.7500  -22.2650   -3.6220 C.2     1  UNL1        0.0380
     31  C         17.5040  -23.0930   -4.7180 C.2     1  UNL1        0.0900
     32  O         16.7030  -24.2080   -4.6880 O.2     1  UNL1       -0.3540
     33  C         15.3380  -23.9690   -4.3590 C.3     1  UNL1        0.2100
@<TRIPOS>BOND
     1    19    17   ar
     2    19    16   ar
     3     9     8    2
     4    17    15   ar
     5    20    16    1
     6    20    11    2
     7    16    14   ar
     8     8    11    1
     9     8     7   am
    10    11    12    1
    11     4     3    2
    12     4     5    1
    13    15    14   ar
    14    15    18    1
    15     3     2    1
    16    14    13    1
    17     7     5    1
    18     7    10    1
    19     5     6    2
    20    12    13    2
    21     2     1    2
    22     6     1    1
    23     1    21    1
    24    22    21    2
    25    21    23    2
    26    21    24    1
    27    25    24    1
    28    24    26    1
    29    27    26    2
    30    27    28    1
    31    26    31    1
    32    28    29    2
    33    31    32    1
    34    31    30    2
    35    32    33    1
    36    29    30    1
