@<TRIPOS>MOLECULE
41588_out_ligand_01.pdbqt
 29 32 0 0 0
SMALL
GASTEIGER

@<TRIPOS>ATOM
      1  C         17.9170  -21.9670   -9.4690 C.2     1  UNL1        0.0350
      2  C         17.1320  -21.5570  -10.5470 C.2     1  UNL1        0.0290
      3  C         17.7020  -21.3620  -11.8090 C.2     1  UNL1        0.0030
      4  C         19.0640  -21.5860  -12.0100 C.2     1  UNL1        0.0150
      5  C         19.8580  -22.0130  -10.9430 C.2     1  UNL1        0.0120
      6  C         19.2830  -22.1890   -9.6750 C.2     1  UNL1        0.0440
      7  C         21.3150  -22.2670  -11.1020 C.ar    1  UNL1        0.1410
      8  N         21.9350  -21.9060  -12.1820 N.ar    1  UNL1       -0.2300
      9  C         23.3110  -22.1700  -12.2830 C.ar    1  UNL1        0.0740
     10  C         23.9820  -21.8070  -13.4530 C.2     1  UNL1        0.0320
     11  C         24.0380  -22.7820  -11.2610 C.ar    1  UNL1        0.0610
     12  C         25.3530  -22.0520  -13.5920 C.2     1  UNL1        0.0020
     13  C         26.0650  -22.6630  -12.5600 C.2     1  UNL1        0.0010
     14  C         25.4080  -23.0310  -11.3860 C.2     1  UNL1        0.0190
     15  C         23.3060  -23.1510  -10.0400 C.ar    1  UNL1        0.2590
     16  O         23.8580  -23.6590   -9.0720 O.2     1  UNL1       -0.2670
     17  N         21.9610  -22.8790  -10.0510 N.ar    1  UNL1       -0.3070
     18  H         21.4830  -23.0910   -9.1890 H       1  UNL1        0.1700
     19  N         17.4230  -22.1760   -8.1630 N.am    1  UNL1       -0.3230
     20  C         16.4740  -23.0940   -7.7510 C.2     1  UNL1        0.2590
     21  O         15.9000  -23.9010   -8.4770 O.2     1  UNL1       -0.2670
     22  H         17.8160  -21.5710   -7.4500 H       1  UNL1        0.1690
     23  C         16.1290  -23.0940   -6.2950 C.2     1  UNL1        0.0700
     24  C         15.0110  -22.3560   -5.8740 C.2     1  UNL1        0.0200
     25  C         14.6440  -22.3210   -4.5250 C.2     1  UNL1        0.0010
     26  C         15.3900  -23.0230   -3.5810 C.2     1  UNL1        0.0030
     27  C         16.5020  -23.7600   -3.9850 C.2     1  UNL1        0.0430
     28  C         16.8620  -23.7910   -5.3330 C.2     1  UNL1        0.1320
     29  F         17.9400  -24.5140   -5.6740 F       1  UNL1       -0.2050
@<TRIPOS>BOND
     1    12    10    1
     2    12    13    2
     3    10     9    2
     4    13    14    1
     5     9     8   ar
     6     9    11   ar
     7     8     7   ar
     8     4     3    2
     9     4     5    1
    10     3     2    1
    11    14    11    2
    12    11    15   ar
    13     7     5    1
    14     7    17   ar
    15     5     6    2
    16     2     1    2
    17    17    15   ar
    18    17    18    1
    19    15    16    2
    20     6     1    1
    21     1    19    1
    22    21    20    2
    23    19    20   am
    24    19    22    1
    25    20    23    1
    26    23    24    2
    27    23    28    1
    28    24    25    1
    29    29    28    1
    30    28    27    2
    31    25    26    2
    32    27    26    1
