@<TRIPOS>MOLECULE
41592_out_ligand_01.pdbqt
 26 29 0 0 0
SMALL
GASTEIGER

@<TRIPOS>ATOM
      1  C         19.7080  -22.8460   -8.5210 C.ar    1  UNL1        0.1420
      2  N         19.4190  -22.1570   -9.5860 N.ar    1  UNL1       -0.2220
      3  C         20.4180  -22.0680  -10.5030 C.ar    1  UNL1        0.1160
      4  S         20.2230  -21.1790  -11.9690 S.2     1  UNL1       -0.0730
      5  C         21.7800  -21.5730  -12.4400 C.ar    1  UNL1       -0.0080
      6  C         22.4570  -22.3530  -11.5440 C.ar    1  UNL1       -0.0260
      7  C         21.6740  -22.6490  -10.4120 C.ar    1  UNL1        0.0750
      8  C         21.9680  -23.4290   -9.2370 C.ar    1  UNL1        0.2600
      9  O         23.0240  -24.0210   -9.0430 O.2     1  UNL1       -0.2670
     10  N         20.9330  -23.4690   -8.3280 N.ar    1  UNL1       -0.3070
     11  C         23.8230  -22.6680  -12.0270 C.3     1  UNL1        0.0410
     12  C         23.9930  -21.6620  -13.2110 C.3     1  UNL1        0.0100
     13  C         22.5580  -21.2340  -13.6530 C.3     1  UNL1        0.0470
     14  H         21.1140  -24.0510   -7.5250 H       1  UNL1        0.1700
     15  C         18.6920  -23.0170   -7.4440 C.2     1  UNL1        0.0100
     16  C         18.6090  -22.1360   -6.3550 C.2     1  UNL1        0.0170
     17  C         17.6380  -22.3300   -5.3660 C.2     1  UNL1        0.0260
     18  C         16.7500  -23.4040   -5.4700 C.2     1  UNL1        0.0740
     19  C         16.8060  -24.2730   -6.5630 C.2     1  UNL1        0.0260
     20  C         17.7770  -24.0760   -7.5470 C.2     1  UNL1        0.0170
     21  S         15.5020  -23.6490   -4.2330 S.O2    1  UNL1        0.2390
     22  O         14.2730  -24.0270   -4.8930 O.2     1  UNL1       -0.2060
     23  O         16.0770  -24.4150   -3.1530 O.2     1  UNL1       -0.2060
     24  N         15.2530  -22.0770   -3.6860 N.3     1  UNL1       -0.2250
     25  H         14.6150  -21.5350   -4.2670 H       1  UNL1        0.1360
     26  H         14.9560  -22.1070   -2.7090 H       1  UNL1        0.1360
@<TRIPOS>BOND
     1    13    12    1
     2    13     5    1
     3    12    11    1
     4     5     4   ar
     5     5     6   ar
     6    11     6    1
     7     4     3   ar
     8     6     7   ar
     9     3     7   ar
    10     3     2   ar
    11     7     8   ar
    12     2     1   ar
    13     8     9    2
    14     8    10   ar
    15     1    10   ar
    16     1    15    1
    17    10    14    1
    18    20    15    2
    19    20    19    1
    20    15    16    1
    21    19    18    2
    22    16    17    2
    23    18    17    1
    24    18    21    1
    25    22    21    2
    26    25    24    1
    27    21    24    1
    28    21    23    2
    29    24    26    1
