@<TRIPOS>MOLECULE
41598_out_ligand_01.pdbqt
 37 40 0 0 0
SMALL
GASTEIGER

@<TRIPOS>ATOM
      1  C         19.2100  -22.9590  -10.1480 C.2     1  UNL1        0.0340
      2  C         19.4120  -22.0810  -11.2160 C.2     1  UNL1        0.0310
      3  C         20.7070  -21.7900  -11.6630 C.2     1  UNL1        0.0270
      4  C         21.8060  -22.3920  -11.0500 C.2     1  UNL1        0.0750
      5  C         21.6170  -23.2820   -9.9920 C.2     1  UNL1        0.0270
      6  C         20.3230  -23.5520   -9.5390 C.2     1  UNL1        0.0310
      7  N         17.9440  -23.2830   -9.6220 N.am    1  UNL1       -0.3270
      8  C         16.7790  -22.5390   -9.6940 C.2     1  UNL1        0.2220
      9  O         16.6160  -21.4860  -10.3030 O.2     1  UNL1       -0.2730
     10  H         17.9070  -24.1270   -9.0660 H       1  UNL1        0.1690
     11  C         15.6370  -23.1550   -8.9060 C.3     1  UNL1        0.1080
     12  C         16.1640  -24.1480   -7.8770 C.3     1  UNL1        0.0500
     13  C         16.2380  -23.5740   -6.4960 C.2     1  UNL1       -0.0300
     14  C         15.3310  -23.7940   -5.4780 C.2     1  UNL1        0.0960
     15  N         15.7360  -23.0930   -4.3780 N.pl3   1  UNL1       -0.3650
     16  C         16.8970  -22.4020   -4.6550 C.2     1  UNL1        0.0420
     17  H         15.2580  -23.0760   -3.4890 H       1  UNL1        0.1650
     18  C         17.6640  -21.5530   -3.8370 C.2     1  UNL1        0.0300
     19  C         17.2410  -22.6930   -5.9760 C.2     1  UNL1       -0.0020
     20  C         18.8190  -20.9950   -4.3880 C.2     1  UNL1        0.0020
     21  C         19.1890  -21.2690   -5.7040 C.2     1  UNL1        0.0010
     22  C         18.4100  -22.1120   -6.5080 C.2     1  UNL1        0.0140
     23  S         23.4470  -22.0330  -11.6330 S.O2    1  UNL1        0.2480
     24  O         24.0250  -23.2930  -12.0560 O.2     1  UNL1       -0.2050
     25  O         24.1010  -21.2150  -10.6400 O.2     1  UNL1       -0.2050
     26  N         23.1720  -21.2030  -13.0630 N.pl3   1  UNL1       -0.1480
     27  H         22.3240  -21.5630  -13.4900 H       1  UNL1        0.1490
     28  C         24.2220  -21.2640  -13.9710 C.cat   1  UNL1        0.2150
     29  N         25.3550  -20.7050  -13.5420 N.2     1  UNL1       -0.2300
     30  C         26.3930  -20.7800  -14.3960 C.2     1  UNL1        0.1220
     31  C         26.3260  -21.4110  -15.6190 C.2     1  UNL1        0.0560
     32  C         25.1110  -21.9990  -15.9440 C.2     1  UNL1        0.1450
     33  N         24.0440  -21.9440  -15.1030 N.2     1  UNL1       -0.2130
     34  C         24.9550  -22.7020  -17.2810 C.3     1  UNL1        0.4340
     35  F         26.1440  -22.8630  -17.9300 F       1  UNL1       -0.1650
     36  F         24.4350  -23.9600  -17.1480 F       1  UNL1       -0.1650
     37  F         24.1360  -22.0540  -18.1530 F       1  UNL1       -0.1650
@<TRIPOS>BOND
     1    37    34    1
     2    35    34    1
     3    34    36    1
     4    34    32    1
     5    32    31    1
     6    32    33    2
     7    31    30    2
     8    33    28    1
     9    30    29    1
    10    28    29    2
    11    28    26    1
    12    27    26    1
    13    26    23    1
    14    24    23    2
    15     3     2    1
    16     3     4    2
    17    23     4    1
    18    23    25    2
    19     2     1    2
    20     4     5    1
    21     9     8    2
    22     1     7    1
    23     1     6    1
    24     5     6    2
    25     8     7   am
    26     8    11    1
    27     7    10    1
    28    11    12    1
    29    12    13    1
    30    22    19    1
    31    22    21    2
    32    13    19    1
    33    13    14    2
    34    19    16    2
    35    21    20    1
    36    14    15    1
    37    16    15    1
    38    16    18    1
    39    20    18    2
    40    15    17    1
