@<TRIPOS>MOLECULE
41608_out_ligand_01.pdbqt
 30 32 0 0 0
SMALL
GASTEIGER

@<TRIPOS>ATOM
      1  C         21.1950  -22.3330  -10.6390 C.2     1  UNL1        0.2560
      2  O         21.5490  -22.5150   -9.4820 O.2     1  UNL1       -0.2670
      3  N         19.8950  -22.2430  -11.1070 N.am    1  UNL1       -0.3230
      4  H         19.7700  -21.9430  -12.0640 H       1  UNL1        0.1690
      5  C         18.7070  -22.4310  -10.3690 C.2     1  UNL1        0.0350
      6  C         17.5880  -21.6830  -10.7630 C.2     1  UNL1        0.0290
      7  C         16.3710  -21.8160  -10.0930 C.2     1  UNL1        0.0030
      8  C         16.2600  -22.7000   -9.0220 C.2     1  UNL1        0.0110
      9  C         17.3670  -23.4490   -8.6110 C.2     1  UNL1       -0.0340
     10  C         18.5840  -23.3180   -9.2960 C.2     1  UNL1        0.0410
     11  C         17.2660  -24.4050   -7.5020 C.2     1  UNL1        0.0140
     12  C         17.4990  -24.1640   -6.2000 C.2     1  UNL1        0.0320
     13  C         17.9590  -22.9220   -5.5710 C.2     1  UNL1        0.0560
     14  C         18.8180  -22.0310   -6.2070 C.2     1  UNL1        0.0310
     15  C         19.2380  -20.8960   -5.5180 C.2     1  UNL1        0.0040
     16  C         18.8030  -20.6920   -4.2150 C.2     1  UNL1        0.0190
     17  C         17.9680  -21.6410   -3.6510 C.2     1  UNL1        0.1170
     18  N         17.5440  -22.7510   -4.2930 N.2     1  UNL1       -0.2610
     19  C         22.2500  -22.1340  -11.6730 C.2     1  UNL1        0.0330
     20  C         21.9830  -21.4710  -12.8820 C.2     1  UNL1        0.0170
     21  C         22.9960  -21.3030  -13.8310 C.2     1  UNL1        0.0030
     22  C         24.2750  -21.7990  -13.5800 C.2     1  UNL1        0.0250
     23  C         24.5360  -22.4670  -12.3790 C.2     1  UNL1        0.0800
     24  C         23.5270  -22.6540  -11.4310 C.2     1  UNL1        0.0420
     25  S         26.1550  -23.1340  -12.0870 S.O2    1  UNL1        0.2580
     26  O         26.2250  -24.4660  -12.6410 O.2     1  UNL1       -0.2010
     27  O         27.1200  -22.1110  -12.4310 O.2     1  UNL1       -0.2010
     28  N         26.1810  -23.2510  -10.4110 N.3     1  UNL1       -0.3200
     29  C         26.9110  -24.3590   -9.8060 C.3     1  UNL1        0.1590
     30  H         26.2410  -22.3360   -9.9640 H       1  UNL1        0.1710
@<TRIPOS>BOND
     1    21    22    2
     2    21    20    1
     3    22    23    1
     4    20    19    2
     5    26    25    2
     6    27    25    2
     7    23    25    1
     8    23    24    2
     9    25    28    1
    10     4     3    1
    11    19    24    1
    12    19     1    1
    13     3     1   am
    14     3     5    1
    15     6     5    2
    16     6     7    1
    17     1     2    2
    18    28    30    1
    19    28    29    1
    20     5    10    1
    21     7     8    2
    22    10     9    2
    23     8     9    1
    24     9    11    1
    25    11    12    2
    26    14    13    2
    27    14    15    1
    28    12    13    1
    29    13    18    1
    30    15    16    2
    31    18    17    2
    32    16    17    1
