@<TRIPOS>MOLECULE
4164_out_ligand_01.pdbqt
 28 30 0 0 0
SMALL
GASTEIGER

@<TRIPOS>ATOM
      1  N         20.8740  -22.8830  -10.1550 N.ar    1  UNL1       -0.2900
      2  C         20.0090  -22.1560  -10.9710 C.ar    1  UNL1        0.1810
      3  S         18.3700  -21.8900  -10.7220 S.2     1  UNL1       -0.0400
      4  N         20.5450  -21.5950  -12.0980 N.ar    1  UNL1       -0.3320
      5  C         21.8840  -21.6980  -12.4620 C.ar    1  UNL1        0.0500
      6  C         22.3340  -21.0990  -13.6400 C.2     1  UNL1        0.0340
      7  C         23.6820  -21.2050  -13.9910 C.2     1  UNL1        0.0440
      8  C         24.5580  -21.9040  -13.1650 C.2     1  UNL1        0.1170
      9  F         25.8490  -22.0010  -13.5090 F       1  UNL1       -0.2060
     10  C         24.1160  -22.5010  -11.9910 C.2     1  UNL1        0.0610
     11  C         22.7670  -22.3940  -11.6440 C.ar    1  UNL1        0.0620
     12  C         22.2490  -23.0050  -10.4080 C.ar    1  UNL1        0.2620
     13  O         23.0380  -23.5750   -9.6560 O.2     1  UNL1       -0.2670
     14  H         19.9030  -21.0770  -12.6890 H       1  UNL1        0.1680
     15  C         20.4140  -23.5200   -8.9110 C.3     1  UNL1        0.1390
     16  C         20.2980  -22.5100   -7.7630 C.3     1  UNL1        0.0590
     17  C         19.1000  -22.7920   -6.8910 C.2     1  UNL1       -0.0570
     18  C         18.3430  -23.9580   -7.0870 C.2     1  UNL1        0.0090
     19  C         17.2260  -24.2180   -6.2920 C.2     1  UNL1        0.0250
     20  C         16.8570  -23.3000   -5.3060 C.2     1  UNL1        0.0740
     21  C         17.6020  -22.1370   -5.0960 C.2     1  UNL1        0.0250
     22  C         18.7190  -21.8830   -5.8930 C.2     1  UNL1        0.0090
     23  S         15.4430  -23.6200   -4.2860 S.O2    1  UNL1        0.2390
     24  O         15.8630  -24.4090   -3.1530 O.2     1  UNL1       -0.2060
     25  O         14.3380  -24.0030   -5.1360 O.2     1  UNL1       -0.2060
     26  N         15.0720  -22.0730   -3.7340 N.3     1  UNL1       -0.2250
     27  H         14.4150  -22.0730   -2.9550 H       1  UNL1        0.1360
     28  H         15.9420  -21.5920   -3.4990 H       1  UNL1        0.1360
@<TRIPOS>BOND
     1     7     6    1
     2     7     8    2
     3     6     5    2
     4     9     8    1
     5     8    10    1
     6    14     4    1
     7     5     4   ar
     8     5    11   ar
     9     4     2   ar
    10    10    11    2
    11    11    12   ar
    12     2     3    2
    13     2     1   ar
    14    12     1   ar
    15    12    13    2
    16     1    15    1
    17    15    16    1
    18    16    17    1
    19    18    17    2
    20    18    19    1
    21    17    22    1
    22    19    20    2
    23    22    21    2
    24    20    21    1
    25    20    23    1
    26    25    23    2
    27    23    26    1
    28    23    24    2
    29    26    28    1
    30    26    27    1
