@<TRIPOS>MOLECULE
41687_out_ligand_01.pdbqt
 33 35 0 0 0
SMALL
GASTEIGER

@<TRIPOS>ATOM
      1  C         20.4220  -22.4630   -7.4170 C.2     1  UNL1        0.0720
      2  C         19.2330  -23.1910   -7.2520 C.2     1  UNL1        0.0450
      3  C         18.2980  -22.7960   -6.2870 C.2     1  UNL1        0.0800
      4  C         18.5190  -21.6620   -5.5010 C.2     1  UNL1        0.0280
      5  C         19.6940  -20.9310   -5.6700 C.2     1  UNL1        0.0450
      6  C         20.6340  -21.3340   -6.6190 C.2     1  UNL1        0.1320
      7  F         21.7530  -20.6030   -6.7440 F       1  UNL1       -0.2050
      8  S         16.7840  -23.7120   -6.1000 S.O2    1  UNL1        0.2580
      9  O         17.0570  -25.0840   -6.4650 O.2     1  UNL1       -0.2010
     10  O         16.2060  -23.3600   -4.8240 O.2     1  UNL1       -0.2010
     11  N         15.8240  -23.0800   -7.3150 N.3     1  UNL1       -0.3150
     12  H         14.9370  -22.6930   -6.9950 H       1  UNL1        0.1720
     13  C         15.8970  -23.6220   -8.6770 C.3     1  UNL1        0.1370
     14  C         15.7160  -22.5020   -9.7070 C.3     1  UNL1        0.0580
     15  C         17.0070  -22.1160  -10.3940 C.2     1  UNL1       -0.0570
     16  C         17.1250  -20.8730  -11.0340 C.2     1  UNL1        0.0090
     17  C         18.3080  -20.5240  -11.6870 C.2     1  UNL1        0.0240
     18  C         19.3800  -21.4130  -11.7010 C.2     1  UNL1        0.0340
     19 CL         20.8380  -20.9840  -12.5080 Cl      1  UNL1       -0.0840
     20  C         19.2780  -22.6490  -11.0680 C.2     1  UNL1        0.0240
     21  C         18.0940  -23.0000  -10.4150 C.2     1  UNL1        0.0090
     22  C         21.4120  -22.9450   -8.4280 C.2     1  UNL1        0.2590
     23  O         21.5510  -24.1570   -8.5530 O.2     1  UNL1       -0.2670
     24  N         22.0980  -21.9750   -9.1370 N.am    1  UNL1       -0.3230
     25  H         21.8960  -21.0080   -8.9060 H       1  UNL1        0.1690
     26  C         23.0700  -22.1690  -10.1430 C.2     1  UNL1        0.0360
     27  C         23.0060  -23.1720  -11.1120 C.2     1  UNL1        0.0310
     28  C         24.0120  -23.2950  -12.0760 C.2     1  UNL1        0.0280
     29  C         25.0950  -22.4160  -12.0840 C.2     1  UNL1        0.0550
     30 CL         26.3010  -22.6260  -13.3020 Cl      1  UNL1       -0.0830
     31  C         25.1670  -21.4070  -11.1190 C.2     1  UNL1        0.0580
     32 CL         26.4730  -20.2770  -11.0570 Cl      1  UNL1       -0.0820
     33  C         24.1580  -21.2880  -10.1550 C.2     1  UNL1        0.0550
@<TRIPOS>BOND
     1    30    29    1
     2    19    18    1
     3    29    28    2
     4    29    31    1
     5    28    27    1
     6    18    17    2
     7    18    20    1
     8    17    16    1
     9    31    32    1
    10    31    33    2
    11    27    26    2
    12    20    21    2
    13    16    15    2
    14    21    15    1
    15    15    14    1
    16    33    26    1
    17    26    24    1
    18    14    13    1
    19    24    25    1
    20    24    22   am
    21    13    11    1
    22    23    22    2
    23    22     1    1
    24     1     2    2
    25     1     6    1
    26    11    12    1
    27    11     8    1
    28     2     3    1
    29     7     6    1
    30     6     5    2
    31     9     8    2
    32     3     8    1
    33     3     4    2
    34     8    10    2
    35     5     4    1
