@<TRIPOS>MOLECULE
41684_out_ligand_01.pdbqt
 39 43 0 0 0
SMALL
GASTEIGER

@<TRIPOS>ATOM
      1  C         18.2170  -22.5540   -9.8130 C.2     1  UNL1        0.0980
      2  C         17.9410  -21.7330  -10.8400 C.2     1  UNL1        0.1090
      3  N         18.8630  -21.2020  -11.7070 N.pl3   1  UNL1       -0.3640
      4  C         20.2070  -21.5850  -11.6390 C.2     1  UNL1        0.0460
      5  C         21.1440  -21.0920  -12.5530 C.2     1  UNL1        0.0320
      6  C         22.4920  -21.4450  -12.4450 C.2     1  UNL1        0.0270
      7  C         22.9070  -22.2820  -11.4030 C.2     1  UNL1        0.0810
      8  C         21.9890  -22.7850  -10.4790 C.2     1  UNL1        0.0430
      9  C         20.6430  -22.4200  -10.5950 C.2     1  UNL1        0.0430
     10  C         19.6490  -22.9150   -9.6080 C.2     1  UNL1        0.2010
     11  O         20.0150  -23.5970   -8.6530 O.2     1  UNL1       -0.2860
     12  H         18.5220  -20.7490  -12.5470 H       1  UNL1        0.1650
     13  S         24.6190  -22.7450  -11.2610 S.O2    1  UNL1        0.2630
     14  O         24.8310  -23.2760   -9.9320 O.2     1  UNL1       -0.2000
     15  O         25.4050  -21.6350  -11.7600 O.2     1  UNL1       -0.2000
     16  N         24.7670  -23.9810  -12.3980 N.pl3   1  UNL1       -0.2810
     17  H         24.9930  -24.8770  -11.9680 H       1  UNL1        0.1790
     18  C         25.2900  -23.7000  -13.6900 C.2     1  UNL1        0.0450
     19  C         26.5710  -24.1600  -14.0090 C.2     1  UNL1        0.0330
     20  C         27.1200  -23.8850  -15.2630 C.2     1  UNL1        0.0420
     21  C         26.3880  -23.1560  -16.1960 C.2     1  UNL1        0.1020
     22  C         25.0930  -22.7240  -15.8870 C.2     1  UNL1        0.1040
     23  O         26.9950  -22.9110  -17.4010 O.2     1  UNL1       -0.3460
     24  C         24.5500  -22.9810  -14.6290 C.2     1  UNL1        0.0690
     25  O         24.3030  -22.0350  -16.7710 O.2     1  UNL1       -0.3460
     26  C         24.7950  -22.1580  -18.1110 C.3     1  UNL1        0.2020
     27  C         26.2940  -21.9120  -18.1510 C.3     1  UNL1        0.2020
     28  C         17.0900  -23.0380   -8.9660 C.2     1  UNL1        0.2570
     29  N         17.4020  -24.0520   -8.1000 N.am    1  UNL1       -0.3480
     30  H         18.3710  -24.3660   -8.0430 H       1  UNL1        0.1630
     31  O         15.9650  -22.5540   -9.0540 O.2     1  UNL1       -0.2670
     32  C         16.4450  -24.6060   -7.1610 C.3     1  UNL1        0.1140
     33  C         15.0660  -24.7660   -7.8100 C.3     1  UNL1        0.0370
     34  C         16.4080  -23.7530   -5.9050 C.2     1  UNL1       -0.0360
     35  C         17.5660  -23.4720   -5.1630 C.2     1  UNL1        0.0090
     36  C         17.5010  -22.6990   -4.0010 C.2     1  UNL1        0.0010
     37  C         16.2760  -22.2050   -3.5600 C.2     1  UNL1        0.0000
     38  C         15.1150  -22.4870   -4.2760 C.2     1  UNL1        0.0010
     39  C         15.1800  -23.2580   -5.4380 C.2     1  UNL1        0.0090
@<TRIPOS>BOND
     1    27    26    1
     2    27    23    1
     3    26    25    1
     4    23    21    1
     5    25    22    1
     6    21    22    2
     7    21    20    1
     8    22    24    1
     9    20    19    2
    10    24    18    2
    11    19    18    1
    12    18    16    1
    13     5     6    1
    14     5     4    2
    15    12     3    1
    16     6     7    2
    17    16    17    1
    18    16    13    1
    19    15    13    2
    20     3     4    1
    21     3     2    1
    22     4     9    1
    23     7    13    1
    24     7     8    1
    25    13    14    2
    26     2     1    2
    27     9     8    2
    28     9    10    1
    29     1    10    1
    30     1    28    1
    31    10    11    2
    32    31    28    2
    33    28    29   am
    34    29    30    1
    35    29    32    1
    36    33    32    1
    37    32    34    1
    38    34    39    2
    39    34    35    1
    40    39    38    1
    41    35    36    2
    42    38    37    2
    43    36    37    1
