@<TRIPOS>MOLECULE
41695_out_ligand_01.pdbqt
 34 37 0 0 0
SMALL
GASTEIGER

@<TRIPOS>ATOM
      1  C         19.5230  -23.2880  -10.0570 C.3     1  UNL1        0.1290
      2  C         18.5230  -22.7140  -11.0620 C.3     1  UNL1        0.1220
      3  C         18.9440  -21.3870  -11.6550 C.2     1  UNL1        0.2240
      4  O         18.1360  -20.6050  -12.1460 O.2     1  UNL1       -0.2730
      5  N         20.2820  -21.1110  -11.6720 N.am    1  UNL1       -0.3110
      6  C         21.2670  -21.8670  -11.1160 C.ar    1  UNL1        0.1450
      7  N         22.5350  -21.4350  -11.3690 N.ar    1  UNL1       -0.2060
      8  C         23.4870  -22.1160  -10.8250 C.ar    1  UNL1        0.1710
      9  N         23.2940  -23.2040  -10.0370 N.ar    1  UNL1       -0.3020
     10  C         22.0520  -23.6900   -9.7700 C.ar    1  UNL1        0.2580
     11  O         21.8680  -24.7060   -9.1150 O.2     1  UNL1       -0.2670
     12  C         20.9410  -22.9120  -10.3470 C.ar    1  UNL1        0.0700
     13  H         20.5670  -20.2790  -12.1770 H       1  UNL1        0.1700
     14  H         24.0900  -23.6990   -9.6630 H       1  UNL1        0.1710
     15  C         19.1440  -22.8820   -8.6250 C.2     1  UNL1        0.2310
     16  N         17.9480  -23.4200   -8.1700 N.am    1  UNL1       -0.3270
     17  H         17.4320  -24.0260   -8.7940 H       1  UNL1        0.1690
     18  O         19.9000  -22.1650   -7.9750 O.2     1  UNL1       -0.2720
     19  C         17.3450  -23.2260   -6.9080 C.2     1  UNL1        0.0350
     20  C         17.9300  -23.5840   -5.6970 C.2     1  UNL1        0.0300
     21  C         17.2580  -23.3520   -4.4910 C.2     1  UNL1        0.0090
     22  C         15.9900  -22.7580   -4.4720 C.2     1  UNL1       -0.0560
     23  C         15.3050  -22.5290   -3.1530 C.3     1  UNL1        0.0490
     24  C         15.3890  -22.3930   -5.6890 C.2     1  UNL1       -0.0540
     25  C         16.0770  -22.6300   -6.8930 C.2     1  UNL1        0.0370
     26  C         14.0290  -21.7500   -5.7290 C.3     1  UNL1        0.0490
     27  S         25.1670  -21.7420  -11.0230 S.3     1  UNL1       -0.0870
     28  C         25.7510  -23.2610  -11.8250 C.3     1  UNL1        0.1210
     29  C         25.4310  -23.2610  -13.3000 C.2     1  UNL1       -0.0490
     30  C         25.0030  -22.0860  -13.9360 C.2     1  UNL1        0.0080
     31  C         24.6970  -22.0900  -15.2980 C.2     1  UNL1        0.0010
     32  C         24.8130  -23.2650  -16.0360 C.2     1  UNL1        0.0000
     33  C         25.2320  -24.4400  -15.4130 C.2     1  UNL1        0.0010
     34  C         25.5360  -24.4390  -14.0520 C.2     1  UNL1        0.0080
@<TRIPOS>BOND
     1    32    33    2
     2    32    31    1
     3    33    34    1
     4    31    30    2
     5    34    29    2
     6    30    29    1
     7    29    28    1
     8    13     5    1
     9     4     3    2
    10    28    27    1
    11     5     3   am
    12     5     6    1
    13     3     2    1
    14     7     6   ar
    15     7     8   ar
    16     6    12   ar
    17     2     1    1
    18    27     8    1
    19     8     9   ar
    20    12     1    1
    21    12    10   ar
    22     1    15    1
    23     9    10   ar
    24     9    14    1
    25    10    11    2
    26    17    16    1
    27    15    16   am
    28    15    18    2
    29    16    19    1
    30    19    25    2
    31    19    20    1
    32    25    24    1
    33    26    24    1
    34    20    21    2
    35    24    22    2
    36    21    22    1
    37    22    23    1
