@<TRIPOS>MOLECULE
416_out_ligand_01.pdbqt
 30 32 0 0 0
SMALL
GASTEIGER

@<TRIPOS>ATOM
      1  C         18.7640  -22.6670  -10.7050 C.2     1  UNL1        0.0350
      2  C         18.6810  -21.6260  -11.6300 C.2     1  UNL1        0.0290
      3  C         19.8350  -20.9870  -12.0810 C.2     1  UNL1        0.0030
      4  C         21.0870  -21.3850  -11.6100 C.2     1  UNL1        0.0100
      5  C         21.2100  -22.4290  -10.6810 C.2     1  UNL1       -0.0190
      6  C         20.0230  -23.0540  -10.2340 C.2     1  UNL1        0.0390
      7  N         17.5570  -23.2650  -10.3000 N.am    1  UNL1       -0.3250
      8  C         16.4530  -22.6600   -9.7250 C.2     1  UNL1        0.2460
      9  O         16.3170  -21.4650   -9.4790 O.2     1  UNL1       -0.2710
     10  H         17.5010  -24.2770  -10.3700 H       1  UNL1        0.1690
     11  C         15.3230  -23.6530   -9.4220 C.3     1  UNL1        0.2780
     12  O         15.6280  -24.6310   -8.4340 O.2     1  UNL1       -0.3420
     13  C         16.0330  -24.1920   -7.2020 C.2     1  UNL1        0.0690
     14  C         17.3390  -24.5410   -6.8630 C.2     1  UNL1        0.0370
     15  C         17.8890  -24.1380   -5.6460 C.2     1  UNL1        0.0100
     16  C         17.1420  -23.3680   -4.7450 C.2     1  UNL1       -0.0560
     17  C         17.7640  -22.9470   -3.4410 C.3     1  UNL1        0.0490
     18  C         15.8230  -23.0040   -5.0830 C.2     1  UNL1       -0.0530
     19  C         15.2820  -23.4200   -6.3150 C.2     1  UNL1        0.0440
     20  C         14.9820  -22.1690   -4.1560 C.3     1  UNL1        0.0490
     21  C         22.5610  -22.8850  -10.1360 C.3     1  UNL1        0.1390
     22  C         22.5310  -24.0040   -9.0890 C.3     1  UNL1        0.0540
     23  N         23.4420  -23.2740  -11.2230 N.am    1  UNL1       -0.3210
     24  C         24.5770  -22.5060  -11.2820 C.2     1  UNL1        0.3240
     25  H         23.2070  -23.9190  -11.9650 H       1  UNL1        0.1650
     26  O         25.4430  -22.6040  -12.1330 O.2     1  UNL1       -0.2470
     27  N         24.5600  -21.6250  -10.2560 N.am    1  UNL1       -0.2770
     28  C         23.3980  -21.7210   -9.5510 C.2     1  UNL1        0.2580
     29  H         25.2600  -20.9180  -10.1120 H       1  UNL1        0.1730
     30  O         23.0990  -21.0090   -8.6030 O.2     1  UNL1       -0.2700
@<TRIPOS>BOND
     1    26    24    2
     2     3     2    1
     3     3     4    2
     4    25    23    1
     5     2     1    2
     6     4     5    1
     7    24    23   am
     8    24    27   am
     9    23    21    1
    10     1     7    1
    11     1     6    1
    12     5     6    2
    13     5    21    1
    14    10     7    1
    15     7     8   am
    16    27    29    1
    17    27    28   am
    18    21    28    1
    19    21    22    1
    20     8     9    2
    21     8    11    1
    22    28    30    2
    23    11    12    1
    24    12    13    1
    25    13    14    2
    26    13    19    1
    27    14    15    1
    28    19    18    2
    29    15    16    2
    30    18    16    1
    31    18    20    1
    32    16    17    1
