@<TRIPOS>MOLECULE
41715_out_ligand_01.pdbqt
 34 37 0 0 0
SMALL
GASTEIGER

@<TRIPOS>ATOM
      1  C         22.8740  -22.1580  -10.6510 C.ar    1  UNL1        0.1710
      2  N         21.8880  -21.4890  -11.1500 N.ar    1  UNL1       -0.2060
      3  C         20.6390  -21.9170  -10.8110 C.ar    1  UNL1        0.1450
      4  C         20.3640  -22.9600  -10.0190 C.ar    1  UNL1        0.0700
      5  C         21.5090  -23.7320   -9.5050 C.ar    1  UNL1        0.2580
      6  O         21.3680  -24.7460   -8.8370 O.2     1  UNL1       -0.2670
      7  N         22.7320  -23.2360   -9.8380 N.ar    1  UNL1       -0.3020
      8  C         18.9710  -23.3230   -9.6170 C.3     1  UNL1        0.1290
      9  C         17.8980  -22.7320  -10.5350 C.3     1  UNL1        0.1220
     10  C         18.2860  -21.4100  -11.1620 C.2     1  UNL1        0.2240
     11  O         17.4500  -20.6180  -11.5870 O.2     1  UNL1       -0.2730
     12  N         19.6220  -21.1540  -11.2930 N.am    1  UNL1       -0.3110
     13  H         23.5510  -23.7210   -9.5030 H       1  UNL1        0.1710
     14  H         19.8730  -20.3230  -11.8170 H       1  UNL1        0.1700
     15  C         18.7160  -22.9140   -8.1580 C.2     1  UNL1        0.2310
     16  O         19.3980  -22.0280   -7.6490 O.2     1  UNL1       -0.2720
     17  N         17.7220  -23.6450   -7.5220 N.am    1  UNL1       -0.3260
     18  H         17.2960  -24.3950   -8.0470 H       1  UNL1        0.1690
     19  C         17.2120  -23.4690   -6.2130 C.2     1  UNL1        0.0400
     20  C         17.8860  -23.9240   -5.0730 C.2     1  UNL1        0.0300
     21  C         17.3590  -23.7190   -3.7930 C.2     1  UNL1        0.0020
     22  C         16.1490  -23.0580   -3.6350 C.2     1  UNL1        0.0010
     23  C         15.4630  -22.5970   -4.7560 C.2     1  UNL1        0.0090
     24  C         15.9790  -22.7930   -6.0510 C.2     1  UNL1       -0.0350
     25  C         15.1850  -22.2670   -7.2170 C.3     1  UNL1        0.0500
     26  S         24.5350  -21.7690  -10.9390 S.3     1  UNL1       -0.0870
     27  C         25.1020  -23.3130  -11.7090 C.3     1  UNL1        0.1210
     28  C         24.9750  -23.2550  -13.2110 C.2     1  UNL1       -0.0490
     29  C         25.3700  -24.3420  -14.0020 C.2     1  UNL1        0.0080
     30  C         25.2420  -24.2930  -15.3920 C.2     1  UNL1        0.0070
     31  C         24.7120  -23.1570  -16.0170 C.2     1  UNL1       -0.0620
     32  C         24.5520  -23.1270  -17.5080 C.3     1  UNL1        0.0480
     33  C         24.2970  -22.0780  -15.2290 C.2     1  UNL1        0.0070
     34  C         24.4300  -22.1240  -13.8390 C.2     1  UNL1        0.0080
@<TRIPOS>BOND
     1    32    31    1
     2    31    30    2
     3    31    33    1
     4    30    29    1
     5    33    34    2
     6    29    28    2
     7    34    28    1
     8    28    27    1
     9    14    12    1
    10    27    26    1
    11    11    10    2
    12    12    10   am
    13    12     3    1
    14    10     9    1
    15     2     3   ar
    16     2     1   ar
    17    26     1    1
    18     3     4   ar
    19     1     7   ar
    20     9     8    1
    21     4     8    1
    22     4     5   ar
    23     7     5   ar
    24     7    13    1
    25     8    15    1
    26     5     6    2
    27    15    16    2
    28    15    17   am
    29    18    17    1
    30    17    19    1
    31    25    24    1
    32    19    24    2
    33    19    20    1
    34    24    23    1
    35    20    21    2
    36    23    22    2
    37    21    22    1
