@<TRIPOS>MOLECULE
41739_out_ligand_01.pdbqt
 36 38 0 0 0
SMALL
GASTEIGER

@<TRIPOS>ATOM
      1  N         18.9600  -23.3390   -8.8350 N.ar    1  UNL1       -0.3490
      2  C         20.2370  -23.4490   -9.3490 C.ar    1  UNL1        0.0170
      3  C         21.2770  -24.3350   -8.7470 C.3     1  UNL1        0.0690
      4  C         20.3200  -22.6360  -10.4750 C.ar    1  UNL1        0.0110
      5  C         19.0320  -22.0110  -10.6470 C.ar    1  UNL1        0.0700
      6  C         18.2320  -22.4330   -9.5850 C.ar    1  UNL1        0.0250
      7  C         16.8310  -22.0340   -9.2410 C.3     1  UNL1        0.0690
      8  C         21.5290  -22.4720  -11.3540 C.3     1  UNL1        0.3110
      9  N         22.3940  -21.4720  -10.7330 N.3     1  UNL1        0.0870
     10  H         21.9310  -21.1170   -9.8970 H       1  UNL1        0.3160
     11  C         23.7170  -21.9950  -10.3880 C.3     1  UNL1        0.2740
     12  C         24.8940  -21.4590  -11.2210 C.3     1  UNL1        0.0680
     13  C         24.8120  -21.7900  -12.6930 C.2     1  UNL1       -0.0560
     14  C         24.4440  -20.8120  -13.6290 C.2     1  UNL1        0.0090
     15  C         24.3820  -21.1190  -14.9900 C.2     1  UNL1        0.0250
     16  C         24.6810  -22.4150  -15.4160 C.2     1  UNL1        0.0740
     17  C         25.0570  -23.3990  -14.5000 C.2     1  UNL1        0.0250
     18  C         25.1140  -23.0840  -13.1420 C.2     1  UNL1        0.0090
     19  S         24.6060  -22.8020  -17.1430 S.O2    1  UNL1        0.2390
     20  O         23.3720  -23.5090  -17.4040 O.2     1  UNL1       -0.2060
     21  O         25.8940  -23.3040  -17.5600 O.2     1  UNL1       -0.2060
     22  N         24.4020  -21.2720  -17.8190 N.3     1  UNL1       -0.2250
     23  H         25.2660  -20.7410  -17.6970 H       1  UNL1        0.1360
     24  H         24.1120  -21.3050  -18.7960 H       1  UNL1        0.1360
     25  C         18.6430  -21.1020  -11.7240 C.2     1  UNL1        0.1780
     26  O         17.5520  -21.0720  -12.2770 O.2     1  UNL1       -0.6460
     27  O         19.5920  -20.2170  -12.1050 O.3     1  UNL1       -0.7730
     28  H         20.2690  -20.3050  -11.4060 H       1  UNL1        0.1670
     29  C         18.4470  -24.1210   -7.7040 C.3     1  UNL1        0.1670
     30  C         18.2910  -23.3430   -6.4160 C.2     1  UNL1       -0.0400
     31  C         18.8850  -22.0910   -6.1980 C.2     1  UNL1        0.0090
     32  C         18.6740  -21.3990   -5.0050 C.2     1  UNL1        0.0010
     33  C         17.8610  -21.9430   -4.0120 C.2     1  UNL1        0.0070
     34  C         17.2550  -23.1890   -4.2020 C.2     1  UNL1       -0.0610
     35  C         16.3460  -23.7560   -3.1530 C.3     1  UNL1        0.0480
     36  C         17.4630  -23.8710   -5.4100 C.2     1  UNL1        0.0150
@<TRIPOS>BOND
     1    24    22    1
     2    22    23    1
     3    22    19    1
     4    21    19    2
     5    20    19    2
     6    19    16    1
     7    16    15    2
     8    16    17    1
     9    15    14    1
    10    17    18    2
    11    14    13    2
    12    18    13    1
    13    13    12    1
    14    26    25    2
    15    27    25    1
    16    27    28    1
    17    25     5    1
    18     8     9    1
    19     8     4    1
    20    12    11    1
    21     9    11    1
    22     9    10    1
    23     5     4   ar
    24     5     6   ar
    25     4     2   ar
    26     6     7    1
    27     6     1   ar
    28     2     1   ar
    29     2     3    1
    30     1    29    1
    31    29    30    1
    32    30    31    2
    33    30    36    1
    34    31    32    1
    35    36    34    2
    36    32    33    2
    37    34    33    1
    38    34    35    1
