@<TRIPOS>MOLECULE
41740_out_ligand_01.pdbqt
 38 41 0 0 0
SMALL
GASTEIGER

@<TRIPOS>ATOM
      1  C         21.8070  -21.9390  -11.4690 C.2     1  UNL1        0.0980
      2  C         21.2820  -20.9040  -12.1430 C.2     1  UNL1        0.1090
      3  N         19.9670  -20.5150  -12.0740 N.pl3   1  UNL1       -0.3640
      4  C         19.0330  -21.3040  -11.3810 C.2     1  UNL1        0.0460
      5  C         17.6810  -20.9430  -11.3470 C.2     1  UNL1        0.0320
      6  C         16.7690  -21.7010  -10.6070 C.2     1  UNL1        0.0270
      7  C         17.2100  -22.8250   -9.8990 C.2     1  UNL1        0.0810
      8  C         18.5600  -23.1820   -9.8880 C.2     1  UNL1        0.0430
      9  C         19.4650  -22.4110  -10.6220 C.2     1  UNL1        0.0430
     10  C         20.9170  -22.7380  -10.5950 C.2     1  UNL1        0.2010
     11  O         21.3450  -23.6050   -9.8440 O.2     1  UNL1       -0.2860
     12  H         19.6240  -19.8840  -12.7920 H       1  UNL1        0.1650
     13  S         16.0320  -23.7710   -8.9610 S.O2    1  UNL1        0.2630
     14  O         16.7970  -24.6890   -8.1390 O.2     1  UNL1       -0.2000
     15  O         14.9990  -24.2390   -9.8510 O.2     1  UNL1       -0.2000
     16  N         15.3830  -22.6460   -7.9050 N.pl3   1  UNL1       -0.2810
     17  H         14.4420  -22.3520   -8.1640 H       1  UNL1        0.1790
     18  C         15.7920  -22.4940   -6.5480 C.2     1  UNL1        0.0430
     19  C         14.8690  -22.8620   -5.5560 C.2     1  UNL1        0.0300
     20  C         15.1780  -22.7090   -4.2000 C.2     1  UNL1        0.0030
     21  C         16.4100  -22.1700   -3.8270 C.2     1  UNL1        0.0160
     22  C         17.3400  -21.7690   -4.8050 C.2     1  UNL1        0.0500
     23  C         17.0070  -21.9160   -6.1690 C.2     1  UNL1        0.0460
     24  C         18.6590  -21.1520   -4.3970 C.3     1  UNL1        0.4170
     25  F         19.0590  -21.5230   -3.1540 F       1  UNL1       -0.1660
     26  F         19.6690  -21.4910   -5.2410 F       1  UNL1       -0.1660
     27  F         18.6240  -19.7910   -4.3800 F       1  UNL1       -0.1660
     28  C         23.2380  -22.2460  -11.6330 C.2     1  UNL1        0.2570
     29  N         23.7260  -21.8910  -12.8700 N.am    1  UNL1       -0.3520
     30  H         23.1260  -21.3290  -13.4650 H       1  UNL1        0.1630
     31  O         23.8720  -22.7920  -10.7430 O.2     1  UNL1       -0.2670
     32  C         25.1410  -21.9350  -13.2340 C.3     1  UNL1        0.0880
     33  C         25.7470  -20.5380  -13.4770 C.3     1  UNL1        0.0250
     34  C         26.1310  -20.2850  -14.9320 C.3     1  UNL1        0.0020
     35  C         27.0720  -21.3580  -15.4940 C.3     1  UNL1        0.0010
     36  C         26.8480  -22.7520  -14.9020 C.3     1  UNL1        0.0060
     37  C         25.4160  -22.9380  -14.3830 C.3     1  UNL1        0.0040
     38  C         25.1970  -24.3800  -13.9210 C.3     1  UNL1        0.0120
@<TRIPOS>BOND
     1    35    34    1
     2    35    36    1
     3    34    33    1
     4    36    37    1
     5    37    38    1
     6    37    32    1
     7    33    32    1
     8    30    29    1
     9    32    29    1
    10    29    28   am
    11    12     3    1
    12     2     3    1
    13     2     1    2
    14     3     4    1
    15    28     1    1
    16    28    31    2
    17     1    10    1
    18     4     5    2
    19     4     9    1
    20     5     6    1
    21     9    10    1
    22     9     8    2
    23     6     7    2
    24    10    11    2
    25     7     8    1
    26     7    13    1
    27    15    13    2
    28    13    14    2
    29    13    16    1
    30    17    16    1
    31    16    18    1
    32    18    23    2
    33    18    19    1
    34    23    22    1
    35    19    20    2
    36    26    24    1
    37    22    24    1
    38    22    21    2
    39    24    27    1
    40    24    25    1
    41    20    21    1
