@<TRIPOS>MOLECULE
41779_out_ligand_01.pdbqt
 33 36 0 0 0
SMALL
GASTEIGER

@<TRIPOS>ATOM
      1  O         18.1010  -20.6550  -12.1480 O.2     1  UNL1       -0.2730
      2  C         18.8040  -21.5030  -11.6060 C.2     1  UNL1        0.2240
      3  C         18.2210  -22.7500  -10.9800 C.3     1  UNL1        0.1220
      4  C         19.1220  -23.3900   -9.9210 C.3     1  UNL1        0.1290
      5  C         20.5800  -23.1860  -10.1820 C.ar    1  UNL1        0.0700
      6  C         21.0420  -22.2170  -10.9780 C.ar    1  UNL1        0.1450
      7  N         22.3570  -21.9400  -11.2060 N.ar    1  UNL1       -0.2060
      8  C         23.2120  -22.7030  -10.6120 C.ar    1  UNL1        0.1710
      9  N         22.8750  -23.7310   -9.7920 N.ar    1  UNL1       -0.3020
     10  C         21.5790  -24.0590   -9.5390 C.ar    1  UNL1        0.2580
     11  O         21.2640  -25.0110   -8.8400 O.2     1  UNL1       -0.2670
     12  N         20.1640  -21.3800  -11.5940 N.am    1  UNL1       -0.3110
     13  H         23.6000  -24.2960   -9.3740 H       1  UNL1        0.1710
     14  H         20.5540  -20.6070  -12.1220 H       1  UNL1        0.1700
     15  C         18.7520  -22.8810   -8.5200 C.2     1  UNL1        0.2310
     16  O         19.4590  -22.0410   -7.9690 O.2     1  UNL1       -0.2720
     17  N         17.6260  -23.4720   -7.9680 N.am    1  UNL1       -0.3270
     18  H         17.1530  -24.1860   -8.5090 H       1  UNL1        0.1690
     19  C         17.0440  -23.2040   -6.7100 C.2     1  UNL1        0.0340
     20  C         15.7840  -22.5860   -6.7110 C.2     1  UNL1        0.0320
     21  C         15.1380  -22.2820   -5.5110 C.2     1  UNL1        0.0440
     22  C         15.7520  -22.5950   -4.3060 C.2     1  UNL1        0.1160
     23  F         15.1350  -22.3040   -3.1530 F       1  UNL1       -0.2060
     24  C         16.9990  -23.2040   -4.2830 C.2     1  UNL1        0.0440
     25  C         17.6460  -23.5090   -5.4850 C.2     1  UNL1        0.0320
     26  S         24.9280  -22.5270  -10.7690 S.3     1  UNL1       -0.0870
     27  C         25.0190  -21.5060  -12.2660 C.3     1  UNL1        0.1210
     28  C         24.9990  -22.3550  -13.5120 C.2     1  UNL1       -0.0490
     29  C         25.4480  -23.6840  -13.4780 C.2     1  UNL1        0.0080
     30  C         25.4180  -24.4710  -14.6290 C.2     1  UNL1        0.0010
     31  C         24.9350  -23.9430  -15.8250 C.2     1  UNL1        0.0000
     32  C         24.4790  -22.6270  -15.8710 C.2     1  UNL1        0.0010
     33  C         24.5070  -21.8370  -14.7190 C.2     1  UNL1        0.0080
@<TRIPOS>BOND
     1    32    31    2
     2    32    33    1
     3    31    30    1
     4    33    28    2
     5    30    29    2
     6    28    29    1
     7    28    27    1
     8    27    26    1
     9     1     2    2
    10    14    12    1
    11     2    12   am
    12     2     3    1
    13    12     6    1
    14     7     6   ar
    15     7     8   ar
    16     3     4    1
    17     6     5   ar
    18    26     8    1
    19     8     9   ar
    20     5     4    1
    21     5    10   ar
    22     4    15    1
    23     9    10   ar
    24     9    13    1
    25    10    11    2
    26    15    16    2
    27    15    17   am
    28    18    17    1
    29    17    19    1
    30    20    19    2
    31    20    21    1
    32    19    25    1
    33    21    22    2
    34    25    24    2
    35    22    24    1
    36    22    23    1
