@<TRIPOS>MOLECULE
417_out_ligand_01.pdbqt
 34 37 0 0 0
SMALL
GASTEIGER

@<TRIPOS>ATOM
      1  C         23.4000  -22.3150  -10.6540 C.2     1  UNL1        0.2590
      2  O         23.5420  -21.4160   -9.8290 O.2     1  UNL1       -0.2670
      3  N         22.3300  -23.1830  -10.7200 N.am    1  UNL1       -0.3230
      4  H         22.3550  -23.8550  -11.4800 H       1  UNL1        0.1690
      5  C         21.1920  -23.2300   -9.8920 C.2     1  UNL1        0.0350
      6  C         21.0080  -24.1580   -8.8660 C.2     1  UNL1        0.0300
      7  C         19.8450  -24.1380   -8.0860 C.2     1  UNL1        0.0170
      8  C         18.8370  -23.1990   -8.3290 C.2     1  UNL1        0.0120
      9  C         19.0330  -22.2550   -9.3430 C.2     1  UNL1        0.0170
     10  C         20.1970  -22.2740  -10.1190 C.2     1  UNL1        0.0300
     11  C         17.6100  -23.1550   -7.5370 C.ar    1  UNL1        0.1630
     12  N         16.5020  -23.8130   -7.8190 N.ar    1  UNL1       -0.1290
     13  N         15.5730  -23.5420   -6.8520 N.ar    1  UNL1       -0.1340
     14  C         16.1260  -22.7410   -5.9690 C.ar    1  UNL1        0.1300
     15  N         17.4200  -22.4810   -6.3440 N.ar    1  UNL1       -0.3160
     16  C         15.4650  -22.2000   -4.7580 C.3     1  UNL1        0.0810
     17  C         18.4380  -21.7620   -5.6110 C.3     1  UNL1        0.1320
     18  C         18.1760  -21.4070   -4.1420 C.3     1  UNL1        0.0200
     19  C         17.5990  -22.5620   -3.3290 C.3     1  UNL1        0.0020
     20  C         16.0800  -22.7270   -3.4630 C.3     1  UNL1        0.0080
     21  C         24.4850  -22.5060  -11.6780 C.2     1  UNL1        0.0670
     22  C         24.1930  -22.0500  -12.9770 C.2     1  UNL1        0.0440
     23  C         25.1220  -22.2110  -14.0070 C.2     1  UNL1        0.0750
     24  C         26.3560  -22.8080  -13.7600 C.2     1  UNL1        0.0270
     25  C         26.6580  -23.2570  -12.4710 C.2     1  UNL1        0.0390
     26  C         25.7330  -23.1210  -11.4230 C.2     1  UNL1        0.0840
     27  S         24.7220  -21.6230  -15.6300 S.O2    1  UNL1        0.2390
     28  O         25.9280  -21.0970  -16.2220 O.2     1  UNL1       -0.2060
     29  O         23.9010  -22.6170  -16.2830 O.2     1  UNL1       -0.2060
     30  N         23.6870  -20.3410  -15.2990 N.3     1  UNL1       -0.2250
     31  H         23.4490  -19.8640  -16.1700 H       1  UNL1        0.1360
     32  H         22.8600  -20.5980  -14.7600 H       1  UNL1        0.1360
     33  O         25.9850  -23.5460  -10.1430 O.2     1  UNL1       -0.3550
     34  C         27.1160  -24.3870   -9.9310 C.3     1  UNL1        0.2100
@<TRIPOS>BOND
     1    29    27    2
     2    28    27    2
     3    31    30    1
     4    27    30    1
     5    27    23    1
     6    30    32    1
     7    23    24    2
     8    23    22    1
     9    24    25    1
    10    22    21    2
    11    25    26    2
    12    21    26    1
    13    21     1    1
    14     4     3    1
    15    26    33    1
    16     3     1   am
    17     3     5    1
    18     1     2    2
    19    33    34    1
    20    10     5    2
    21    10     9    1
    22     5     6    1
    23     9     8    2
    24     6     7    2
    25     8     7    1
    26     8    11    1
    27    12    11   ar
    28    12    13   ar
    29    11    15   ar
    30    13    14   ar
    31    15    14   ar
    32    15    17    1
    33    14    16    1
    34    17    18    1
    35    16    20    1
    36    18    19    1
    37    20    19    1
