@<TRIPOS>MOLECULE
41836_out_ligand_01.pdbqt
 30 33 0 0 0
SMALL
GASTEIGER

@<TRIPOS>ATOM
      1  N         22.2240  -23.5030  -10.2110 N.pl3   1  UNL1       -0.3750
      2  C         23.6540  -23.1690  -10.0700 C.3     1  UNL1        0.1340
      3  C         24.3510  -23.2550  -11.4170 C.3     1  UNL1        0.0990
      4  S         23.8010  -21.9140  -12.5040 S.3     1  UNL1       -0.1260
      5  C         22.0750  -21.8050  -12.0100 C.2     1  UNL1        0.0270
      6  C         21.3160  -20.8770  -12.7480 C.2     1  UNL1        0.0220
      7  C         19.9620  -20.6880  -12.4870 C.2     1  UNL1        0.0180
      8  C         19.3500  -21.4380  -11.4870 C.2     1  UNL1        0.0340
      9  C         20.1110  -22.3490  -10.7340 C.2     1  UNL1        0.0470
     10  C         21.4860  -22.5630  -10.9600 C.2     1  UNL1        0.0480
     11  C         17.9020  -21.2950  -11.1630 C.2     1  UNL1        0.2520
     12  O         17.2770  -20.3210  -11.5710 O.2     1  UNL1       -0.2680
     13  N         17.3510  -22.2760  -10.3680 N.am    1  UNL1       -0.3530
     14  H         17.9660  -22.9120   -9.8830 H       1  UNL1        0.1630
     15  C         16.0080  -22.1540   -9.8430 C.3     1  UNL1        0.1610
     16  C         15.8780  -22.9090   -8.5450 C.2     1  UNL1       -0.0390
     17  C         16.0720  -24.2990   -8.5140 C.2     1  UNL1        0.0090
     18  C         15.9230  -25.0110   -7.3230 C.2     1  UNL1        0.0020
     19  C         15.5740  -24.3440   -6.1500 C.2     1  UNL1        0.0190
     20  C         15.3760  -22.9640   -6.1740 C.2     1  UNL1        0.0110
     21 BR         14.8920  -22.0580   -4.5860 Br      1  UNL1       -0.0510
     22  C         15.5250  -22.2440   -7.3610 C.2     1  UNL1        0.0270
     23  C         21.5990  -24.2200   -9.0850 C.3     1  UNL1        0.1610
     24  C         20.8910  -23.2850   -8.1220 C.2     1  UNL1       -0.0400
     25  C         19.6060  -23.5820   -7.6510 C.2     1  UNL1        0.0090
     26  C         18.9670  -22.7290   -6.7480 C.2     1  UNL1        0.0070
     27  C         19.6070  -21.5720   -6.2880 C.2     1  UNL1       -0.0620
     28  C         18.9120  -20.6400   -5.3400 C.3     1  UNL1        0.0480
     29  C         20.8880  -21.2700   -6.7630 C.2     1  UNL1        0.0070
     30  C         21.5280  -22.1210   -7.6640 C.2     1  UNL1        0.0090
@<TRIPOS>BOND
     1     6     7    1
     2     6     5    2
     3     4     5    1
     4     4     3    1
     5     7     8    2
     6     5    10    1
     7    12    11    2
     8     8    11    1
     9     8     9    1
    10     3     2    1
    11    11    13   am
    12    10     9    2
    13    10     1    1
    14    13    14    1
    15    13    15    1
    16     1     2    1
    17     1    23    1
    18    15    16    1
    19    23    24    1
    20    16    17    2
    21    16    22    1
    22    17    18    1
    23    24    30    2
    24    24    25    1
    25    30    29    1
    26    25    26    2
    27    22    20    2
    28    18    19    2
    29    29    27    2
    30    26    27    1
    31    27    28    1
    32    20    19    1
    33    20    21    1
