@<TRIPOS>MOLECULE
41848_out_ligand_01.pdbqt
 35 38 0 0 0
SMALL
GASTEIGER

@<TRIPOS>ATOM
      1  C         22.7100  -22.9610  -10.1890 C.ar    1  UNL1        0.1710
      2  N         21.9540  -22.1300  -10.8240 N.ar    1  UNL1       -0.2060
      3  C         20.6100  -22.3200  -10.6930 C.ar    1  UNL1        0.1450
      4  C         20.0290  -23.2730   -9.9580 C.ar    1  UNL1        0.0700
      5  C         20.9190  -24.2310   -9.2770 C.ar    1  UNL1        0.2580
      6  O         20.4910  -25.1850   -8.6430 O.2     1  UNL1       -0.2670
      7  N         22.2480  -23.9800   -9.4190 N.ar    1  UNL1       -0.3020
      8  C         18.5450  -23.3750   -9.7970 C.3     1  UNL1        0.1290
      9  C         17.7670  -22.6540  -10.8990 C.3     1  UNL1        0.1220
     10  C         18.4750  -21.4340  -11.4490 C.2     1  UNL1        0.2240
     11  O         17.8710  -20.5240  -12.0080 O.2     1  UNL1       -0.2730
     12  N         19.8370  -21.4080  -11.3420 N.am    1  UNL1       -0.3110
     13  H         22.9030  -24.6050   -8.9720 H       1  UNL1        0.1710
     14  H         20.3150  -20.6520  -11.8190 H       1  UNL1        0.1700
     15  C         18.1260  -22.8610   -8.4110 C.2     1  UNL1        0.2310
     16  O         18.8520  -22.0790   -7.8040 O.2     1  UNL1       -0.2720
     17  N         16.9280  -23.3800   -7.9430 N.am    1  UNL1       -0.3260
     18  H         16.4560  -24.0500   -8.5330 H       1  UNL1        0.1690
     19  C         16.2740  -23.0960   -6.7190 C.2     1  UNL1        0.0430
     20  C         15.1790  -22.2300   -6.6330 C.2     1  UNL1        0.0720
     21  C         14.5680  -21.9900   -5.4050 C.2     1  UNL1        0.1180
     22  F         13.5190  -21.1590   -5.3420 F       1  UNL1       -0.2060
     23  C         15.0220  -22.5960   -4.2450 C.2     1  UNL1        0.0430
     24  C         16.1100  -23.4610   -4.3110 C.2     1  UNL1        0.0120
     25  C         16.7460  -23.7220   -5.5400 C.2     1  UNL1       -0.0350
     26  C         17.9230  -24.6630   -5.5400 C.3     1  UNL1        0.0500
     27  S         24.4410  -22.8980  -10.2190 S.3     1  UNL1       -0.0870
     28  C         24.7280  -22.5990  -11.9860 C.3     1  UNL1        0.1210
     29  C         25.4770  -21.3100  -12.2100 C.2     1  UNL1       -0.0480
     30  C         26.1410  -20.6790  -11.1480 C.2     1  UNL1        0.0080
     31  C         26.8270  -19.4820  -11.3560 C.2     1  UNL1        0.0010
     32  C         26.8520  -18.9000  -12.6230 C.2     1  UNL1        0.0070
     33  C         26.1780  -19.5020  -13.6910 C.2     1  UNL1       -0.0610
     34  C         26.2280  -18.8870  -15.0590 C.3     1  UNL1        0.0480
     35  C         25.5000  -20.7100  -13.4790 C.2     1  UNL1        0.0140
@<TRIPOS>BOND
     1    34    33    1
     2    33    35    1
     3    33    32    2
     4    35    29    2
     5    32    31    1
     6    29    28    1
     7    29    30    1
     8    11    10    2
     9    28    27    1
    10    14    12    1
    11    10    12   am
    12    10     9    1
    13    31    30    2
    14    12     3    1
    15     9     8    1
    16     2     3   ar
    17     2     1   ar
    18     3     4   ar
    19    27     1    1
    20     1     7   ar
    21     4     8    1
    22     4     5   ar
    23     8    15    1
    24     7     5   ar
    25     7    13    1
    26     5     6    2
    27    18    17    1
    28    15    17   am
    29    15    16    2
    30    17    19    1
    31    19    20    2
    32    19    25    1
    33    20    21    1
    34    26    25    1
    35    25    24    2
    36    21    22    1
    37    21    23    2
    38    24    23    1
