@<TRIPOS>MOLECULE
41858_out_ligand_01.pdbqt
 34 37 0 0 0
SMALL
GASTEIGER

@<TRIPOS>ATOM
      1  C         22.8300  -22.3950   -8.8910 C.2     1  UNL1        0.1730
      2  N         23.6110  -23.2780   -9.4810 N.2     1  UNL1       -0.2080
      3  C         24.4610  -22.4610  -10.2060 C.2     1  UNL1        0.1650
      4  N         24.2170  -21.1490  -10.0780 N.4     1  UNL1       -0.1100
      5  O         23.1280  -21.1030   -9.2070 O.2     1  UNL1       -0.1960
      6  C         25.5720  -22.9870  -11.0490 C.3     1  UNL1        0.1650
      7  S         25.0740  -23.2130  -12.7850 S.3     1  UNL1       -0.0830
      8  C         23.5930  -22.3410  -12.8300 C.ar    1  UNL1        0.1890
      9  N         23.3130  -21.2730  -13.5270 N.ar    1  UNL1       -0.1220
     10  N         22.0110  -20.9240  -13.2290 N.ar    1  UNL1       -0.1290
     11  C         21.5280  -21.7900  -12.3550 C.ar    1  UNL1        0.1620
     12  N         22.5230  -22.6900  -12.0680 N.ar    1  UNL1       -0.3170
     13  H         22.4760  -23.4870  -11.4540 H       1  UNL1        0.1690
     14  C         20.1790  -21.8070  -11.7890 C.2     1  UNL1        0.0120
     15  C         19.7950  -22.8730  -10.9560 C.2     1  UNL1        0.0170
     16  C         18.5160  -22.9210  -10.3920 C.2     1  UNL1        0.0250
     17  C         17.6060  -21.9030  -10.6570 C.2     1  UNL1        0.0340
     18 CL         16.0310  -21.9530   -9.9670 Cl      1  UNL1       -0.0840
     19  C         17.9660  -20.8360  -11.4750 C.2     1  UNL1        0.0250
     20  C         19.2480  -20.7860  -12.0360 C.2     1  UNL1        0.0170
     21  C         21.6990  -22.6240   -7.9590 C.3     1  UNL1        0.0980
     22  C         21.3800  -21.3710   -7.1480 C.3     1  UNL1        0.1110
     23  C         20.0310  -21.4600   -6.4550 C.2     1  UNL1        0.2220
     24  N         19.2940  -22.5430   -6.9020 N.am    1  UNL1       -0.3270
     25  H         19.7020  -23.1070   -7.6380 H       1  UNL1        0.1690
     26  O         19.6800  -20.6190   -5.6360 O.2     1  UNL1       -0.2730
     27  C         18.0170  -22.9520   -6.4610 C.2     1  UNL1        0.0350
     28  C         17.3740  -23.9480   -7.2050 C.2     1  UNL1        0.0300
     29  C         16.1130  -24.4200   -6.8260 C.2     1  UNL1        0.0090
     30  C         15.4660  -23.9040   -5.6940 C.2     1  UNL1       -0.0560
     31  C         14.1160  -24.4430   -5.3050 C.3     1  UNL1        0.0490
     32  C         16.1030  -22.8990   -4.9400 C.2     1  UNL1       -0.0540
     33  C         17.3760  -22.4390   -5.3320 C.2     1  UNL1        0.0370
     34  C         15.4680  -22.3240   -3.7010 C.3     1  UNL1        0.0490
@<TRIPOS>BOND
     1     9    10   ar
     2     9     8   ar
     3    10    11   ar
     4     8     7    1
     5     8    12   ar
     6     7     6    1
     7    11    12   ar
     8    11    14    1
     9    12    13    1
    10    20    14    2
    11    20    19    1
    12    14    15    1
    13    19    17    2
    14     6     3    1
    15    15    16    2
    16    17    16    1
    17    17    18    1
    18     3     4    1
    19     3     2    2
    20     4     5    1
    21     2     1    2
    22     5     1    1
    23     1    21    1
    24    21    22    1
    25    25    24    1
    26    28    29    1
    27    28    27    2
    28    22    23    1
    29    24    27    1
    30    24    23   am
    31    29    30    2
    32    27    33    1
    33    23    26    2
    34    30    31    1
    35    30    32    1
    36    33    32    2
    37    32    34    1
