@<TRIPOS>MOLECULE
41895_out_ligand_01.pdbqt
 38 41 0 0 0
SMALL
GASTEIGER

@<TRIPOS>ATOM
      1  C         17.3520  -22.5530   -9.7300 C.2     1  UNL1        0.0810
      2  C         16.9840  -21.8470  -10.8840 C.2     1  UNL1        0.0270
      3  C         17.9740  -21.3080  -11.7150 C.2     1  UNL1        0.0320
      4  C         19.3270  -21.4830  -11.4060 C.2     1  UNL1        0.0460
      5  N         20.3320  -20.9290  -12.2120 N.pl3   1  UNL1       -0.3640
      6  C         21.6560  -21.2000  -11.9490 C.2     1  UNL1        0.1090
      7  C         22.1090  -21.8390  -10.8530 C.2     1  UNL1        0.0980
      8  C         21.1060  -22.2710   -9.8460 C.2     1  UNL1        0.2010
      9  O         21.4380  -22.7050   -8.7430 O.2     1  UNL1       -0.2860
     10  C         19.6720  -22.1610  -10.2170 C.2     1  UNL1        0.0430
     11  C         18.6950  -22.7170   -9.3870 C.2     1  UNL1        0.0430
     12  H         20.0910  -20.6300  -13.1550 H       1  UNL1        0.1650
     13  S         16.1150  -23.2460   -8.6680 S.O2    1  UNL1        0.2630
     14  O         15.3200  -22.1710   -8.1160 O.2     1  UNL1       -0.2000
     15  O         15.4970  -24.3320   -9.4020 O.2     1  UNL1       -0.2000
     16  N         17.0360  -23.9560   -7.4410 N.pl3   1  UNL1       -0.2810
     17  H         17.0420  -24.9720   -7.5360 H       1  UNL1        0.1790
     18  C         16.9220  -23.4250   -6.1270 C.2     1  UNL1        0.0450
     19  C         15.9500  -23.9380   -5.2660 C.2     1  UNL1        0.0300
     20  C         15.8490  -23.4510   -3.9640 C.2     1  UNL1        0.0050
     21  C         16.7260  -22.4530   -3.5240 C.2     1  UNL1        0.0370
     22  C         17.7140  -21.9530   -4.3760 C.2     1  UNL1        0.0700
     23  C         17.8080  -22.4440   -5.6830 C.2     1  UNL1        0.0660
     24  O         18.6440  -21.0060   -4.0480 O.2     1  UNL1       -0.3560
     25  C         19.3070  -20.3500   -5.1230 C.3     1  UNL1        0.2100
     26  C         23.5690  -22.0250  -10.6900 C.2     1  UNL1        0.2570
     27  O         24.2540  -21.2030  -10.0830 O.2     1  UNL1       -0.2670
     28  N         24.0620  -23.1660  -11.2790 N.am    1  UNL1       -0.3560
     29  H         23.4510  -23.6410  -11.9470 H       1  UNL1        0.1620
     30  C         25.4850  -23.4190  -11.3930 C.3     1  UNL1        0.1270
     31  C         26.1700  -22.5660  -12.4730 C.3     1  UNL1        0.0580
     32  C         25.5910  -22.7910  -13.8520 C.2     1  UNL1       -0.0570
     33  C         25.0410  -21.7260  -14.5790 C.2     1  UNL1        0.0070
     34  C         24.5130  -21.9320  -15.8560 C.2     1  UNL1        0.0070
     35  C         24.5460  -23.2040  -16.4420 C.2     1  UNL1       -0.0620
     36  C         23.9500  -23.4290  -17.8000 C.3     1  UNL1        0.0480
     37  C         25.1010  -24.2710  -15.7220 C.2     1  UNL1        0.0070
     38  C         25.6240  -24.0650  -14.4410 C.2     1  UNL1        0.0070
@<TRIPOS>BOND
     1    36    35    1
     2    35    34    2
     3    35    37    1
     4    34    33    1
     5    37    38    2
     6    33    32    2
     7    38    32    1
     8    32    31    1
     9    12     5    1
    10    31    30    1
    11     5     6    1
    12     5     4    1
    13     6     7    2
    14    29    28    1
    15     3     4    2
    16     3     2    1
    17     4    10    1
    18    30    28    1
    19    28    26   am
    20     2     1    2
    21     7    26    1
    22     7     8    1
    23    26    27    2
    24    10     8    1
    25    10    11    2
    26     8     9    2
    27     1    11    1
    28     1    13    1
    29    15    13    2
    30    13    14    2
    31    13    16    1
    32    17    16    1
    33    16    18    1
    34    18    23    2
    35    18    19    1
    36    23    22    1
    37    19    20    2
    38    25    24    1
    39    22    24    1
    40    22    21    2
    41    20    21    1
