@<TRIPOS>MOLECULE
41914_out_ligand_01.pdbqt
 32 35 0 0 0
SMALL
GASTEIGER

@<TRIPOS>ATOM
      1  C         19.5870  -21.5150  -11.6470 C.2     1  UNL1        0.0340
      2  C         20.1420  -20.8680  -12.7470 C.2     1  UNL1        0.0180
      3  C         21.4960  -21.0340  -13.0200 C.2     1  UNL1        0.0220
      4  C         22.3090  -21.8390  -12.2010 C.2     1  UNL1        0.0270
      5  C         21.7740  -22.4950  -11.0580 C.2     1  UNL1        0.0480
      6  C         20.3990  -22.3050  -10.8140 C.2     1  UNL1        0.0470
      7  N         22.5680  -23.3190  -10.2320 N.pl3   1  UNL1       -0.3750
      8  C         23.9760  -22.8920  -10.1440 C.3     1  UNL1        0.1340
      9  C         24.6710  -23.0910  -11.4820 C.3     1  UNL1        0.0990
     10  S         24.0300  -21.9300  -12.7170 S.3     1  UNL1       -0.1260
     11  C         18.1470  -21.3730  -11.2960 C.2     1  UNL1        0.2510
     12  N         17.6320  -22.3190  -10.4320 N.am    1  UNL1       -0.3570
     13  H         18.2620  -22.9380   -9.9410 H       1  UNL1        0.1620
     14  O         17.4930  -20.4360  -11.7400 O.2     1  UNL1       -0.2680
     15  C         16.2620  -22.2330   -9.9580 C.3     1  UNL1        0.1270
     16  C         15.7890  -23.5370   -9.3140 C.3     1  UNL1        0.0580
     17  C         15.9850  -23.5250   -7.8190 C.2     1  UNL1       -0.0570
     18  C         16.6900  -24.5580   -7.1910 C.2     1  UNL1        0.0080
     19  C         16.8910  -24.5440   -5.8080 C.2     1  UNL1        0.0190
     20  C         16.4000  -23.4890   -5.0350 C.2     1  UNL1       -0.0000
     21  C         15.6880  -22.4610   -5.6580 C.2     1  UNL1        0.0190
     22  C         15.4870  -22.4740   -7.0410 C.2     1  UNL1        0.0080
     23  S         16.6220  -23.4360   -3.2650 S.3     1  UNL1       -0.1340
     24  C         18.0180  -22.2850   -3.1530 C.3     1  UNL1        0.0950
     25  C         21.9950  -23.9710   -9.0450 C.3     1  UNL1        0.1610
     26  C         21.3250  -22.9730   -8.1150 C.2     1  UNL1       -0.0400
     27  C         19.9970  -23.1620   -7.7020 C.2     1  UNL1        0.0120
     28  C         19.3930  -22.2490   -6.8350 C.2     1  UNL1        0.0430
     29  C         20.1170  -21.1530   -6.3780 C.2     1  UNL1        0.1160
     30  F         19.5340  -20.2790   -5.5470 F       1  UNL1       -0.2060
     31  C         21.4350  -20.9520   -6.7670 C.2     1  UNL1        0.0430
     32  C         22.0410  -21.8630   -7.6320 C.2     1  UNL1        0.0120
@<TRIPOS>BOND
     1     3     2    1
     2     3     4    2
     3     2     1    2
     4    10     4    1
     5    10     9    1
     6     4     5    1
     7    14    11    2
     8     1    11    1
     9     1     6    1
    10     9     8    1
    11    11    12   am
    12     5     6    2
    13     5     7    1
    14    12    15    1
    15    12    13    1
    16     7     8    1
    17     7    25    1
    18    15    16    1
    19    16    17    1
    20    25    26    1
    21    26    27    2
    22    26    32    1
    23    17    18    2
    24    17    22    1
    25    27    28    1
    26    32    31    2
    27    18    19    1
    28    22    21    2
    29    28    29    2
    30    31    29    1
    31    29    30    1
    32    19    20    2
    33    21    20    1
    34    20    23    1
    35    23    24    1
