@<TRIPOS>MOLECULE
41963_out_ligand_01.pdbqt
 35 38 0 0 0
SMALL
GASTEIGER

@<TRIPOS>ATOM
      1  N         18.4140  -22.0430  -10.8170 N.am    1  UNL1       -0.3570
      2  C         19.0730  -21.0250  -11.4750 C.2     1  UNL1        0.2510
      3  O         18.5340  -19.9740  -11.8030 O.2     1  UNL1       -0.2680
      4  H         18.8460  -22.9540  -10.7530 H       1  UNL1        0.1620
      5  C         20.5010  -21.2740  -11.8190 C.2     1  UNL1        0.0340
      6  C         20.9480  -21.2770  -13.1370 C.2     1  UNL1        0.0180
      7  C         22.2940  -21.5200  -13.3970 C.2     1  UNL1        0.0220
      8  C         23.2010  -21.7690  -12.3510 C.2     1  UNL1        0.0270
      9  C         22.7680  -21.7970  -10.9970 C.2     1  UNL1        0.0480
     10  S         24.8950  -22.0590  -12.8860 S.3     1  UNL1       -0.1260
     11  C         21.4000  -21.5410  -10.7730 C.2     1  UNL1        0.0470
     12  N         23.6630  -22.0310   -9.9330 N.pl3   1  UNL1       -0.3750
     13  C         24.7840  -22.9230  -10.2800 C.3     1  UNL1        0.1340
     14  C         25.7080  -22.2420  -11.2770 C.3     1  UNL1        0.0990
     15  C         23.1870  -22.0740   -8.5410 C.3     1  UNL1        0.1610
     16  C         21.9110  -22.8810   -8.3960 C.2     1  UNL1       -0.0400
     17  C         20.8280  -22.3810   -7.6580 C.2     1  UNL1        0.0090
     18  C         19.6600  -23.1330   -7.5190 C.2     1  UNL1        0.0010
     19  C         19.5660  -24.3940   -8.1070 C.2     1  UNL1        0.0000
     20  C         20.6400  -24.9050   -8.8340 C.2     1  UNL1        0.0010
     21  C         21.8070  -24.1560   -8.9750 C.2     1  UNL1        0.0090
     22  C         17.0010  -21.9380  -10.5010 C.3     1  UNL1        0.1270
     23  C         16.4240  -23.2590   -9.9840 C.3     1  UNL1        0.0580
     24  C         16.2450  -23.2390   -8.4850 C.2     1  UNL1       -0.0570
     25  C         16.4820  -22.0580   -7.7660 C.2     1  UNL1        0.0090
     26  C         16.3400  -22.0340   -6.3780 C.2     1  UNL1        0.0250
     27  C         15.9700  -23.2000   -5.7050 C.2     1  UNL1        0.0740
     28  C         15.7210  -24.3820   -6.4070 C.2     1  UNL1        0.0250
     29  C         15.8660  -24.4000   -7.7960 C.2     1  UNL1        0.0090
     30  S         15.7630  -23.1620   -3.9500 S.O2    1  UNL1        0.2390
     31  O         15.6170  -24.5110   -3.4530 O.2     1  UNL1       -0.2060
     32  O         14.8430  -22.1050   -3.6010 O.2     1  UNL1       -0.2060
     33  N         17.2760  -22.6480   -3.4330 N.3     1  UNL1       -0.2250
     34  H         17.4230  -21.6770   -3.7100 H       1  UNL1        0.1360
     35  H         17.9930  -23.2880   -3.7740 H       1  UNL1        0.1360
@<TRIPOS>BOND
     1     7     6    1
     2     7     8    2
     3     6     5    2
     4    10     8    1
     5    10    14    1
     6     8     9    1
     7     5     2    1
     8     5    11    1
     9     3     2    2
    10     2     1   am
    11    14    13    1
    12     9    11    2
    13     9    12    1
    14     1     4    1
    15     1    22    1
    16    22    23    1
    17    13    12    1
    18    23    24    1
    19    12    15    1
    20    21    20    1
    21    21    16    2
    22    20    19    2
    23    15    16    1
    24    24    29    2
    25    24    25    1
    26    16    17    1
    27    19    18    1
    28    29    28    1
    29    25    26    2
    30    17    18    2
    31    28    27    2
    32    26    27    1
    33    27    30    1
    34    30    32    2
    35    30    31    2
    36    30    33    1
    37    35    33    1
    38    34    33    1
