@<TRIPOS>MOLECULE
41981_out_ligand_01.pdbqt
 38 41 0 0 0
SMALL
GASTEIGER

@<TRIPOS>ATOM
      1  C         17.2390  -22.1740  -10.2470 C.ar    1  UNL1        0.1530
      2  N         16.6210  -21.3060  -11.0220 N.ar    1  UNL1       -0.1330
      3  N         17.5740  -20.6370  -11.7560 N.ar    1  UNL1       -0.1280
      4  C         18.7510  -21.1160  -11.4210 C.ar    1  UNL1        0.1740
      5  C         20.0630  -20.8270  -11.8510 C.2     1  UNL1        0.0570
      6  C         21.0850  -21.5210  -11.3300 C.2     1  UNL1        0.0440
      7  C         20.7480  -22.5510  -10.3150 C.2     1  UNL1        0.1140
      8  N         19.5690  -22.8570   -9.8740 N.2     1  UNL1       -0.1580
      9  N         18.5940  -22.0980  -10.4630 N.ar    1  UNL1       -0.1970
     10  S         22.1410  -23.4150   -9.7020 S.3     1  UNL1       -0.0990
     11  C         23.2840  -22.0180   -9.5050 C.3     1  UNL1        0.1840
     12  C         24.3480  -21.9670  -10.6020 C.2     1  UNL1        0.2310
     13  O         25.1960  -21.0830  -10.6610 O.2     1  UNL1       -0.2720
     14  N         24.2190  -23.0170  -11.5050 N.am    1  UNL1       -0.3260
     15  H         23.4500  -23.6600  -11.3500 H       1  UNL1        0.1690
     16  C         25.0290  -23.2870  -12.6300 C.2     1  UNL1        0.0370
     17  C         26.2530  -23.9340  -12.3910 C.2     1  UNL1        0.0290
     18  C         27.1200  -24.2480  -13.4430 C.2     1  UNL1        0.0050
     19  C         26.7760  -23.9190  -14.7510 C.2     1  UNL1        0.0360
     20  C         25.5600  -23.2700  -14.9960 C.2     1  UNL1        0.1050
     21  C         24.6870  -22.9500  -13.9430 C.2     1  UNL1        0.0650
     22  N         25.1940  -22.9210  -16.3760 N.pl3   1  UNL1       -0.1160
     23  O         24.1670  -22.2450  -16.5440 O.2     1  UNL1       -0.5320
     24  O         25.9290  -23.3180  -17.2910 O.2     1  UNL1       -0.5320
     25  C         16.6070  -23.1510   -9.3210 C.3     1  UNL1        0.1030
     26  C         16.2500  -22.4980   -7.9840 C.3     1  UNL1        0.1400
     27  N         15.7480  -23.5050   -7.0420 N.3     1  UNL1       -0.3150
     28  H         15.0780  -24.2020   -7.3800 H       1  UNL1        0.1720
     29  S         16.7880  -24.0950   -5.8660 S.O2    1  UNL1        0.2580
     30  O         16.0480  -24.1190   -4.6240 O.2     1  UNL1       -0.2010
     31  O         17.4330  -25.2770   -6.3960 O.2     1  UNL1       -0.2010
     32  C         17.9810  -22.7870   -5.7550 C.2     1  UNL1        0.0790
     33  C         19.0180  -22.7020   -6.6880 C.2     1  UNL1        0.0260
     34  C         19.9410  -21.6600   -6.5940 C.2     1  UNL1        0.0080
     35  C         19.8300  -20.7030   -5.5760 C.2     1  UNL1       -0.0620
     36  C         20.8440  -19.6030   -5.4590 C.3     1  UNL1        0.0480
     37  C         18.8000  -20.8160   -4.6320 C.2     1  UNL1        0.0080
     38  C         17.8740  -21.8560   -4.7190 C.2     1  UNL1        0.0260
@<TRIPOS>BOND
     1    24    22    2
     2    23    22    2
     3    22    20    1
     4    20    19    2
     5    20    21    1
     6    19    18    1
     7    21    16    2
     8    18    17    2
     9    16    17    1
    10    16    14    1
    11     5     4    1
    12     5     6    2
    13     3     4   ar
    14     3     2   ar
    15    14    15    1
    16    14    12   am
    17     4     9   ar
    18     6     7    1
    19     2     1   ar
    20    13    12    2
    21    12    11    1
    22     9     1   ar
    23     9     8    1
    24     7     8    2
    25     7    10    1
    26     1    25    1
    27    10    11    1
    28    25    26    1
    29    26    27    1
    30    28    27    1
    31    27    29    1
    32    33    34    1
    33    33    32    2
    34    34    35    2
    35    31    29    2
    36    29    32    1
    37    29    30    2
    38    32    38    1
    39    35    36    1
    40    35    37    1
    41    38    37    2
