@<TRIPOS>MOLECULE
41995_out_ligand_01.pdbqt
 38 41 0 0 0
SMALL
GASTEIGER

@<TRIPOS>ATOM
      1  C         17.4210  -22.8620   -9.7140 C.2     1  UNL1        0.0810
      2  C         17.0110  -21.8690  -10.6150 C.2     1  UNL1        0.0270
      3  C         17.9650  -21.1640  -11.3550 C.2     1  UNL1        0.0320
      4  C         19.3250  -21.4460  -11.1940 C.2     1  UNL1        0.0460
      5  N         20.2930  -20.7440  -11.9270 N.pl3   1  UNL1       -0.3640
      6  C         21.6290  -20.9510  -11.6830 C.2     1  UNL1        0.1090
      7  C         22.1250  -21.9250  -10.9000 C.2     1  UNL1        0.0980
      8  C         21.1600  -22.8360  -10.2290 C.2     1  UNL1        0.2010
      9  O         21.5310  -23.8310   -9.6050 O.2     1  UNL1       -0.2860
     10  C         19.7140  -22.4940  -10.3330 C.2     1  UNL1        0.0430
     11  C         18.7700  -23.1950   -9.5760 C.2     1  UNL1        0.0430
     12  H         20.0240  -19.8830  -12.3930 H       1  UNL1        0.1650
     13  S         16.1990  -23.6870   -8.7250 S.O2    1  UNL1        0.2630
     14  O         15.1360  -24.0880   -9.6250 O.2     1  UNL1       -0.2000
     15  O         16.8550  -24.6420   -7.8570 O.2     1  UNL1       -0.2000
     16  N         15.5800  -22.4210   -7.7900 N.pl3   1  UNL1       -0.2810
     17  H         14.6820  -22.0860   -8.1510 H       1  UNL1        0.1790
     18  C         15.7540  -22.4810   -6.3810 C.2     1  UNL1        0.0430
     19  C         14.7560  -23.0570   -5.5970 C.2     1  UNL1        0.0300
     20  C         14.9170  -23.1200   -4.2120 C.2     1  UNL1        0.0040
     21  C         16.0710  -22.6000   -3.6170 C.2     1  UNL1        0.0180
     22  C         17.0660  -22.0070   -4.4020 C.2     1  UNL1        0.0020
     23  C         16.9090  -21.9600   -5.7920 C.2     1  UNL1        0.0480
     24  S         18.5220  -21.3260   -3.6190 S.3     1  UNL1       -0.1340
     25  C         19.2780  -20.5380   -5.0680 C.3     1  UNL1        0.0950
     26  C         23.5960  -22.0330  -10.7640 C.2     1  UNL1        0.2570
     27  O         24.2410  -21.1670  -10.1740 O.2     1  UNL1       -0.2670
     28  N         24.1500  -23.1240  -11.3960 N.am    1  UNL1       -0.3560
     29  H         23.5300  -23.8180  -11.8160 H       1  UNL1        0.1620
     30  C         25.5680  -23.4160  -11.3330 C.3     1  UNL1        0.1270
     31  C         26.3420  -22.6790  -12.4310 C.3     1  UNL1        0.0580
     32  C         25.7080  -22.8690  -13.7880 C.2     1  UNL1       -0.0570
     33  C         25.1320  -21.7880  -14.4730 C.2     1  UNL1        0.0090
     34  C         24.5660  -21.9760  -15.7400 C.2     1  UNL1        0.0240
     35  C         24.5770  -23.2420  -16.3260 C.2     1  UNL1        0.0340
     36 CL         23.8840  -23.4730  -17.8900 Cl      1  UNL1       -0.0840
     37  C         25.1500  -24.3240  -15.6600 C.2     1  UNL1        0.0240
     38  C         25.7100  -24.1390  -14.3910 C.2     1  UNL1        0.0090
@<TRIPOS>BOND
     1    36    35    1
     2    35    34    2
     3    35    37    1
     4    34    33    1
     5    37    38    2
     6    33    32    2
     7    38    32    1
     8    32    31    1
     9    31    30    1
    10    12     5    1
    11     5     6    1
    12     5     4    1
    13    29    28    1
    14     6     7    2
    15    28    30    1
    16    28    26   am
    17     3     4    2
    18     3     2    1
    19     4    10    1
    20     7    26    1
    21     7     8    1
    22    26    27    2
    23     2     1    2
    24    10     8    1
    25    10    11    2
    26     8     9    2
    27     1    11    1
    28     1    13    1
    29    14    13    2
    30    13    15    2
    31    13    16    1
    32    17    16    1
    33    16    18    1
    34    18    23    2
    35    18    19    1
    36    23    22    1
    37    19    20    2
    38    25    24    1
    39    22    24    1
    40    22    21    2
    41    20    21    1
