@<TRIPOS>MOLECULE
419_out_ligand_01.pdbqt
 30 33 0 0 0
SMALL
GASTEIGER

@<TRIPOS>ATOM
      1  C         23.5010  -22.2780  -12.6000 C.2     1  UNL1        0.2570
      2  O         23.7700  -23.3400  -12.0510 O.2     1  UNL1       -0.2670
      3  N         22.3540  -21.5240  -12.4690 N.am    1  UNL1       -0.3230
      4  H         22.3130  -20.6560  -12.9890 H       1  UNL1        0.1690
      5  C         24.5530  -21.6810  -13.4620 C.2     1  UNL1        0.0510
      6  C         25.6890  -21.0180  -12.9770 C.2     1  UNL1        0.0260
      7  C         26.6160  -20.4740  -13.8770 C.2     1  UNL1        0.0210
      8 BR         26.0370  -20.7560  -11.1290 Br      1  UNL1       -0.0500
      9  C         26.4070  -20.5720  -15.2550 C.2     1  UNL1        0.0260
     10  C         25.2620  -21.2120  -15.7320 C.2     1  UNL1        0.0750
     11  C         24.3380  -21.7730  -14.8470 C.2     1  UNL1        0.0430
     12  S         24.9820  -21.3490  -17.4790 S.O2    1  UNL1        0.2390
     13  O         26.2530  -21.2390  -18.1520 O.2     1  UNL1       -0.2060
     14  O         24.0780  -22.4530  -17.6960 O.2     1  UNL1       -0.2060
     15  N         24.1070  -19.9500  -17.7960 N.3     1  UNL1       -0.2250
     16  H         23.4160  -19.8080  -17.0570 H       1  UNL1        0.1360
     17  H         24.6840  -19.1220  -17.9410 H       1  UNL1        0.1360
     18  C         21.2060  -21.8300  -11.7080 C.2     1  UNL1        0.0350
     19  C         19.9120  -21.3850  -12.0350 C.2     1  UNL1        0.0300
     20  C         18.8030  -21.7180  -11.2420 C.2     1  UNL1        0.0150
     21  C         19.0020  -22.4990  -10.1190 C.2     1  UNL1       -0.0190
     22  C         20.2960  -22.9470   -9.7880 C.2     1  UNL1       -0.0410
     23  C         18.0690  -22.9930   -9.1280 C.3     1  UNL1       -0.0190
     24  C         21.3980  -22.6230  -10.5660 C.2     1  UNL1        0.0380
     25  C         20.2560  -23.7790   -8.5230 C.2     1  UNL1        0.0780
     26  C         18.7830  -23.7510   -8.1750 C.2     1  UNL1       -0.0430
     27  C         18.1430  -24.3510   -7.1030 C.2     1  UNL1        0.0080
     28  C         16.7620  -24.1850   -6.9870 C.2     1  UNL1        0.0010
     29  C         16.0470  -23.4310   -7.9340 C.2     1  UNL1        0.0010
     30  C         16.6990  -22.8290   -9.0140 C.2     1  UNL1        0.0130
@<TRIPOS>BOND
     1    13    12    2
     2    17    15    1
     3    15    12    1
     4    15    16    1
     5    14    12    2
     6    12    10    1
     7    10     9    2
     8    10    11    1
     9     9     7    1
    10    11     5    2
    11     7     6    2
    12     5     6    1
    13     5     1    1
    14     4     3    1
    15     6     8    1
    16     1     3   am
    17     1     2    2
    18     3    18    1
    19    19    18    2
    20    19    20    1
    21    18    24    1
    22    20    21    2
    23    24    22    2
    24    21    22    1
    25    21    23    1
    26    22    25    1
    27    23    30    1
    28    23    26    1
    29    30    29    2
    30    25    26    2
    31    26    27    1
    32    29    28    1
    33    27    28    2
