@<TRIPOS>MOLECULE
42141_out_ligand_01.pdbqt
 34 37 0 0 0
SMALL
GASTEIGER

@<TRIPOS>ATOM
      1  C         21.8140  -22.4420   -9.9200 C.ar    1  UNL1        0.1960
      2  N         22.7250  -22.5590   -8.9840 N.ar    1  UNL1       -0.1220
      3  N         22.1070  -22.3870   -7.7790 N.ar    1  UNL1       -0.1280
      4  C         20.8140  -22.2100   -7.9800 C.ar    1  UNL1        0.1700
      5  N         20.5640  -22.1980   -9.3550 N.ar    1  UNL1       -0.2710
      6  S         22.1730  -22.3990  -11.6180 S.3     1  UNL1       -0.0850
      7  C         23.9370  -22.8580  -11.5950 C.3     1  UNL1        0.1210
      8  C         24.8200  -21.6950  -11.9790 C.2     1  UNL1       -0.0480
      9  C         25.6420  -21.0750  -11.0240 C.2     1  UNL1        0.0080
     10  C         26.4660  -20.0080  -11.3820 C.2     1  UNL1        0.0020
     11  C         26.4800  -19.5430  -12.7000 C.2     1  UNL1        0.0170
     12  C         25.6630  -20.1460  -13.6640 C.2     1  UNL1        0.0320
     13  C         24.8420  -21.2240  -13.3040 C.2     1  UNL1        0.0250
     14  C         25.6500  -19.6880  -15.0820 C.2     1  UNL1        0.2490
     15  N         26.0010  -18.3850  -15.3160 N.am    1  UNL1       -0.3660
     16  H         25.8240  -18.0580  -16.2590 H       1  UNL1        0.1590
     17  H         25.9880  -17.6910  -14.5780 H       1  UNL1        0.1590
     18  O         25.3050  -20.4240  -15.9950 O.2     1  UNL1       -0.2680
     19  C         19.3350  -21.9140  -10.0120 C.2     1  UNL1        0.0440
     20  C         19.3220  -21.0800  -11.1390 C.2     1  UNL1        0.0300
     21  C         18.1210  -20.8130  -11.8000 C.2     1  UNL1        0.0030
     22  C         16.9270  -21.3630  -11.3380 C.2     1  UNL1        0.0160
     23  C         16.9170  -22.1830  -10.2010 C.2     1  UNL1        0.0500
     24  C         18.1320  -22.4620   -9.5460 C.2     1  UNL1        0.0460
     25  C         15.6280  -22.7890   -9.6940 C.3     1  UNL1        0.4170
     26  F         15.4510  -22.6350   -8.3530 F       1  UNL1       -0.1660
     27  F         14.5290  -22.2450  -10.2800 F       1  UNL1       -0.1660
     28  F         15.5550  -24.1280   -9.9280 F       1  UNL1       -0.1660
     29  C         19.8390  -22.1110   -6.8950 C.2     1  UNL1        0.0300
     30  C         18.8850  -23.1010   -6.6350 C.2     1  UNL1        0.0180
     31  C         17.9980  -22.9440   -5.5700 C.2     1  UNL1        0.0200
     32  C         18.0990  -21.8060   -4.7880 C.2     1  UNL1        0.1160
     33  N         19.0130  -20.8360   -4.9970 N.2     1  UNL1       -0.2720
     34  C         19.8710  -21.0190   -6.0310 C.2     1  UNL1        0.1310
@<TRIPOS>BOND
     1    16    15    1
     2    18    14    2
     3    15    14   am
     4    15    17    1
     5    14    12    1
     6    12    13    1
     7    12    11    2
     8    13     8    2
     9    11    10    1
    10     8     7    1
    11     8     9    1
    12    21    22    2
    13    21    20    1
    14     6     7    1
    15     6     1    1
    16    10     9    2
    17    22    23    1
    18    20    19    2
    19    27    25    1
    20    23    25    1
    21    23    24    2
    22    19    24    1
    23    19     5    1
    24    28    25    1
    25     1     5   ar
    26     1     2   ar
    27    25    26    1
    28     5     4   ar
    29     2     3   ar
    30     4     3   ar
    31     4    29    1
    32    29    30    2
    33    29    34    1
    34    30    31    1
    35    34    33    2
    36    31    32    2
    37    33    32    1
