@<TRIPOS>MOLECULE
42155_out_ligand_01.pdbqt
 34 37 0 0 0
SMALL
GASTEIGER

@<TRIPOS>ATOM
      1  C         21.7240  -23.1000   -8.7320 C.2     1  UNL1        0.0810
      2  C         21.6180  -24.4420   -9.0370 C.2     1  UNL1        0.0370
      3  C         20.3650  -24.8740   -8.5430 C.2     1  UNL1        0.0390
      4  C         19.7600  -23.7730   -7.9670 C.2     1  UNL1        0.0970
      5  O         20.5930  -22.6920   -8.0850 O.2     1  UNL1       -0.3140
      6  C         18.4090  -23.5510   -7.3100 C.3     1  UNL1        0.1610
      7  O         18.0410  -24.8490   -6.7940 O.3     1  UNL1       -0.3730
      8  H         17.0890  -24.8050   -6.6040 H       1  UNL1        0.2120
      9  C         17.3800  -23.1290   -8.3760 C.2     1  UNL1       -0.0130
     10  C         16.0950  -23.7010   -8.4330 C.2     1  UNL1        0.0110
     11  C         15.1770  -23.3160   -9.4140 C.2     1  UNL1        0.0010
     12  C         15.5290  -22.3550  -10.3620 C.2     1  UNL1        0.0000
     13  C         16.7980  -21.7820  -10.3300 C.2     1  UNL1        0.0010
     14  C         17.7150  -22.1660   -9.3490 C.2     1  UNL1        0.0110
     15  C         18.4170  -22.6240   -6.0750 C.2     1  UNL1       -0.0130
     16  C         19.0850  -21.3870   -6.0400 C.2     1  UNL1        0.0110
     17  C         19.0970  -20.6050   -4.8800 C.2     1  UNL1        0.0010
     18  C         18.4520  -21.0460   -3.7280 C.2     1  UNL1        0.0000
     19  C         17.7970  -22.2730   -3.7300 C.2     1  UNL1        0.0010
     20  C         17.7850  -23.0550   -4.8880 C.2     1  UNL1        0.0110
     21  C         22.7400  -22.0280   -8.9710 C.3     1  UNL1        0.3370
     22  N         23.2600  -21.8930  -10.3400 N.3     1  UNL1        0.0990
     23  C         22.3320  -22.3650  -11.3720 C.3     1  UNL1        0.2770
     24  C         21.6420  -21.1920  -12.1020 C.3     1  UNL1        0.0060
     25  C         22.1130  -21.1360  -13.5580 C.3     1  UNL1        0.0110
     26  C         20.1160  -21.3090  -12.0570 C.3     1  UNL1        0.0110
     27  C         24.6390  -22.3800  -10.4700 C.3     1  UNL1        0.3140
     28  C         25.4680  -21.5870  -11.4510 C.2     1  UNL1        0.0090
     29  C         26.1140  -20.4020  -11.0650 C.2     1  UNL1        0.0120
     30  C         26.8850  -19.6830  -11.9830 C.2     1  UNL1        0.0010
     31  C         27.0180  -20.1380  -13.2940 C.2     1  UNL1        0.0030
     32  C         26.3800  -21.3120  -13.6890 C.2     1  UNL1        0.0430
     33  C         25.6140  -22.0250  -12.7700 C.2     1  UNL1        0.1240
     34  F         24.9970  -23.1450  -13.1780 F       1  UNL1       -0.2050
@<TRIPOS>BOND
     1    32    31    2
     2    32    33    1
     3    25    24    1
     4    31    30    1
     5    34    33    1
     6    33    28    2
     7    24    26    1
     8    24    23    1
     9    30    29    2
    10    28    29    1
    11    28    27    1
    12    23    22    1
    13    27    22    1
    14    12    13    2
    15    12    11    1
    16    22    21    1
    17    13    14    1
    18    11    10    2
    19    14     9    2
    20     2     1    2
    21     2     3    1
    22    21     1    1
    23     1     5    1
    24     3     4    2
    25    10     9    1
    26     9     6    1
    27     5     4    1
    28     4     6    1
    29     6     7    1
    30     6    15    1
    31     7     8    1
    32    15    16    2
    33    15    20    1
    34    16    17    1
    35    20    19    2
    36    17    18    2
    37    19    18    1
