@<TRIPOS>MOLECULE
42175_out_ligand_01.pdbqt
 41 45 0 0 0
SMALL
GASTEIGER

@<TRIPOS>ATOM
      1  C         17.1290  -22.5250   -9.7430 C.2     1  UNL1        0.0810
      2  C         16.7660  -21.5360  -10.6640 C.2     1  UNL1        0.0270
      3  C         17.7460  -20.9430  -11.4650 C.2     1  UNL1        0.0320
      4  C         19.0810  -21.3440  -11.3610 C.2     1  UNL1        0.0460
      5  N         20.0810  -20.7290  -12.1240 N.pl3   1  UNL1       -0.3640
      6  C         21.3840  -21.1510  -12.0440 C.2     1  UNL1        0.1090
      7  C         21.8480  -22.0920  -11.2050 C.2     1  UNL1        0.0980
      8  C         20.8560  -22.7280  -10.2920 C.2     1  UNL1        0.2010
      9  O         21.1910  -23.5540   -9.4450 O.2     1  UNL1       -0.2860
     10  C         19.4280  -22.3330  -10.4240 C.2     1  UNL1        0.0430
     11  C         18.4560  -22.9400   -9.6230 C.2     1  UNL1        0.0430
     12  H         19.8140  -20.1310  -12.8990 H       1  UNL1        0.1650
     13  C         23.3010  -22.4220  -11.2380 C.2     1  UNL1        0.2570
     14  O         23.7110  -23.5500  -10.9770 O.2     1  UNL1       -0.2670
     15  N         24.1260  -21.3800  -11.5760 N.am    1  UNL1       -0.3480
     16  H         23.6850  -20.5160  -11.8910 H       1  UNL1        0.1630
     17  C         25.5300  -21.5680  -11.8880 C.3     1  UNL1        0.1140
     18  C         26.3150  -20.2890  -11.5910 C.3     1  UNL1        0.0370
     19  C         25.6820  -22.0160  -13.3310 C.2     1  UNL1       -0.0330
     20  C         26.5560  -23.0570  -13.6950 C.2     1  UNL1        0.0120
     21  C         26.6810  -23.4510  -15.0290 C.2     1  UNL1        0.0400
     22  C         25.9400  -22.8100  -16.0160 C.2     1  UNL1        0.1020
     23  C         25.1000  -21.7460  -15.6760 C.2     1  UNL1        0.1020
     24  O         26.0930  -23.2680  -17.2990 O.2     1  UNL1       -0.3460
     25  C         24.9640  -21.3590  -14.3430 C.2     1  UNL1        0.0490
     26  O         24.3710  -21.0410  -16.6000 O.2     1  UNL1       -0.3460
     27  C         24.8370  -21.2880  -17.9300 C.3     1  UNL1        0.2020
     28  C         25.0550  -22.7770  -18.1530 C.3     1  UNL1        0.2020
     29  S         15.8870  -23.2910   -8.7240 S.O2    1  UNL1        0.2630
     30  O         15.3170  -24.3770   -9.4900 O.2     1  UNL1       -0.2000
     31  O         15.0530  -22.2450   -8.1730 O.2     1  UNL1       -0.2000
     32  N         16.7980  -24.0000   -7.4950 N.pl3   1  UNL1       -0.2810
     33  H         17.6890  -24.3610   -7.8330 H       1  UNL1        0.1790
     34  C         16.7430  -23.4690   -6.1770 C.2     1  UNL1        0.0450
     35  C         15.7770  -23.9550   -5.2970 C.2     1  UNL1        0.0300
     36  C         15.7210  -23.4690   -3.9910 C.2     1  UNL1        0.0050
     37  C         16.6260  -22.4950   -3.5640 C.2     1  UNL1        0.0370
     38  C         17.5880  -21.9980   -4.4450 C.2     1  UNL1        0.0700
     39  C         17.6450  -22.4950   -5.7500 C.2     1  UNL1        0.0660
     40  O         18.5240  -21.0440   -4.1540 O.2     1  UNL1       -0.3560
     41  C         19.2700  -20.5210   -5.2460 C.3     1  UNL1        0.2100
@<TRIPOS>BOND
     1    28    27    1
     2    28    24    1
     3    27    26    1
     4    24    22    1
     5    26    23    1
     6    22    23    2
     7    22    21    1
     8    23    25    1
     9    21    20    2
    10    25    19    2
    11    20    19    1
    12    19    17    1
    13    12     5    1
    14     5     6    1
    15     5     4    1
    16     6     7    2
    17    16    15    1
    18    17    18    1
    19    17    15    1
    20    15    13   am
    21     3     4    2
    22     3     2    1
    23     4    10    1
    24    13     7    1
    25    13    14    2
    26     7     8    1
    27     2     1    2
    28    10     8    1
    29    10    11    2
    30     8     9    2
    31     1    11    1
    32     1    29    1
    33    30    29    2
    34    29    31    2
    35    29    32    1
    36    33    32    1
    37    32    34    1
    38    34    39    2
    39    34    35    1
    40    39    38    1
    41    35    36    2
    42    41    40    1
    43    38    40    1
    44    38    37    2
    45    36    37    1
