@<TRIPOS>MOLECULE
42180_out_ligand_01.pdbqt
 39 43 0 0 0
SMALL
GASTEIGER

@<TRIPOS>ATOM
      1  C         23.1680  -22.8970   -9.0900 C.2     1  UNL1        0.0810
      2  C         23.1260  -21.8110   -8.2430 C.2     1  UNL1        0.0370
      3  C         21.7820  -21.6840   -7.8240 C.2     1  UNL1        0.0390
      4  C         21.0670  -22.6960   -8.4450 C.2     1  UNL1        0.0970
      5  O         21.9240  -23.4440   -9.2100 O.2     1  UNL1       -0.3140
      6  C         24.2660  -23.5560   -9.8610 C.3     1  UNL1        0.3370
      7  N         24.6760  -22.7520  -11.0200 N.3     1  UNL1        0.1010
      8  C         23.8090  -22.9830  -12.1900 C.3     1  UNL1        0.3110
      9  C         24.4810  -23.0990  -13.5430 C.2     1  UNL1       -0.0280
     10  C         25.5140  -24.0210  -13.7600 C.2     1  UNL1        0.0090
     11  C         26.1310  -24.1150  -15.0080 C.2     1  UNL1        0.0030
     12  C         25.7290  -23.2850  -16.0570 C.2     1  UNL1        0.0370
     13  C         24.7120  -22.3530  -15.8610 C.2     1  UNL1        0.0680
     14  C         24.0960  -22.2660  -14.6060 C.2     1  UNL1        0.0450
     15  O         24.2300  -21.4790  -16.7950 O.2     1  UNL1       -0.3560
     16  C         25.1290  -20.4900  -17.2760 C.3     1  UNL1        0.2100
     17  C         24.8460  -21.3270  -10.6650 C.3     1  UNL1        0.3050
     18  C         26.1100  -20.6380  -11.2210 C.3     1  UNL1        0.1490
     19  C         25.9930  -20.1170  -12.6460 C.3     1  UNL1        0.0360
     20  C         27.1200  -19.1170  -12.6870 C.3     1  UNL1        0.0290
     21  C         27.0590  -18.5140  -11.2980 C.3     1  UNL1        0.1680
     22  O         26.5500  -19.5280  -10.4190 O.3     1  UNL1       -0.3840
     23  C         19.5970  -23.0860   -8.4000 C.3     1  UNL1        0.1610
     24  O         19.6160  -24.4860   -8.7500 O.3     1  UNL1       -0.3730
     25  H         19.0130  -24.9210   -8.1240 H       1  UNL1        0.2120
     26  C         18.9390  -22.9410   -7.0120 C.2     1  UNL1       -0.0100
     27  C         18.2390  -24.0180   -6.4240 C.2     1  UNL1        0.0110
     28  C         17.6480  -23.9050   -5.1610 C.2     1  UNL1        0.0040
     29  C         17.7540  -22.7160   -4.4490 C.2     1  UNL1        0.0420
     30  C         18.4580  -21.6550   -5.0010 C.2     1  UNL1        0.1170
     31  F         18.5730  -20.5110   -4.3140 F       1  UNL1       -0.2060
     32  C         19.0490  -21.7580   -6.2580 C.2     1  UNL1        0.0530
     33  C         18.7560  -22.3810   -9.4780 C.2     1  UNL1       -0.0100
     34  C         17.3460  -22.4140   -9.4710 C.2     1  UNL1        0.0110
     35  C         16.6000  -21.7880  -10.4760 C.2     1  UNL1        0.0040
     36  C         17.2500  -21.1270  -11.5140 C.2     1  UNL1        0.0420
     37  C         18.6370  -21.1010  -11.5430 C.2     1  UNL1        0.1170
     38  F         19.2620  -20.4710  -12.5460 F       1  UNL1       -0.2060
     39  C         19.3880  -21.7180  -10.5470 C.2     1  UNL1        0.0530
@<TRIPOS>BOND
     1    16    15    1
     2    15    13    1
     3    12    13    2
     4    12    11    1
     5    13    14    1
     6    11    10    2
     7    14     9    2
     8    10     9    1
     9     9     8    1
    10    20    19    1
    11    20    21    1
    12    19    18    1
    13    38    37    1
    14     8     7    1
    15    37    36    2
    16    37    39    1
    17    36    35    1
    18    21    22    1
    19    18    17    1
    20    18    22    1
    21     7    17    1
    22     7     6    1
    23    39    33    2
    24    35    34    2
    25     6     1    1
    26    33    34    1
    27    33    23    1
    28     5     1    1
    29     5     4    1
    30     1     2    2
    31    24    23    1
    32    24    25    1
    33     4    23    1
    34     4     3    2
    35    23    26    1
    36     2     3    1
    37    26    27    2
    38    26    32    1
    39    27    28    1
    40    32    30    2
    41    28    29    2
    42    30    29    1
    43    30    31    1
