@<TRIPOS>MOLECULE
42200_out_ligand_01.pdbqt
 36 39 0 0 0
SMALL
GASTEIGER

@<TRIPOS>ATOM
      1  C         21.3140  -22.4280  -11.2170 C.2     1  UNL1        0.0360
      2  C         20.2700  -21.6360  -11.6990 C.2     1  UNL1        0.0300
      3  C         18.9830  -21.7540  -11.1600 C.2     1  UNL1        0.0190
      4  C         18.7290  -22.6580  -10.1260 C.2     1  UNL1        0.0320
      5  C         19.7660  -23.4690   -9.6520 C.2     1  UNL1        0.0190
      6  C         21.0480  -23.3530  -10.1970 C.2     1  UNL1        0.0300
      7  N         22.6290  -22.3860  -11.7190 N.am    1  UNL1       -0.3090
      8  C         23.7270  -21.7570  -11.1670 C.2     1  UNL1        0.3270
      9  N         24.8880  -21.8060  -11.9550 N.am    1  UNL1       -0.2960
     10  O         23.7440  -21.2610  -10.0420 O.2     1  UNL1       -0.2460
     11  C         26.1750  -21.7670  -11.2600 C.3     1  UNL1        0.1440
     12  C         24.9460  -22.1740  -13.3350 C.2     1  UNL1        0.0800
     13  C         26.7330  -23.1720  -11.1150 C.3     1  UNL1        0.1010
     14  S         27.1150  -23.9020  -12.7370 S.3     1  UNL1       -0.1060
     15  C         25.8950  -23.1140  -13.7840 C.2     1  UNL1        0.1210
     16  N         25.9600  -23.5380  -15.0700 N.2     1  UNL1       -0.2440
     17  C         25.0990  -23.0150  -15.9660 C.2     1  UNL1        0.0320
     18  C         25.1950  -23.5050  -17.3790 C.3     1  UNL1        0.0700
     19  C         24.1710  -22.0440  -15.6220 C.2     1  UNL1        0.0350
     20  C         24.1030  -21.5840  -14.2990 C.2     1  UNL1       -0.0300
     21  C         23.1660  -20.4390  -14.0140 C.3     1  UNL1        0.0500
     22  H         22.8250  -22.9940  -12.5010 H       1  UNL1        0.1700
     23  C         17.3460  -22.7550   -9.5850 C.2     1  UNL1        0.2510
     24  O         16.4280  -22.1570  -10.1340 O.2     1  UNL1       -0.2680
     25  N         17.1940  -23.5170   -8.4440 N.am    1  UNL1       -0.3530
     26  H         18.0250  -23.7430   -7.9130 H       1  UNL1        0.1630
     27  C         15.9140  -23.5820   -7.7340 C.3     1  UNL1        0.0810
     28  C         15.4000  -22.1620   -7.5010 C.3     1  UNL1        0.0320
     29  C         16.1080  -24.3800   -6.4320 C.3     1  UNL1        0.0290
     30  C         17.5400  -24.3710   -5.8800 C.3     1  UNL1        0.0400
     31  C         18.0150  -23.0570   -5.3170 C.2     1  UNL1       -0.0580
     32  C         18.8190  -22.1980   -6.0790 C.2     1  UNL1        0.0070
     33  C         19.2630  -20.9860   -5.5480 C.2     1  UNL1        0.0010
     34  C         18.9140  -20.6220   -4.2490 C.2     1  UNL1        0.0000
     35  C         18.1250  -21.4730   -3.4780 C.2     1  UNL1        0.0010
     36  C         17.6800  -22.6860   -4.0060 C.2     1  UNL1        0.0070
@<TRIPOS>BOND
     1    18    17    1
     2    17    19    2
     3    17    16    1
     4    19    20    1
     5    16    15    2
     6    20    21    1
     7    20    12    2
     8    15    12    1
     9    15    14    1
    10    12     9    1
    11    14    13    1
    12    22     7    1
    13     9    11    1
    14     9     8   am
    15     7     1    1
    16     7     8   am
    17     2     1    2
    18     2     3    1
    19    11    13    1
    20     1     6    1
    21     8    10    2
    22     3     4    2
    23     6     5    2
    24    24    23    2
    25     4     5    1
    26     4    23    1
    27    23    25   am
    28    25    26    1
    29    25    27    1
    30    27    28    1
    31    27    29    1
    32    29    30    1
    33    32    33    1
    34    32    31    2
    35    30    31    1
    36    33    34    2
    37    31    36    1
    38    34    35    1
    39    36    35    2
