@<TRIPOS>MOLECULE
42229_out_ligand_01.pdbqt
 35 38 0 0 0
SMALL
GASTEIGER

@<TRIPOS>ATOM
      1  C         23.6240  -21.6900  -10.4860 C.ar    1  UNL1        0.1920
      2  N         24.8580  -21.2650  -10.6280 N.ar    1  UNL1       -0.1230
      3  N         25.0980  -21.1100  -11.9600 N.ar    1  UNL1       -0.1340
      4  C         23.9980  -21.4300  -12.6160 C.ar    1  UNL1        0.1360
      5  N         23.0300  -21.8050  -11.7090 N.ar    1  UNL1       -0.3110
      6  S         22.8430  -22.0260   -8.9850 S.3     1  UNL1       -0.0810
      7  C         22.5560  -23.8090   -9.1220 C.3     1  UNL1        0.1850
      8  C         21.1810  -24.2000   -8.6170 C.2     1  UNL1        0.2310
      9  N         20.5960  -23.2370   -7.8140 N.am    1  UNL1       -0.3270
     10  H         21.2210  -22.5080   -7.4670 H       1  UNL1        0.1690
     11  O         20.6780  -25.2740   -8.9410 O.2     1  UNL1       -0.2720
     12  C         19.2950  -23.2280   -7.2860 C.2     1  UNL1        0.0340
     13  C         18.4280  -24.3150   -7.3410 C.2     1  UNL1        0.0300
     14  C         17.1360  -24.2150   -6.8170 C.2     1  UNL1        0.0170
     15  C         16.6930  -23.0260   -6.2290 C.2     1  UNL1        0.0090
     16  C         17.5590  -21.9300   -6.1750 C.2     1  UNL1        0.0170
     17  C         18.8490  -22.0350   -6.7020 C.2     1  UNL1        0.0300
     18  C         15.2990  -22.9650   -5.6970 C.2     1  UNL1        0.1550
     19  C         14.8650  -23.9780   -4.6730 C.3     1  UNL1        0.0960
     20  O         14.5320  -22.0870   -6.0830 O.2     1  UNL1       -0.2930
     21  C         21.6630  -22.1860  -11.9970 C.3     1  UNL1        0.1370
     22  C         20.7230  -20.9810  -12.0010 C.3     1  UNL1        0.0590
     23  C         19.3590  -21.3400  -11.4670 C.2     1  UNL1       -0.0570
     24  C         19.1170  -22.6130  -10.9360 C.2     1  UNL1        0.0070
     25  C         17.8490  -22.9460  -10.4560 C.2     1  UNL1        0.0010
     26  C         16.8150  -22.0130  -10.5030 C.2     1  UNL1        0.0000
     27  C         17.0450  -20.7480  -11.0330 C.2     1  UNL1        0.0010
     28  C         18.3120  -20.4120  -11.5160 C.2     1  UNL1        0.0070
     29  C         23.8280  -21.3630  -14.0970 C.3     1  UNL1        0.1370
     30  C         24.7900  -22.2220  -14.8590 C.2     1  UNL1        0.0180
     31  C         25.2970  -23.4620  -14.5160 C.2     1  UNL1        0.0270
     32  C         26.1480  -23.8890  -15.5550 C.2     1  UNL1        0.0190
     33  C         26.1350  -22.9090  -16.5140 C.2     1  UNL1        0.0900
     34  N         25.3060  -21.9020  -16.0930 N.pl3   1  UNL1       -0.3640
     35  C         25.0340  -20.7110  -16.8650 C.3     1  UNL1        0.1550
@<TRIPOS>BOND
     1    35    34    1
     2    33    34    1
     3    33    32    2
     4    34    30    1
     5    32    31    1
     6    30    31    2
     7    30    29    1
     8    29     4    1
     9     4     3   ar
    10     4     5   ar
    11    22    21    1
    12    22    23    1
    13    21     5    1
    14     3     2   ar
    15     5     1   ar
    16    28    23    2
    17    28    27    1
    18    23    24    1
    19    27    26    2
    20    24    25    2
    21     2     1   ar
    22    26    25    1
    23     1     6    1
    24     7     6    1
    25     7     8    1
    26    11     8    2
    27     8     9   am
    28     9    10    1
    29     9    12    1
    30    13    12    2
    31    13    14    1
    32    12    17    1
    33    14    15    2
    34    17    16    2
    35    15    16    1
    36    15    18    1
    37    20    18    2
    38    18    19    1
