@<TRIPOS>MOLECULE
42237_out_ligand_01.pdbqt
 36 40 0 0 0
SMALL
GASTEIGER

@<TRIPOS>ATOM
      1  C         19.0970  -22.4600  -10.1630 C.2     1  UNL1        0.0340
      2  C         18.5380  -21.3700  -10.8470 C.2     1  UNL1        0.0170
      3  C         19.3060  -20.6690  -11.7780 C.2     1  UNL1        0.0030
      4  C         20.6300  -21.0440  -12.0220 C.2     1  UNL1        0.0290
      5  C         21.2080  -22.1120  -11.3230 C.2     1  UNL1        0.0360
      6  C         20.4360  -22.8110  -10.3840 C.2     1  UNL1        0.0460
      7  C         18.3070  -23.2650   -9.1870 C.2     1  UNL1        0.2510
      8  N         16.9620  -23.3720   -9.4550 N.am    1  UNL1       -0.3570
      9  H         16.5670  -22.8640  -10.2370 H       1  UNL1        0.1620
     10  O         18.8620  -23.8060   -8.2370 O.2     1  UNL1       -0.2680
     11  C         16.0160  -23.9560   -8.5190 C.3     1  UNL1        0.1270
     12  C         15.2660  -22.8820   -7.7210 C.3     1  UNL1        0.0600
     13  C         15.5400  -22.9420   -6.2420 C.2     1  UNL1       -0.0290
     14  C         14.7740  -23.5850   -5.2860 C.2     1  UNL1        0.0960
     15  N         15.3480  -23.3830   -4.0620 N.pl3   1  UNL1       -0.3650
     16  C         16.4870  -22.6170   -4.1890 C.2     1  UNL1        0.0430
     17  H         15.0050  -23.7600   -3.1870 H       1  UNL1        0.1650
     18  C         17.3830  -22.1560   -3.2120 C.2     1  UNL1        0.0310
     19  C         16.6500  -22.3380   -5.5480 C.2     1  UNL1       -0.0010
     20  C         18.5020  -21.4050   -3.6350 C.2     1  UNL1        0.0090
     21  C         18.7150  -21.1270   -4.9910 C.2     1  UNL1       -0.0610
     22  C         19.9260  -20.3380   -5.4030 C.3     1  UNL1        0.0480
     23  C         17.7840  -21.5780   -5.9480 C.2     1  UNL1        0.0210
     24  N         22.5380  -22.5280  -11.4970 N.am    1  UNL1       -0.3220
     25  C         23.6750  -22.0980  -10.8260 C.2     1  UNL1        0.2760
     26  O         23.7150  -21.2100   -9.9810 O.2     1  UNL1       -0.2660
     27  H         22.7200  -23.2360  -12.2110 H       1  UNL1        0.1690
     28  C         24.8940  -22.8240  -11.2580 C.ar    1  UNL1        0.1440
     29  N         25.7390  -23.2800  -10.3190 N.ar    1  UNL1       -0.2050
     30  S         27.0240  -24.0100  -11.0500 S.2     1  UNL1        0.0120
     31  C         26.4970  -23.7800  -12.6640 C.ar    1  UNL1        0.0360
     32  C         27.1210  -24.1660  -13.8610 C.2     1  UNL1        0.0210
     33  C         25.2760  -23.1020  -12.6340 C.ar    1  UNL1        0.0170
     34  C         26.4860  -23.8610  -15.0660 C.2     1  UNL1        0.0010
     35  C         25.2660  -23.1990  -15.0760 C.2     1  UNL1        0.0010
     36  C         24.6550  -22.8200  -13.8760 C.2     1  UNL1        0.0150
@<TRIPOS>BOND
     1    35    34    2
     2    35    36    1
     3    34    32    1
     4    36    33    2
     5    32    31    2
     6    31    33   ar
     7    31    30   ar
     8    33    28   ar
     9    27    24    1
    10     4     3    2
    11     4     5    1
    12     3     2    1
    13    24     5    1
    14    24    25   am
    15     5     6    2
    16    28    25    1
    17    28    29   ar
    18    30    29   ar
    19     2     1    2
    20    25    26    2
    21     6     1    1
    22     9     8    1
    23     1     7    1
    24     8     7   am
    25     8    11    1
    26     7    10    2
    27    11    12    1
    28    12    13    1
    29    13    19    1
    30    13    14    2
    31    23    19    1
    32    23    21    2
    33    19    16    2
    34    22    21    1
    35    14    15    1
    36    21    20    1
    37    16    15    1
    38    16    18    1
    39    15    17    1
    40    20    18    2
