@<TRIPOS>MOLECULE
42257_out_ligand_01.pdbqt
 33 36 0 0 0
SMALL
GASTEIGER

@<TRIPOS>ATOM
      1  C         19.0570  -22.7960  -10.1140 C.2     1  UNL1       -0.0040
      2  C         18.9230  -21.6680  -11.1320 C.2     1  UNL1        0.0580
      3  C         17.5890  -20.9590  -11.2580 C.3     1  UNL1        0.0720
      4  N         19.8700  -21.2520  -11.9210 N.2     1  UNL1       -0.0650
      5  C         21.0920  -21.8350  -11.7720 C.cat   1  UNL1        0.7520
      6  N         22.2040  -21.6000  -12.4320 N.2     1  UNL1       -0.0330
      7  C         23.1240  -22.3510  -11.7810 C.2     1  UNL1        0.2270
      8  N         22.6510  -23.1250  -10.8000 N.pl3   1  UNL1       -0.1240
      9  N         21.3340  -22.8090  -10.7970 N.pl3   1  UNL1       -0.0610
     10  C         20.3040  -23.3220   -9.9980 C.3     1  UNL1        0.0590
     11  C         20.6940  -24.4530   -9.0810 C.3     1  UNL1        0.0720
     12  S         24.8230  -22.3120  -12.1390 S.3     1  UNL1       -0.0790
     13  C         24.8480  -22.8970  -13.8550 C.3     1  UNL1        0.1850
     14  C         24.7520  -21.7500  -14.8540 C.2     1  UNL1        0.2310
     15  O         23.7190  -21.5510  -15.4910 O.2     1  UNL1       -0.2720
     16  N         25.9030  -20.9830  -14.8990 N.am    1  UNL1       -0.3270
     17  H         26.7310  -21.4090  -14.4940 H       1  UNL1        0.1690
     18  C         26.1250  -19.7940  -15.6170 C.2     1  UNL1        0.0340
     19  C         26.4170  -18.6570  -14.8580 C.2     1  UNL1        0.0310
     20  C         26.6420  -17.4210  -15.4690 C.2     1  UNL1        0.0210
     21  C         26.5830  -17.3270  -16.8530 C.2     1  UNL1        0.0110
     22 BR         26.9160  -15.6680  -17.6930 Br      1  UNL1       -0.0510
     23  C         26.3040  -18.4510  -17.6220 C.2     1  UNL1        0.0210
     24  C         26.0630  -19.6810  -17.0020 C.2     1  UNL1        0.0310
     25  C         17.8240  -23.2900   -9.3910 C.3     1  UNL1        0.0820
     26  C         17.7720  -22.9840   -7.9000 C.2     1  UNL1       -0.0470
     27  C         16.9450  -23.7130   -7.0180 C.2     1  UNL1       -0.0550
     28  C         16.9820  -23.4260   -5.6380 C.2     1  UNL1        0.0080
     29  C         16.0300  -24.8120   -7.4950 C.3     1  UNL1        0.0490
     30  C         17.8280  -22.4410   -5.1310 C.2     1  UNL1        0.0070
     31  C         18.6590  -21.7190   -5.9910 C.2     1  UNL1       -0.0610
     32  C         19.6190  -20.6960   -5.4560 C.3     1  UNL1        0.0480
     33  C         18.6330  -22.0050   -7.3560 C.2     1  UNL1        0.0140
@<TRIPOS>BOND
     1    22    21    1
     2    23    24    1
     3    23    21    2
     4    24    18    2
     5    21    20    1
     6    18    16    1
     7    18    19    1
     8    15    14    2
     9    20    19    2
    10    16    14   am
    11    16    17    1
    12    14    13    1
    13    13    12    1
    14     6     7    2
    15     6     5    1
    16    12     7    1
    17     4     5    2
    18     4     2    1
    19     7     8    1
    20     5     9    1
    21     3     2    1
    22     2     1    2
    23     8     9    1
    24     9    10    1
    25     1    10    1
    26     1    25    1
    27    10    11    1
    28    25    26    1
    29    26    33    2
    30    26    27    1
    31    29    27    1
    32    33    31    1
    33    27    28    2
    34    31    32    1
    35    31    30    2
    36    28    30    1
