@<TRIPOS>MOLECULE
42286_out_ligand_01.pdbqt
 32 35 0 0 0
SMALL
GASTEIGER

@<TRIPOS>ATOM
      1  C         22.4170  -22.4780  -11.0370 C.2     1  UNL1        0.2560
      2  N         22.3500  -22.8760   -9.7260 N.2     1  UNL1       -0.0330
      3  C         21.0980  -22.6780   -9.3880 C.cat   1  UNL1        0.7520
      4  N         20.4870  -22.9080   -8.1920 N.2     1  UNL1       -0.0600
      5  C         19.2170  -22.6330   -8.1080 C.2     1  UNL1        0.0880
      6  C         18.4050  -22.0570   -9.2280 C.2     1  UNL1        0.0700
      7  C         19.0540  -21.8480  -10.3910 C.2     1  UNL1        0.1620
      8  N         20.4020  -22.1600  -10.4840 N.pl3   1  UNL1       -0.0530
      9  N         21.2450  -22.0360  -11.5390 N.pl3   1  UNL1       -0.1260
     10  C         23.6560  -22.5230  -11.8510 C.2     1  UNL1        0.2960
     11  N         23.5480  -21.7400  -12.9920 N.am    1  UNL1       -0.3200
     12  H         22.6440  -21.2840  -13.0930 H       1  UNL1        0.1690
     13  O         24.6330  -23.1890  -11.5250 O.2     1  UNL1       -0.2640
     14  C         24.5020  -21.5260  -14.0020 C.2     1  UNL1        0.0360
     15  C         25.5720  -20.6770  -13.6930 C.2     1  UNL1        0.0290
     16  C         26.5650  -20.4160  -14.6390 C.2     1  UNL1        0.0040
     17  C         26.4900  -20.9980  -15.9030 C.2     1  UNL1        0.0180
     18  C         25.4240  -21.8420  -16.2340 C.2     1  UNL1        0.0020
     19  C         24.4420  -22.1110  -15.2710 C.2     1  UNL1        0.0480
     20  S         25.4140  -22.5640  -17.8700 S.3     1  UNL1       -0.1340
     21  C         23.8130  -23.4180  -17.8820 C.3     1  UNL1        0.0950
     22  C         18.4230  -21.2820  -11.6030 C.3     1  UNL1        0.4350
     23  F         17.2420  -20.6710  -11.3120 F       1  UNL1       -0.1650
     24  F         19.1940  -20.3430  -12.2020 F       1  UNL1       -0.1650
     25  F         18.1360  -22.2300  -12.5280 F       1  UNL1       -0.1650
     26  C         18.5080  -22.8750   -6.8170 C.2     1  UNL1       -0.0070
     27  C         17.7510  -24.0450   -6.6800 C.2     1  UNL1        0.0140
     28  C         17.0720  -24.3110   -5.4890 C.2     1  UNL1        0.0070
     29  C         17.1400  -23.4130   -4.4190 C.2     1  UNL1       -0.0620
     30  C         16.3790  -23.6810   -3.1540 C.3     1  UNL1        0.0480
     31  C         17.8700  -22.2280   -4.5690 C.2     1  UNL1        0.0070
     32  C         18.5530  -21.9580   -5.7610 C.2     1  UNL1        0.0140
@<TRIPOS>BOND
     1    21    20    1
     2    20    18    1
     3    18    17    2
     4    18    19    1
     5    17    16    1
     6    19    14    2
     7    16    15    2
     8    14    15    1
     9    14    11    1
    10    12    11    1
    11    11    10   am
    12    25    22    1
    13    24    22    1
    14    10    13    2
    15    10     1    1
    16    22    23    1
    17    22     7    1
    18     9     1    1
    19     9     8    1
    20     1     2    2
    21     8     7    1
    22     8     3    1
    23     7     6    2
    24     2     3    2
    25     3     4    1
    26     6     5    1
    27     4     5    2
    28     5    26    1
    29    26    27    2
    30    26    32    1
    31    27    28    1
    32    32    31    2
    33    28    29    2
    34    31    29    1
    35    29    30    1
