@<TRIPOS>MOLECULE
42333_out_ligand_01.pdbqt
 32 35 0 0 0
SMALL
GASTEIGER

@<TRIPOS>ATOM
      1  C         21.1250  -21.1030  -12.9820 C.3     1  UNL1        0.0500
      2  C         20.5190  -21.6600  -11.7190 C.2     1  UNL1       -0.0350
      3  C         19.1830  -21.3370  -11.4240 C.2     1  UNL1        0.0100
      4  C         18.5680  -21.8210  -10.2720 C.2     1  UNL1        0.0170
      5  C         19.2890  -22.6370   -9.3970 C.2     1  UNL1        0.0340
      6  C         20.6160  -22.9800   -9.6870 C.2     1  UNL1        0.0470
      7  C         21.2470  -22.4930  -10.8380 C.2     1  UNL1        0.0420
      8  N         22.5830  -22.8060  -11.1600 N.am    1  UNL1       -0.3210
      9  C         23.7550  -22.2320  -10.6930 C.2     1  UNL1        0.2760
     10  O         23.8340  -21.2990   -9.9030 O.2     1  UNL1       -0.2660
     11  H         22.7520  -23.5480  -11.8330 H       1  UNL1        0.1690
     12  C         24.9590  -22.8690  -11.2760 C.ar    1  UNL1        0.1440
     13  N         25.8920  -23.3650  -10.4460 N.ar    1  UNL1       -0.2050
     14  S         27.1210  -24.0160  -11.3300 S.2     1  UNL1        0.0120
     15  C         26.4630  -23.6660  -12.8750 C.ar    1  UNL1        0.0360
     16  C         26.9920  -23.9460  -14.1470 C.2     1  UNL1        0.0210
     17  C         25.2390  -23.0170  -12.6950 C.ar    1  UNL1        0.0170
     18  C         26.2610  -23.5570  -15.2710 C.2     1  UNL1        0.0010
     19  C         25.0400  -22.9090  -15.1300 C.2     1  UNL1        0.0010
     20  C         24.5240  -22.6370  -13.8590 C.2     1  UNL1        0.0150
     21  C         18.6650  -23.1840   -8.1640 C.2     1  UNL1        0.2520
     22  O         18.7990  -24.3670   -7.8790 O.2     1  UNL1       -0.2680
     23  N         17.9650  -22.2790   -7.3910 N.am    1  UNL1       -0.3520
     24  H         17.8970  -21.3180   -7.6930 H       1  UNL1        0.1630
     25  C         17.2150  -22.6910   -6.2040 C.3     1  UNL1        0.0840
     26  C         17.5950  -21.8060   -5.0070 C.3     1  UNL1        0.0250
     27  C         18.1420  -22.5870   -3.8110 C.3     1  UNL1        0.0020
     28  C         17.3720  -23.8340   -3.3720 C.3     1  UNL1        0.0000
     29  C         15.8660  -23.6590   -3.1790 C.3     1  UNL1        0.0000
     30  C         15.0110  -23.9900   -4.4090 C.3     1  UNL1        0.0000
     31  C         14.7440  -22.8130   -5.3460 C.3     1  UNL1        0.0020
     32  C         15.7120  -22.6570   -6.5210 C.3     1  UNL1        0.0250
@<TRIPOS>BOND
     1    18    19    2
     2    18    16    1
     3    19    20    1
     4    16    15    2
     5    20    17    2
     6     1     2    1
     7    15    17   ar
     8    15    14   ar
     9    17    12   ar
    10    11     8    1
    11     2     3    2
    12     2     7    1
    13     3     4    1
    14    14    13   ar
    15    12     9    1
    16    12    13   ar
    17     8     7    1
    18     8     9   am
    19     7     6    2
    20     9    10    2
    21     4     5    2
    22     6     5    1
    23     5    21    1
    24    21    22    2
    25    21    23   am
    26    24    23    1
    27    23    25    1
    28    32    25    1
    29    32    31    1
    30    25    26    1
    31    31    30    1
    32    26    27    1
    33    30    29    1
    34    27    28    1
    35    28    29    1
