@<TRIPOS>MOLECULE
42340_out_ligand_01.pdbqt
 31 35 0 0 0
SMALL
GASTEIGER

@<TRIPOS>ATOM
      1  C         21.0870  -22.2150  -10.5340 C.2     1  UNL1        0.0340
      2  C         20.5330  -21.6040  -11.6550 C.2     1  UNL1        0.0180
      3  C         19.1490  -21.4970  -11.7580 C.2     1  UNL1        0.0220
      4  C         18.3060  -21.9910  -10.7450 C.2     1  UNL1        0.0270
      5  C         18.8430  -22.6000   -9.5780 C.2     1  UNL1        0.0480
      6  C         20.2480  -22.6930   -9.5110 C.2     1  UNL1        0.0470
      7  N         18.0170  -23.1150   -8.5580 N.pl3   1  UNL1       -0.3750
      8  C         16.7490  -22.3820   -8.3890 C.3     1  UNL1        0.1340
      9  C         15.8570  -22.5890   -9.6030 C.3     1  UNL1        0.0990
     10  S         16.5480  -21.7600  -11.0580 S.3     1  UNL1       -0.1260
     11  C         22.5590  -22.3560  -10.3570 C.2     1  UNL1        0.2520
     12  O         23.0220  -22.6220   -9.2540 O.2     1  UNL1       -0.2680
     13  N         23.3280  -22.1990  -11.4870 N.am    1  UNL1       -0.3480
     14  H         22.9010  -22.0240  -12.3840 H       1  UNL1        0.1630
     15  C         24.7830  -22.2640  -11.4420 C.3     1  UNL1        0.1180
     16  C         25.3370  -20.8710  -11.0970 C.3     1  UNL1        0.0300
     17  C         26.8350  -20.7960  -11.3510 C.3     1  UNL1        0.0070
     18  C         27.1210  -21.0060  -12.8350 C.3     1  UNL1        0.0390
     19  C         26.4460  -22.2360  -13.3880 C.2     1  UNL1       -0.0500
     20  C         26.9230  -22.7850  -14.5890 C.2     1  UNL1        0.0070
     21  C         25.3350  -22.8210  -12.7470 C.2     1  UNL1       -0.0290
     22  C         26.3350  -23.9260  -15.1340 C.2     1  UNL1        0.0010
     23  C         25.2660  -24.5330  -14.4840 C.2     1  UNL1        0.0010
     24  C         24.7740  -23.9900  -13.2970 C.2     1  UNL1        0.0100
     25  C         18.5970  -23.7260   -7.3530 C.3     1  UNL1        0.1610
     26  C         18.5360  -22.7980   -6.1530 C.2     1  UNL1       -0.0400
     27  C         17.7920  -23.1540   -5.0170 C.2     1  UNL1        0.0090
     28  C         17.7440  -22.3100   -3.9070 C.2     1  UNL1        0.0010
     29  C         18.4430  -21.1050   -3.9180 C.2     1  UNL1        0.0000
     30  C         19.1930  -20.7440   -5.0360 C.2     1  UNL1        0.0010
     31  C         19.2430  -21.5870   -6.1480 C.2     1  UNL1        0.0090
@<TRIPOS>BOND
     1    22    20    1
     2    22    23    2
     3    20    19    2
     4    23    24    1
     5    19    18    1
     6    19    21    1
     7    24    21    2
     8    18    17    1
     9    21    15    1
    10    14    13    1
    11     3     2    1
    12     3     4    2
    13     2     1    2
    14    13    15    1
    15    13    11   am
    16    15    16    1
    17    17    16    1
    18    10     4    1
    19    10     9    1
    20     4     5    1
    21     1    11    1
    22     1     6    1
    23    11    12    2
    24     9     8    1
    25     5     6    2
    26     5     7    1
    27     7     8    1
    28     7    25    1
    29    25    26    1
    30    26    31    2
    31    26    27    1
    32    31    30    1
    33    30    29    2
    34    27    28    2
    35    29    28    1
