@<TRIPOS>MOLECULE
42343_out_ligand_01.pdbqt
 35 38 0 0 0
SMALL
GASTEIGER

@<TRIPOS>ATOM
      1  C         23.1590  -22.1060  -10.7520 C.ar    1  UNL1        0.1710
      2  N         22.1730  -21.4610  -11.2790 N.ar    1  UNL1       -0.2060
      3  C         20.9260  -21.9240  -10.9820 C.ar    1  UNL1        0.1450
      4  C         20.6530  -22.9640  -10.1860 C.ar    1  UNL1        0.0700
      5  C         21.8010  -23.6970   -9.6240 C.ar    1  UNL1        0.2580
      6  O         21.6630  -24.6970   -8.9330 O.2     1  UNL1       -0.2670
      7  N         23.0200  -23.1830   -9.9390 N.ar    1  UNL1       -0.3020
      8  C         19.2550  -23.3700   -9.8420 C.3     1  UNL1        0.1290
      9  C         18.2100  -22.8430  -10.8270 C.3     1  UNL1        0.1220
     10  C         18.5750  -21.5150  -11.4530 C.2     1  UNL1        0.2240
     11  O         17.7300  -20.7620  -11.9270 O.2     1  UNL1       -0.2730
     12  N         19.9040  -21.2050  -11.5190 N.am    1  UNL1       -0.3110
     13  H         23.8400  -23.6480   -9.5780 H       1  UNL1        0.1710
     14  H         20.1490  -20.3750  -12.0470 H       1  UNL1        0.1700
     15  C         18.9110  -22.9370   -8.4070 C.2     1  UNL1        0.2310
     16  O         19.5410  -22.0250   -7.8780 O.2     1  UNL1       -0.2720
     17  N         17.9040  -23.6830   -7.8090 N.am    1  UNL1       -0.3260
     18  H         17.5230  -24.4460   -8.3500 H       1  UNL1        0.1690
     19  C         17.3380  -23.5180   -6.5180 C.2     1  UNL1        0.0420
     20  C         17.9790  -23.9930   -5.3650 C.2     1  UNL1        0.0300
     21  C         17.4230  -23.7980   -4.1000 C.2     1  UNL1        0.0040
     22  C         16.2180  -23.1210   -3.9700 C.2     1  UNL1        0.0240
     23  C         15.5610  -22.6410   -5.1040 C.2     1  UNL1        0.0420
     24 CL         14.0750  -21.7950   -4.8310 Cl      1  UNL1       -0.0840
     25  C         16.0980  -22.8380   -6.3950 C.2     1  UNL1       -0.0130
     26  C         15.3800  -22.3280   -7.6230 C.3     1  UNL1        0.0520
     27  S         24.8220  -21.6880  -11.0010 S.3     1  UNL1       -0.0870
     28  C         25.4340  -23.2140  -11.7700 C.3     1  UNL1        0.1210
     29  C         25.1940  -23.2120  -13.2580 C.2     1  UNL1       -0.0490
     30  C         24.7040  -22.0670  -13.9020 C.2     1  UNL1        0.0080
     31  C         24.4700  -22.0710  -15.2790 C.2     1  UNL1        0.0070
     32  C         24.7270  -23.2170  -16.0400 C.2     1  UNL1       -0.0620
     33  C         24.4430  -23.2330  -17.5120 C.3     1  UNL1        0.0480
     34  C         25.1960  -24.3690  -15.3970 C.2     1  UNL1        0.0070
     35  C         25.4300  -24.3660  -14.0190 C.2     1  UNL1        0.0080
@<TRIPOS>BOND
     1    33    32    1
     2    32    34    2
     3    32    31    1
     4    34    35    1
     5    31    30    2
     6    35    29    2
     7    30    29    1
     8    29    28    1
     9    14    12    1
    10    11    10    2
    11    28    27    1
    12    12    10   am
    13    12     3    1
    14    10     9    1
    15     2     3   ar
    16     2     1   ar
    17    27     1    1
    18     3     4   ar
    19     9     8    1
    20     1     7   ar
    21     4     8    1
    22     4     5   ar
    23     7     5   ar
    24     7    13    1
    25     8    15    1
    26     5     6    2
    27    15    16    2
    28    15    17   am
    29    18    17    1
    30    17    19    1
    31    26    25    1
    32    19    25    2
    33    19    20    1
    34    25    23    1
    35    20    21    2
    36    23    24    1
    37    23    22    2
    38    21    22    1
