@<TRIPOS>MOLECULE
42359_out_ligand_01.pdbqt
 29 31 0 0 0
SMALL
GASTEIGER

@<TRIPOS>ATOM
      1  C         19.1440  -23.1960   -7.2670 C.2     1  UNL1       -0.0050
      2  C         19.4790  -24.2770   -8.1000 C.2     1  UNL1        0.0150
      3  C         20.7140  -24.3300   -8.7580 C.2     1  UNL1        0.0180
      4  C         21.6420  -23.2970   -8.5860 C.2     1  UNL1        0.0320
      5  C         21.3070  -22.1980   -7.7880 C.2     1  UNL1        0.0180
      6  C         20.0700  -22.1470   -7.1390 C.2     1  UNL1        0.0150
      7  C         17.8400  -23.1580   -6.5800 C.2     1  UNL1        0.0930
      8  N         17.8620  -23.7500   -5.3530 N.2     1  UNL1       -0.2580
      9  C         16.7060  -23.7910   -4.6610 C.2     1  UNL1        0.1170
     10  C         15.5180  -23.2630   -5.1270 C.2     1  UNL1        0.0220
     11  C         15.5100  -22.6420   -6.3750 C.2     1  UNL1        0.0330
     12  C         16.6810  -22.5670   -7.1310 C.2     1  UNL1        0.0640
     13  N         16.7470  -21.9000   -8.3830 N.am    1  UNL1       -0.3250
     14  C         16.5150  -22.4280   -9.6420 C.2     1  UNL1        0.2210
     15  O         16.2390  -23.5920   -9.9020 O.2     1  UNL1       -0.2730
     16  H         16.9710  -20.9130   -8.3470 H       1  UNL1        0.1690
     17  C         16.6510  -21.3640  -10.7210 C.3     1  UNL1        0.0980
     18  C         18.0200  -21.3660  -11.3760 C.3     1  UNL1        0.0140
     19  C         22.9730  -23.3070   -9.2610 C.2     1  UNL1        0.2560
     20  O         23.8410  -24.0510   -8.8190 O.2     1  UNL1       -0.2670
     21  N         23.0740  -22.4930  -10.3750 N.am    1  UNL1       -0.3230
     22  H         22.2240  -22.0560  -10.7050 H       1  UNL1        0.1690
     23  C         24.2170  -22.2780  -11.1750 C.2     1  UNL1        0.0370
     24  C         25.2310  -21.3650  -10.8620 C.2     1  UNL1        0.0290
     25  C         26.3320  -21.2010  -11.7110 C.2     1  UNL1        0.0050
     26  C         26.4290  -21.9490  -12.8810 C.2     1  UNL1        0.0420
     27  C         25.4200  -22.8490  -13.1940 C.2     1  UNL1        0.1180
     28  F         25.5050  -23.5710  -14.3210 F       1  UNL1       -0.2060
     29  C         24.3200  -23.0190  -12.3570 C.2     1  UNL1        0.0710
@<TRIPOS>BOND
     1    28    27    1
     2    27    26    2
     3    27    29    1
     4    26    25    1
     5    29    23    2
     6    25    24    2
     7    18    17    1
     8    23    24    1
     9    23    21    1
    10    17    14    1
    11    22    21    1
    12    21    19   am
    13    15    14    2
    14    14    13   am
    15    19    20    2
    16    19     4    1
    17     3     4    2
    18     3     2    1
    19     4     5    1
    20    13    16    1
    21    13    12    1
    22     2     1    2
    23     5     6    2
    24     1     6    1
    25     1     7    1
    26    12     7    2
    27    12    11    1
    28     7     8    1
    29    11    10    2
    30     8     9    2
    31    10     9    1
