@<TRIPOS>MOLECULE
42350_out_ligand_01.pdbqt
 32 34 0 0 0
SMALL
GASTEIGER

@<TRIPOS>ATOM
      1  C         20.7420  -23.4060   -8.3150 C.2     1  UNL1        0.0800
      2  C         20.9680  -22.2440   -7.5660 C.2     1  UNL1        0.0370
      3  C         22.1450  -21.5190   -7.7500 C.2     1  UNL1        0.0050
      4  C         23.0940  -21.9600   -8.6790 C.2     1  UNL1        0.0300
      5  C         22.8620  -23.1180   -9.4330 C.2     1  UNL1        0.0450
      6  C         21.7040  -23.8680   -9.2200 C.2     1  UNL1        0.0670
      7  O         19.5890  -24.1160   -8.0700 O.2     1  UNL1       -0.2910
      8  C         18.4040  -23.5640   -8.5610 C.2     1  UNL1        0.1850
      9  N         18.3470  -23.2820   -9.8960 N.2     1  UNL1       -0.2360
     10  C         17.2130  -22.7140  -10.3620 C.2     1  UNL1        0.1190
     11  C         16.1320  -22.3960   -9.5620 C.2     1  UNL1        0.0200
     12  C         16.2180  -22.6770   -8.1990 C.2     1  UNL1        0.0230
     13  C         17.3720  -23.2750   -7.6670 C.2     1  UNL1        0.0850
     14  C         17.3940  -23.5430   -6.1990 C.2     1  UNL1        0.2560
     15  N         17.4530  -22.4680   -5.3340 N.am    1  UNL1       -0.3530
     16  H         17.5750  -21.5370   -5.7130 H       1  UNL1        0.1630
     17  O         17.3750  -24.7060   -5.7990 O.2     1  UNL1       -0.2680
     18  C         17.5810  -22.6420   -3.8940 C.3     1  UNL1        0.0760
     19  C         16.2020  -22.6330   -3.2400 C.3     1  UNL1        0.0320
     20  C         18.4670  -21.5510   -3.2990 C.3     1  UNL1        0.0320
     21  N         23.8780  -23.5440  -10.3240 N.pl3   1  UNL1       -0.2810
     22  H         23.8290  -24.4660  -10.7510 H       1  UNL1        0.1790
     23  S         25.0320  -22.5100  -10.9480 S.O2    1  UNL1        0.2630
     24  O         24.5600  -21.1710  -10.6550 O.2     1  UNL1       -0.2000
     25  O         26.3560  -22.9310  -10.5520 O.2     1  UNL1       -0.2000
     26  C         24.8750  -22.7570  -12.7020 C.2     1  UNL1        0.0800
     27  C         24.2850  -21.7670  -13.5000 C.2     1  UNL1        0.0270
     28  C         24.2090  -21.9500  -14.8820 C.2     1  UNL1        0.0250
     29  C         24.7260  -23.1130  -15.4580 C.2     1  UNL1        0.0340
     30 CL         24.6430  -23.3280  -17.1670 Cl      1  UNL1       -0.0840
     31  C         25.3230  -24.0930  -14.6650 C.2     1  UNL1        0.0250
     32  C         25.4050  -23.9150  -13.2820 C.2     1  UNL1        0.0270
@<TRIPOS>BOND
     1    30    29    1
     2    29    28    2
     3    29    31    1
     4    28    27    1
     5    31    32    2
     6    27    26    2
     7    32    26    1
     8    26    23    1
     9    23    24    2
    10    23    25    2
    11    23    21    1
    12    22    21    1
    13    10     9    1
    14    10    11    2
    15    21     5    1
    16     9     8    2
    17    11    12    1
    18     5     6    1
    19     5     4    2
    20     6     1    2
    21     4     3    1
    22     8     7    1
    23     8    13    1
    24     1     7    1
    25     1     2    1
    26    12    13    2
    27     3     2    2
    28    13    14    1
    29    14    17    2
    30    14    15   am
    31    16    15    1
    32    15    18    1
    33    18    20    1
    34    18    19    1
