@<TRIPOS>MOLECULE
42377_out_ligand_01.pdbqt
 35 39 0 0 0
SMALL
GASTEIGER

@<TRIPOS>ATOM
      1  S         16.0370  -23.3370   -9.5540 S.3     1  UNL1       -0.0870
      2  C         16.0490  -23.1880   -7.8280 C.ar    1  UNL1        0.1700
      3  N         17.0080  -23.7540   -7.0240 N.ar    1  UNL1       -0.3190
      4  C         16.6980  -23.4130   -5.7220 C.ar    1  UNL1        0.0830
      5  C         17.2880  -23.6800   -4.4950 C.2     1  UNL1        0.1480
      6  C         15.5310  -22.6630   -5.8250 C.ar    1  UNL1        0.0890
      7  N         16.7090  -23.1820   -3.3740 N.2     1  UNL1       -0.2710
      8  C         15.5730  -22.4520   -3.4800 C.2     1  UNL1        0.1180
      9  C         14.9310  -22.1550   -4.6720 C.2     1  UNL1        0.0530
     10  N         15.1430  -22.5390   -7.1350 N.ar    1  UNL1       -0.2220
     11  C         18.1660  -24.5390   -7.4280 C.3     1  UNL1        0.1700
     12  C         19.3970  -23.6870   -7.6310 C.2     1  UNL1       -0.0390
     13  C         19.4600  -22.3670   -7.1580 C.2     1  UNL1        0.0090
     14  C         20.6030  -21.5940   -7.3620 C.2     1  UNL1        0.0010
     15  C         21.7030  -22.1310   -8.0280 C.2     1  UNL1        0.0070
     16  C         21.6770  -23.4550   -8.4780 C.2     1  UNL1       -0.0610
     17  C         22.8530  -24.0300   -9.2120 C.3     1  UNL1        0.0480
     18  C         20.5200  -24.2220   -8.2830 C.2     1  UNL1        0.0150
     19  C         16.4670  -21.6330  -10.0270 C.3     1  UNL1        0.1210
     20  C         17.8280  -21.5670  -10.6800 C.2     1  UNL1       -0.0480
     21  C         18.6160  -22.7170  -10.7960 C.2     1  UNL1        0.0090
     22  C         19.8850  -22.6530  -11.3770 C.2     1  UNL1        0.0170
     23  C         20.3640  -21.4380  -11.8720 C.2     1  UNL1        0.0320
     24  C         19.5790  -20.2830  -11.7780 C.2     1  UNL1        0.0170
     25  C         18.3160  -20.3510  -11.1850 C.2     1  UNL1        0.0090
     26  C         21.7310  -21.3860  -12.4430 C.2     1  UNL1        0.2520
     27  O         21.8970  -21.0310  -13.6060 O.2     1  UNL1       -0.2680
     28  N         22.7470  -21.7510  -11.5860 N.am    1  UNL1       -0.3520
     29  H         22.5240  -22.0030  -10.6290 H       1  UNL1        0.1630
     30  C         24.1210  -21.8960  -12.0430 C.3     1  UNL1        0.0840
     31  C         25.1110  -21.4550  -10.9500 C.3     1  UNL1        0.0250
     32  C         26.4690  -22.1530  -11.0410 C.3     1  UNL1        0.0020
     33  C         26.8130  -22.5320  -12.4750 C.3     1  UNL1        0.0000
     34  C         25.7960  -23.5130  -13.0570 C.3     1  UNL1        0.0020
     35  C         24.3810  -23.3340  -12.5000 C.3     1  UNL1        0.0250
@<TRIPOS>BOND
     1    27    26    2
     2    34    35    1
     3    34    33    1
     4    35    30    1
     5    33    32    1
     6    26    23    1
     7    26    28   am
     8    30    28    1
     9    30    31    1
    10    23    24    2
    11    23    22    1
    12    24    25    1
    13    28    29    1
    14    22    21    2
    15    25    20    2
    16    32    31    1
    17    21    20    1
    18    20    19    1
    19    19     1    1
    20     1     2    1
    21    17    16    1
    22    16    18    1
    23    16    15    2
    24    18    12    2
    25    15    14    1
    26     2    10   ar
    27     2     3   ar
    28    12    11    1
    29    12    13    1
    30    11     3    1
    31    14    13    2
    32    10     6   ar
    33     3     4   ar
    34     6     4   ar
    35     6     9    1
    36     4     5    1
    37     9     8    2
    38     5     7    2
    39     8     7    1
