@<TRIPOS>MOLECULE
42386_out_ligand_01.pdbqt
 31 34 0 0 0
SMALL
GASTEIGER

@<TRIPOS>ATOM
      1  C         20.7130  -22.3130   -7.4350 C.2     1  UNL1        0.0320
      2  C         20.7530  -23.5860   -8.0130 C.2     1  UNL1        0.0190
      3  C         21.8640  -23.9800   -8.7700 C.2     1  UNL1        0.0300
      4  C         22.9620  -23.1300   -8.9490 C.2     1  UNL1        0.0280
      5  C         22.8790  -21.8400   -8.4080 C.2     1  UNL1        0.0300
      6  C         21.7740  -21.4330   -7.6520 C.2     1  UNL1        0.0190
      7  N         24.0630  -23.4500   -9.7370 N.pl3   1  UNL1       -0.3900
      8  H         24.2130  -24.4580   -9.8300 H       1  UNL1        0.1590
      9  C         24.3760  -22.7480  -10.9800 C.3     1  UNL1        0.1270
     10  C         23.3740  -23.0470  -12.0900 C.3     1  UNL1        0.1050
     11  C         22.6490  -21.8010  -12.5750 C.2     1  UNL1        0.1840
     12  O         23.2130  -20.9730  -13.2910 O.2     1  UNL1       -0.2900
     13  C         21.2750  -21.6580  -12.1290 C.2     1  UNL1        0.1220
     14  C         20.3360  -20.6500  -12.2790 C.2     1  UNL1        0.0550
     15  C         19.1550  -21.0790  -11.6170 C.2     1  UNL1        0.0010
     16  C         17.8730  -20.5440  -11.3980 C.2     1  UNL1        0.0140
     17  C         19.4480  -22.3330  -11.1000 C.2     1  UNL1        0.0860
     18  C         16.9460  -21.3000  -10.6680 C.2     1  UNL1        0.0010
     19  C         17.2800  -22.5600  -10.1640 C.2     1  UNL1        0.0030
     20  C         18.5500  -23.1080  -10.3710 C.2     1  UNL1        0.0380
     21  O         20.7240  -22.6840  -11.4080 O.2     1  UNL1       -0.3060
     22  C         19.5550  -21.8490   -6.6250 C.2     1  UNL1        0.2520
     23  O         19.6670  -20.8760   -5.8890 O.2     1  UNL1       -0.2680
     24  N         18.4010  -22.6010   -6.7310 N.am    1  UNL1       -0.3520
     25  H         18.4760  -23.5230   -7.1380 H       1  UNL1        0.1630
     26  C         17.2510  -22.3410   -5.8760 C.3     1  UNL1        0.0840
     27  C         15.9450  -22.5200   -6.6680 C.3     1  UNL1        0.0250
     28  C         14.7440  -22.8930   -5.7960 C.3     1  UNL1        0.0020
     29  C         14.8780  -22.3520   -4.3800 C.3     1  UNL1        0.0000
     30  C         16.1200  -22.9040   -3.6770 C.3     1  UNL1        0.0020
     31  C         17.2690  -23.2340   -4.6330 C.3     1  UNL1        0.0250
@<TRIPOS>BOND
     1    12    11    2
     2    11    13    1
     3    11    10    1
     4    14    13    2
     5    14    15    1
     6    13    21    1
     7    10     9    1
     8    15    16    2
     9    15    17    1
    10    21    17    1
    11    16    18    1
    12    17    20    2
    13     9     7    1
    14    18    19    2
    15    20    19    1
    16     8     7    1
    17     7     4    1
    18     4     3    2
    19     4     5    1
    20     3     2    1
    21     5     6    2
    22     2     1    2
    23     6     1    1
    24     1    22    1
    25    25    24    1
    26    24    22   am
    27    24    26    1
    28    27    26    1
    29    27    28    1
    30    22    23    2
    31    26    31    1
    32    28    29    1
    33    31    30    1
    34    29    30    1
