@<TRIPOS>MOLECULE
42385_out_ligand_01.pdbqt
 33 36 0 0 0
SMALL
GASTEIGER

@<TRIPOS>ATOM
      1  N         21.4200  -22.3450   -9.2430 N.3     1  UNL1        0.1080
      2  C         21.1260  -23.4440   -8.3040 C.3     1  UNL1        0.2530
      3  C         20.9330  -24.8340   -8.9380 C.3     1  UNL1        0.0480
      4  C         19.9630  -23.0240   -7.3980 C.2     1  UNL1       -0.0250
      5  C         19.9020  -21.7800   -6.7500 C.2     1  UNL1        0.0090
      6  C         18.8290  -21.4600   -5.9120 C.2     1  UNL1        0.0010
      7  C         17.8030  -22.3800   -5.7050 C.2     1  UNL1        0.0000
      8  C         17.8510  -23.6230   -6.3290 C.2     1  UNL1        0.0010
      9  C         18.9230  -23.9430   -7.1640 C.2     1  UNL1        0.0090
     10  C         20.9390  -22.5410  -10.6090 C.3     1  UNL1        0.3120
     11  C         19.5430  -21.9870  -10.8180 C.2     1  UNL1       -0.0290
     12  C         19.3190  -20.9150  -11.6900 C.2     1  UNL1        0.0090
     13  C         18.0320  -20.4120  -11.8740 C.2     1  UNL1        0.0010
     14  C         16.9550  -20.9780  -11.1910 C.2     1  UNL1        0.0160
     15  C         17.1520  -22.0580  -10.3170 C.2     1  UNL1        0.0480
     16  C         18.4530  -22.5500  -10.1350 C.2     1  UNL1        0.0250
     17  C         15.9900  -22.6480   -9.5590 C.3     1  UNL1        0.4170
     18  F         14.7970  -22.4700  -10.1960 F       1  UNL1       -0.1660
     19  F         16.0980  -23.9890   -9.3510 F       1  UNL1       -0.1660
     20  F         15.8380  -22.0880   -8.3260 F       1  UNL1       -0.1660
     21  C         22.7940  -21.8220   -9.1430 C.3     1  UNL1        0.3590
     22  C         23.6610  -21.9930  -10.3500 C.2     1  UNL1        0.1740
     23  N         23.6690  -22.9740  -11.2300 N.2     1  UNL1       -0.2190
     24  C         24.6670  -22.6320  -12.1310 C.2     1  UNL1        0.1490
     25  C         25.2210  -21.4350  -11.7280 C.2     1  UNL1        0.1810
     26  O         24.5890  -21.0180  -10.5950 O.2     1  UNL1       -0.3030
     27  C         25.0110  -23.4570  -13.2920 C.2     1  UNL1        0.2720
     28  O         25.3850  -24.6230  -13.1800 O.2     1  UNL1       -0.2660
     29  N         24.8800  -22.8380  -14.5290 N.am    1  UNL1       -0.3510
     30  H         24.5620  -21.8820  -14.5860 H       1  UNL1        0.1630
     31  C         25.1900  -23.5110  -15.7520 C.3     1  UNL1        0.0850
     32  C         24.2450  -23.4500  -16.9230 C.3     1  UNL1        0.0270
     33  C         25.5570  -22.7240  -16.9800 C.3     1  UNL1        0.0270
@<TRIPOS>BOND
     1    33    32    1
     2    33    31    1
     3    32    31    1
     4    31    29    1
     5    30    29    1
     6    29    27   am
     7    27    28    2
     8    27    24    1
     9    24    25    2
    10    24    23    1
    11    13    12    1
    12    13    14    2
    13    25    26    1
    14    12    11    2
    15    23    22    2
    16    14    15    1
    17    11    10    1
    18    11    16    1
    19    10     1    1
    20    26    22    1
    21    22    21    1
    22    15    16    2
    23    15    17    1
    24    18    17    1
    25    17    19    1
    26    17    20    1
    27     1    21    1
    28     1     2    1
    29     3     2    1
    30     2     4    1
    31     4     9    2
    32     4     5    1
    33     9     8    1
    34     5     6    2
    35     8     7    2
    36     6     7    1
