@<TRIPOS>MOLECULE
42397_out_ligand_01.pdbqt
 32 36 0 0 0
SMALL
GASTEIGER

@<TRIPOS>ATOM
      1  C         22.9240  -21.7880  -13.1030 C.2     1  UNL1        0.0350
      2  C         21.6500  -21.3970  -12.6800 C.2     1  UNL1        0.0310
      3  C         21.1810  -21.7550  -11.4110 C.2     1  UNL1        0.0270
      4  C         21.9860  -22.5200  -10.5650 C.2     1  UNL1        0.0790
      5  C         23.2670  -22.9010  -10.9630 C.2     1  UNL1        0.0270
      6  C         23.7300  -22.5360  -12.2310 C.2     1  UNL1        0.0310
      7  S         21.3790  -22.9640   -8.9600 S.O2    1  UNL1        0.2590
      8  O         21.9810  -22.0490   -8.0140 O.2     1  UNL1       -0.2010
      9  O         21.5040  -24.3940   -8.7960 O.2     1  UNL1       -0.2010
     10  N         19.7630  -22.5560   -9.0140 N.3     1  UNL1       -0.3050
     11  H         19.4780  -22.1700   -9.9130 H       1  UNL1        0.1730
     12  C         18.7190  -22.8540   -8.0210 C.3     1  UNL1        0.0410
     13  C         18.7190  -24.3630   -7.6920 C.3     1  UNL1        0.0360
     14  C         17.5550  -24.7080   -6.7460 C.3     1  UNL1       -0.0120
     15  C         16.2240  -24.3480   -7.4250 C.3     1  UNL1        0.0090
     16  C         17.6990  -23.8930   -5.4490 C.3     1  UNL1        0.0090
     17  C         16.1880  -22.8460   -7.7480 C.3     1  UNL1       -0.0120
     18  C         16.3340  -22.0410   -6.4480 C.3     1  UNL1        0.0090
     19  C         17.3590  -22.5060   -8.6840 C.3     1  UNL1        0.0360
     20  C         17.6670  -22.3880   -5.7650 C.3     1  UNL1       -0.0120
     21  C         18.8300  -22.0450   -6.7140 C.3     1  UNL1        0.0360
     22  N         23.4730  -21.4720  -14.3630 N.am    1  UNL1       -0.3220
     23  C         24.5810  -20.6830  -14.6420 C.2     1  UNL1        0.2780
     24  O         25.2500  -20.1130  -13.7830 O.2     1  UNL1       -0.2650
     25  H         22.9910  -21.8670  -15.1600 H       1  UNL1        0.1690
     26  C         24.9140  -20.5590  -16.0860 C.2     1  UNL1        0.1670
     27  N         24.4930  -21.5000  -16.9610 N.2     1  UNL1       -0.1680
     28  N         24.9470  -21.0990  -18.1530 N.pl3   1  UNL1       -0.2870
     29  C         25.6520  -19.9400  -18.1050 C.2     1  UNL1        0.1350
     30  H         24.7340  -21.6750  -18.9630 H       1  UNL1        0.1880
     31  C         25.6550  -19.5580  -16.7860 C.2     1  UNL1        0.0870
     32 CL         26.4040  -18.1650  -16.1700 Cl      1  UNL1       -0.0800
@<TRIPOS>BOND
     1    30    28    1
     2    28    29    1
     3    28    27    1
     4    29    31    2
     5    27    26    2
     6    31    32    1
     7    31    26    1
     8    26    23    1
     9    25    22    1
    10    23    22   am
    11    23    24    2
    12    22     1    1
    13     1     2    2
    14     1     6    1
    15     2     3    1
    16     6     5    2
    17     3     4    2
    18     5     4    1
    19     4     7    1
    20    11    10    1
    21    10     7    1
    22    10    12    1
    23     7     9    2
    24     7     8    2
    25    19    12    1
    26    19    17    1
    27    12    13    1
    28    12    21    1
    29    17    15    1
    30    17    18    1
    31    13    14    1
    32    15    14    1
    33    14    16    1
    34    21    20    1
    35    18    20    1
    36    20    16    1
