@<TRIPOS>MOLECULE
42392_out_ligand_01.pdbqt
 31 34 0 0 0
SMALL
GASTEIGER

@<TRIPOS>ATOM
      1  C         22.4520  -21.5040  -12.4970 C.3     1  UNL1        0.0880
      2  C         22.7790  -21.3870  -14.0040 C.3     1  UNL1        0.0250
      3  C         24.2840  -21.2560  -14.2300 C.3     1  UNL1        0.0040
      4  C         25.0640  -22.4120  -13.5940 C.3     1  UNL1        0.0200
      5  C         24.2080  -23.2530  -12.6500 C.3     1  UNL1        0.1260
      6  N         23.4040  -22.3820  -11.7920 N.am    1  UNL1       -0.3470
      7  C         23.7520  -22.3010  -10.4470 C.2     1  UNL1        0.2200
      8  O         24.6420  -23.0100   -9.9660 O.2     1  UNL1       -0.2730
      9  C         20.9690  -21.8720  -12.2470 C.3     1  UNL1        0.0470
     10  C         19.9880  -20.7180  -12.0200 C.3     1  UNL1        0.1480
     11  N         18.7310  -21.0980  -11.4170 N.pl3   1  UNL1       -0.2830
     12  C         18.4880  -22.1160  -10.5390 C.2     1  UNL1        0.1460
     13  C         17.1350  -22.0230  -10.2770 C.2     1  UNL1        0.1580
     14  N         16.6220  -20.9880  -11.0250 N.2     1  UNL1       -0.1530
     15  N         17.6060  -20.4390  -11.7250 N.2     1  UNL1        0.0050
     16  C         16.3070  -22.8290   -9.3820 C.2     1  UNL1        0.2730
     17  O         15.6280  -23.7740   -9.7720 O.2     1  UNL1       -0.2660
     18  N         16.3160  -22.4300   -8.0570 N.am    1  UNL1       -0.3550
     19  H         16.6920  -21.5220   -7.8370 H       1  UNL1        0.1620
     20  C         15.3950  -23.0130   -7.1150 C.3     1  UNL1        0.1270
     21  C         15.7810  -22.5950   -5.7330 C.3     1  UNL1        0.0030
     22  C         15.4510  -23.4660   -4.5500 C.3     1  UNL1        0.0070
     23  C         14.7370  -22.1570   -4.7390 C.3     1  UNL1        0.0070
     24  C         23.0560  -21.2880   -9.5510 C.3     1  UNL1        0.1070
     25  C         22.8040  -21.8610   -8.1520 C.3     1  UNL1        0.0470
     26  C         21.5650  -22.7300   -8.1060 C.2     1  UNL1       -0.0580
     27  C         20.4720  -22.3650   -7.3080 C.2     1  UNL1        0.0070
     28  C         19.3340  -23.1750   -7.2490 C.2     1  UNL1        0.0010
     29  C         19.2770  -24.3550   -7.9870 C.2     1  UNL1        0.0000
     30  C         20.3600  -24.7280   -8.7820 C.2     1  UNL1        0.0010
     31  C         21.4980  -23.9230   -8.8410 C.2     1  UNL1        0.0070
@<TRIPOS>BOND
     1     3     2    1
     2     3     4    1
     3     2     1    1
     4     4     5    1
     5     5     6    1
     6     1     9    1
     7     1     6    1
     8     9    10    1
     9    10    11    1
    10     6     7   am
    11    15    11    1
    12    15    14    2
    13    11    12    1
    14    14    13    1
    15    12    13    2
    16     7     8    2
    17     7    24    1
    18    13    16    1
    19    17    16    2
    20    24    25    1
    21    16    18   am
    22    31    30    1
    23    31    26    2
    24    30    29    2
    25    25    26    1
    26    26    27    1
    27    18    19    1
    28    18    20    1
    29    29    28    1
    30    27    28    2
    31    20    21    1
    32    21    23    1
    33    21    22    1
    34    23    22    1
