@<TRIPOS>MOLECULE
42407_out_ligand_01.pdbqt
 34 37 0 0 0
SMALL
GASTEIGER

@<TRIPOS>ATOM
      1  C         21.3220  -23.3540   -9.2460 C.2     1  UNL1        0.1610
      2  N         21.5960  -24.5190   -8.5290 N.2     1  UNL1       -0.2280
      3  C         20.4270  -25.1110   -8.4510 C.2     1  UNL1        0.2590
      4  O         19.3960  -24.4380   -9.0250 O.2     1  UNL1       -0.3010
      5  C         19.9750  -23.3130   -9.5570 C.2     1  UNL1        0.1220
      6  C         19.0680  -22.4150  -10.2530 C.2     1  UNL1        0.0160
      7  C         19.5180  -21.7090  -11.3790 C.2     1  UNL1        0.0150
      8  C         18.6810  -20.8100  -12.0480 C.2     1  UNL1        0.0010
      9  C         17.3770  -20.6010  -11.6050 C.2     1  UNL1        0.0010
     10  C         16.9070  -21.2930  -10.4910 C.2     1  UNL1        0.0180
     11  C         17.7490  -22.1910   -9.8160 C.2     1  UNL1        0.0450
     12  C         17.1890  -22.9270   -8.6560 C.2     1  UNL1        0.2570
     13  O         16.5530  -23.9510   -8.8620 O.2     1  UNL1       -0.2670
     14  N         17.4700  -22.3320   -7.4400 N.am    1  UNL1       -0.3230
     15  H         18.0600  -21.5100   -7.4640 H       1  UNL1        0.1690
     16  C         17.0790  -22.7800   -6.1610 C.2     1  UNL1        0.0370
     17  C         15.7400  -22.5730   -5.7930 C.2     1  UNL1        0.0290
     18  C         15.2690  -22.9850   -4.5430 C.2     1  UNL1        0.0050
     19  C         16.1350  -23.6100   -3.6500 C.2     1  UNL1        0.0420
     20  C         17.4600  -23.8140   -4.0160 C.2     1  UNL1        0.1180
     21  F         18.2900  -24.4140   -3.1530 F       1  UNL1       -0.2060
     22  C         17.9380  -23.4070   -5.2590 C.2     1  UNL1        0.0710
     23  C         22.3620  -22.3860   -9.5880 C.2     1  UNL1        0.2770
     24  N         22.8640  -22.6280  -10.8530 N.am    1  UNL1       -0.3220
     25  H         22.4280  -23.4160  -11.3250 H       1  UNL1        0.1690
     26  O         22.7210  -21.5050   -8.8170 O.2     1  UNL1       -0.2660
     27  C         23.8700  -21.9340  -11.5470 C.2     1  UNL1        0.0350
     28  C         24.9810  -21.5180  -10.8080 C.2     1  UNL1        0.0300
     29  C         26.0240  -20.8210  -11.4220 C.2     1  UNL1        0.0090
     30  C         25.9790  -20.5230  -12.7900 C.2     1  UNL1       -0.0560
     31  C         27.1200  -19.7740  -13.4210 C.3     1  UNL1        0.0490
     32  C         24.8660  -20.9400  -13.5450 C.2     1  UNL1       -0.0540
     33  C         23.8210  -21.6420  -12.9110 C.2     1  UNL1        0.0370
     34  C         24.7660  -20.6520  -15.0180 C.3     1  UNL1        0.0490
@<TRIPOS>BOND
     1    34    32    1
     2    32    33    1
     3    32    30    2
     4    31    30    1
     5    33    27    2
     6    30    29    1
     7     8     9    2
     8     8     7    1
     9     9    10    1
    10    27    24    1
    11    27    28    1
    12    29    28    2
    13     7     6    2
    14    25    24    1
    15    24    23   am
    16    10    11    2
    17     6    11    1
    18     6     5    1
    19    11    12    1
    20    23     1    1
    21    23    26    2
    22     5     1    2
    23     5     4    1
    24     1     2    1
    25     4     3    1
    26    13    12    2
    27    12    14   am
    28     2     3    2
    29    15    14    1
    30    14    16    1
    31    16    17    2
    32    16    22    1
    33    17    18    1
    34    22    20    2
    35    18    19    2
    36    20    19    1
    37    20    21    1
