@<TRIPOS>MOLECULE
42410_out_ligand_01.pdbqt
 36 39 0 0 0
SMALL
GASTEIGER

@<TRIPOS>ATOM
      1  C         21.8710  -23.2350   -8.6130 C.2     1  UNL1        0.0340
      2  C         21.3010  -22.1930   -7.8760 C.2     1  UNL1        0.0310
      3  C         20.0330  -22.3380   -7.3010 C.2     1  UNL1        0.0270
      4  C         19.3340  -23.5330   -7.4620 C.2     1  UNL1        0.0790
      5  C         19.8880  -24.5830   -8.1950 C.2     1  UNL1        0.0270
      6  C         21.1490  -24.4270   -8.7760 C.2     1  UNL1        0.0310
      7  N         23.1530  -23.1820   -9.2000 N.am    1  UNL1       -0.3270
      8  C         23.7140  -22.1450   -9.9220 C.2     1  UNL1        0.2280
      9  O         23.1540  -21.0950  -10.2300 O.2     1  UNL1       -0.2730
     10  H         23.7410  -23.9870   -9.0000 H       1  UNL1        0.1690
     11  C         25.1550  -22.3830  -10.3750 C.3     1  UNL1        0.1050
     12  C         25.8460  -21.0910  -10.7700 C.3     1  UNL1        0.1190
     13  C         25.6900  -21.0430  -12.2680 C.2     1  UNL1        0.2250
     14  O         25.9000  -20.0350  -12.9170 O.2     1  UNL1       -0.2730
     15  N         25.2810  -22.3120  -12.7090 N.am    1  UNL1       -0.3170
     16  C         25.2480  -23.2540  -11.6090 C.3     1  UNL1        0.1460
     17  C         25.0180  -22.6940  -14.0560 C.2     1  UNL1        0.0370
     18  C         24.4530  -21.7810  -14.9640 C.2     1  UNL1        0.0330
     19  C         24.2250  -22.1330  -16.2990 C.2     1  UNL1        0.0440
     20  C         24.5490  -23.4030  -16.7390 C.2     1  UNL1        0.1160
     21  F         24.3380  -23.7410  -18.0190 F       1  UNL1       -0.2060
     22  C         25.0970  -24.3300  -15.8670 C.2     1  UNL1        0.0440
     23  C         25.3270  -23.9740  -14.5330 C.2     1  UNL1        0.0330
     24  S         17.7460  -23.7490   -6.7040 S.O2    1  UNL1        0.2580
     25  O         17.6900  -25.1040   -6.2040 O.2     1  UNL1       -0.2010
     26  O         17.4720  -22.6130   -5.8550 O.2     1  UNL1       -0.2010
     27  N         16.7190  -23.6860   -8.0210 N.3     1  UNL1       -0.3150
     28  H         16.0370  -24.4430   -8.0520 H       1  UNL1        0.1720
     29  C         16.3320  -22.3920   -8.5970 C.3     1  UNL1        0.1370
     30  C         16.3160  -22.4300  -10.1290 C.3     1  UNL1        0.0580
     31  C         17.6160  -21.9660  -10.7420 C.2     1  UNL1       -0.0570
     32  C         18.6860  -22.8620  -10.8960 C.2     1  UNL1        0.0070
     33  C         19.9000  -22.4270  -11.4260 C.2     1  UNL1        0.0010
     34  C         20.0570  -21.0970  -11.8120 C.2     1  UNL1        0.0000
     35  C         18.9980  -20.2010  -11.6690 C.2     1  UNL1        0.0010
     36  C         17.7860  -20.6310  -11.1320 C.2     1  UNL1        0.0070
@<TRIPOS>BOND
     1    21    20    1
     2    20    19    2
     3    20    22    1
     4    19    18    1
     5    22    23    2
     6    18    17    2
     7    23    17    1
     8    17    15    1
     9    14    13    2
    10    15    13   am
    11    15    16    1
    12    13    12    1
    13    34    35    2
    14    34    33    1
    15    35    36    1
    16    16    11    1
    17    33    32    2
    18    36    31    2
    19    32    31    1
    20    12    11    1
    21    31    30    1
    22    11     8    1
    23     9     8    2
    24    30    29    1
    25     8     7   am
    26     7    10    1
    27     7     1    1
    28     6     1    2
    29     6     5    1
    30     1     2    1
    31    29    27    1
    32     5     4    2
    33    28    27    1
    34    27    24    1
    35     2     3    2
    36     4     3    1
    37     4    24    1
    38    24    25    2
    39    24    26    2
