@<TRIPOS>MOLECULE
42429_out_ligand_01.pdbqt
 34 38 0 0 0
SMALL
GASTEIGER

@<TRIPOS>ATOM
      1  C         16.3060  -21.7690   -9.9440 C.3     1  UNL1        0.1210
      2  C         17.6700  -21.7020  -10.5880 C.2     1  UNL1       -0.0480
      3  C         18.2030  -20.4750  -11.0050 C.2     1  UNL1        0.0090
      4  C         19.4730  -20.4130  -11.5900 C.2     1  UNL1        0.0170
      5  C         20.2290  -21.5790  -11.7490 C.2     1  UNL1        0.0320
      6  C         19.6980  -22.8080  -11.3410 C.2     1  UNL1        0.0170
      7  C         18.4300  -22.8680  -10.7570 C.2     1  UNL1        0.0090
      8  C         21.5860  -21.5660  -12.3660 C.2     1  UNL1        0.2510
      9  O         21.7810  -20.9570  -13.4120 O.2     1  UNL1       -0.2680
     10  N         22.5640  -22.2850  -11.7110 N.am    1  UNL1       -0.3540
     11  H         22.2800  -22.9510  -11.0060 H       1  UNL1        0.1620
     12  C         23.8940  -22.4440  -12.2740 C.3     1  UNL1        0.1550
     13  C         25.0500  -22.3050  -11.2680 C.3     1  UNL1        0.1390
     14  C         26.4300  -22.5450  -11.8720 C.3     1  UNL1        0.0350
     15  C         26.8710  -21.1600  -12.2700 C.3     1  UNL1        0.0290
     16  C         26.2970  -20.3250  -11.1490 C.3     1  UNL1        0.1680
     17  O         25.0560  -20.9410  -10.7820 O.3     1  UNL1       -0.3840
     18  S         15.8950  -23.4720   -9.4600 S.3     1  UNL1       -0.0870
     19  C         15.9690  -23.2990   -7.7400 C.ar    1  UNL1        0.1710
     20  N         15.1380  -22.5610   -7.0350 N.ar    1  UNL1       -0.2210
     21  C         15.5590  -22.7050   -5.7390 C.ar    1  UNL1        0.1050
     22  C         15.0730  -22.1560   -4.5460 C.2     1  UNL1        0.0370
     23  C         16.6590  -23.5530   -5.6610 C.ar    1  UNL1        0.1610
     24  C         15.7340  -22.5070   -3.3670 C.2     1  UNL1        0.0220
     25  C         16.8240  -23.3700   -3.4280 C.2     1  UNL1        0.1190
     26  N         17.3340  -23.9270   -4.5550 N.2     1  UNL1       -0.2410
     27  N         16.9000  -23.9360   -6.9570 N.ar    1  UNL1       -0.3040
     28  C         17.9610  -24.8390   -7.3690 C.3     1  UNL1        0.1710
     29  C         19.2390  -24.1000   -7.6860 C.2     1  UNL1       -0.0400
     30  C         20.2620  -24.7210   -8.4190 C.2     1  UNL1        0.0090
     31  C         21.4370  -24.0310   -8.7240 C.2     1  UNL1        0.0010
     32  C         21.6050  -22.7160   -8.2940 C.2     1  UNL1        0.0000
     33  C         20.6010  -22.0900   -7.5580 C.2     1  UNL1        0.0010
     34  C         19.4270  -22.7780   -7.2510 C.2     1  UNL1        0.0090
@<TRIPOS>BOND
     1     9     8    2
     2     8     5    1
     3     8    10   am
     4    12    10    1
     5    12    13    1
     6    15    14    1
     7    15    16    1
     8    14    13    1
     9     5     4    2
    10     5     6    1
    11    10    11    1
    12     4     3    1
    13     6     7    2
    14    13    17    1
    15    16    17    1
    16     3     2    2
    17     7     2    1
    18     2     1    1
    19     1    18    1
    20    18    19    1
    21    31    30    1
    22    31    32    2
    23    30    29    2
    24    32    33    1
    25    19    20   ar
    26    19    27   ar
    27    29    28    1
    28    29    34    1
    29    33    34    2
    30    28    27    1
    31    20    21   ar
    32    27    23   ar
    33    21    23   ar
    34    21    22    1
    35    23    26    1
    36    26    25    2
    37    22    24    2
    38    25    24    1
