@<TRIPOS>MOLECULE
42455_out_ligand_01.pdbqt
 36 39 0 0 0
SMALL
GASTEIGER

@<TRIPOS>ATOM
      1  N         22.1610  -22.3040  -10.8290 N.ar    1  UNL1       -0.2650
      2  C         21.2860  -21.6850  -11.7070 C.ar    1  UNL1        0.2650
      3  O         21.6250  -21.1140  -12.7410 O.2     1  UNL1       -0.2670
      4  C         19.8670  -21.7260  -11.3500 C.ar    1  UNL1        0.0780
      5  C         18.9130  -21.0080  -12.0800 C.2     1  UNL1        0.0220
      6  C         17.5840  -21.0510  -11.6820 C.2     1  UNL1        0.0200
      7  C         17.2670  -21.8020  -10.5660 C.2     1  UNL1        0.1190
      8  N         18.1780  -22.4960   -9.8420 N.2     1  UNL1       -0.2420
      9  C         19.4680  -22.4720  -10.2590 C.ar    1  UNL1        0.1490
     10  N         20.4140  -23.2090   -9.5240 N.ar    1  UNL1       -0.2740
     11  C         21.7700  -23.1350   -9.7840 C.ar    1  UNL1        0.3330
     12  O         22.5900  -23.7830   -9.1350 O.2     1  UNL1       -0.2460
     13  C         23.5900  -22.2030  -11.1160 C.3     1  UNL1        0.1420
     14  C         24.0420  -23.2340  -12.1580 C.3     1  UNL1        0.0590
     15  C         24.7160  -22.5740  -13.3360 C.2     1  UNL1       -0.0540
     16  C         25.2780  -21.3010  -13.2130 C.2     1  UNL1        0.0100
     17  C         25.9200  -20.7030  -14.3010 C.2     1  UNL1        0.0400
     18  C         26.0140  -21.3700  -15.5270 C.2     1  UNL1        0.1010
     19  C         25.4590  -22.6590  -15.6590 C.2     1  UNL1        0.1020
     20  C         24.8090  -23.2470  -14.5660 C.2     1  UNL1        0.0460
     21  O         26.6400  -20.8620  -16.6390 O.2     1  UNL1       -0.3530
     22  C         26.0250  -19.7620  -17.2930 C.3     1  UNL1        0.2100
     23  O         25.5990  -23.2530  -16.8900 O.2     1  UNL1       -0.3530
     24  C         24.4540  -23.3010  -17.7310 C.3     1  UNL1        0.2100
     25  C         19.9510  -24.0940   -8.4480 C.3     1  UNL1        0.2380
     26  C         19.2660  -23.3700   -7.2790 C.2     1  UNL1        0.2400
     27  O         19.7830  -22.3740   -6.7750 O.2     1  UNL1       -0.2710
     28  N         18.1460  -24.0270   -6.7940 N.am    1  UNL1       -0.3260
     29  H         18.0080  -24.9760   -7.1410 H       1  UNL1        0.1690
     30  C         17.2530  -23.5960   -5.7950 C.2     1  UNL1        0.0350
     31  C         17.4770  -23.7610   -4.4270 C.2     1  UNL1        0.0290
     32  C         16.5470  -23.2850   -3.4980 C.2     1  UNL1        0.0030
     33  C         15.3930  -22.6320   -3.9280 C.2     1  UNL1        0.0070
     34  C         15.1580  -22.4420   -5.2940 C.2     1  UNL1       -0.0600
     35  C         13.9220  -21.7380   -5.7750 C.3     1  UNL1        0.0480
     36  C         16.0900  -22.9360   -6.2190 C.2     1  UNL1        0.0360
@<TRIPOS>BOND
     1    24    23    1
     2    22    21    1
     3    23    19    1
     4    21    18    1
     5    19    18    2
     6    19    20    1
     7    18    17    1
     8    20    15    2
     9    17    16    2
    10    15    16    1
    11    15    14    1
    12     3     2    2
    13    14    13    1
    14     5     6    1
    15     5     4    2
    16     2     4   ar
    17     2     1   ar
    18     6     7    2
    19     4     9   ar
    20    13     1    1
    21     1    11   ar
    22     7     8    1
    23     9     8    2
    24     9    10   ar
    25    11    10   ar
    26    11    12    2
    27    10    25    1
    28    25    26    1
    29    26    28   am
    30    26    27    2
    31    29    28    1
    32    28    30    1
    33    36    30    2
    34    36    34    1
    35    30    31    1
    36    35    34    1
    37    34    33    2
    38    31    32    2
    39    33    32    1
