@<TRIPOS>MOLECULE
42476_out_ligand_01.pdbqt
 36 39 0 0 0
SMALL
GASTEIGER

@<TRIPOS>ATOM
      1  N         21.8320  -22.8440  -10.8950 N.ar    1  UNL1       -0.2650
      2  C         21.0320  -21.9130  -11.5390 C.ar    1  UNL1        0.2650
      3  O         21.4290  -21.1390  -12.4050 O.2     1  UNL1       -0.2670
      4  C         19.6260  -21.8670  -11.1330 C.ar    1  UNL1        0.0780
      5  C         18.7130  -21.0360  -11.7870 C.2     1  UNL1        0.0220
      6  C         17.3860  -21.0300  -11.3760 C.2     1  UNL1        0.0200
      7  C         17.0260  -21.8640  -10.3340 C.2     1  UNL1        0.1190
      8  N         17.8940  -22.6870   -9.6960 N.2     1  UNL1       -0.2420
      9  C         19.1960  -22.6640  -10.0900 C.ar    1  UNL1        0.1490
     10  N         20.1140  -23.4830   -9.4070 N.ar    1  UNL1       -0.2740
     11  C         21.4420  -23.5820   -9.7840 C.ar    1  UNL1        0.3330
     12  O         22.2440  -24.2750   -9.1580 O.2     1  UNL1       -0.2460
     13  C         23.2300  -22.9340  -11.3140 C.3     1  UNL1        0.1420
     14  C         24.0850  -21.8250  -10.6910 C.3     1  UNL1        0.0590
     15  C         24.8900  -21.0920  -11.7350 C.2     1  UNL1       -0.0540
     16  C         26.0000  -20.3280  -11.3650 C.2     1  UNL1        0.0100
     17  C         26.7590  -19.6670  -12.3330 C.2     1  UNL1        0.0400
     18  C         26.4230  -19.7660  -13.6870 C.2     1  UNL1        0.1010
     19  C         25.3120  -20.5430  -14.0720 C.2     1  UNL1        0.1020
     20  C         24.5550  -21.2000  -13.0930 C.2     1  UNL1        0.0460
     21  O         27.1120  -19.1540  -14.7040 O.2     1  UNL1       -0.3530
     22  C         27.1200  -17.7340  -14.7330 C.3     1  UNL1        0.2100
     23  O         25.0490  -20.5970  -15.4180 O.2     1  UNL1       -0.3530
     24  C         25.0080  -21.8770  -16.0310 C.3     1  UNL1        0.2100
     25  C         19.6520  -24.2680   -8.2580 C.3     1  UNL1        0.2380
     26  C         18.9360  -23.4070   -7.2100 C.2     1  UNL1        0.2400
     27  O         19.4730  -22.4120   -6.7320 O.2     1  UNL1       -0.2710
     28  N         17.6480  -23.8380   -6.9400 N.am    1  UNL1       -0.3260
     29  H         17.3330  -24.6350   -7.4920 H       1  UNL1        0.1690
     30  C         16.7220  -23.2970   -6.0290 C.2     1  UNL1        0.0360
     31  C         16.9930  -23.4840   -4.6650 C.2     1  UNL1        0.0290
     32  C         16.1300  -22.9800   -3.6890 C.2     1  UNL1        0.0040
     33  C         14.9870  -22.2820   -4.0690 C.2     1  UNL1        0.0240
     34  C         14.7160  -22.0900   -5.4220 C.2     1  UNL1        0.0360
     35 CL         13.3020  -21.2230   -5.8860 Cl      1  UNL1       -0.0840
     36  C         15.5760  -22.5930   -6.4020 C.2     1  UNL1        0.0530
@<TRIPOS>BOND
     1    24    23    1
     2    23    19    1
     3    22    21    1
     4    21    18    1
     5    19    18    2
     6    19    20    1
     7    18    17    1
     8    20    15    2
     9     3     2    2
    10    17    16    2
    11     5     6    1
    12     5     4    2
    13    15    16    1
    14    15    14    1
    15     2     4   ar
    16     2     1   ar
    17     6     7    2
    18    13     1    1
    19    13    14    1
    20     4     9   ar
    21     1    11   ar
    22     7     8    1
    23     9     8    2
    24     9    10   ar
    25    11    10   ar
    26    11    12    2
    27    10    25    1
    28    25    26    1
    29    29    28    1
    30    26    28   am
    31    26    27    2
    32    28    30    1
    33    36    30    2
    34    36    34    1
    35    30    31    1
    36    35    34    1
    37    34    33    2
    38    31    32    2
    39    33    32    1
