@<TRIPOS>MOLECULE
42501_out_ligand_01.pdbqt
 36 40 0 0 0
SMALL
GASTEIGER

@<TRIPOS>ATOM
      1  C         20.9670  -21.6890  -11.7960 C.2     1  UNL1        0.0810
      2  C         21.1500  -22.4390  -10.6960 C.2     1  UNL1        0.1130
      3  N         22.3430  -23.0120  -10.2880 N.pl3   1  UNL1       -0.3310
      4  C         23.5230  -22.8060  -11.0340 C.2     1  UNL1        0.1440
      5  N         24.7120  -23.3010  -10.5870 N.2     1  UNL1       -0.2350
      6  C         25.8250  -23.0950  -11.3420 C.2     1  UNL1        0.0330
      7  C         27.1210  -23.6550  -10.8300 C.3     1  UNL1        0.0700
      8  C         25.8060  -22.3970  -12.5450 C.2     1  UNL1        0.0280
      9  C         24.5960  -21.8770  -12.9940 C.2     1  UNL1        0.0210
     10  C         23.4450  -22.0800  -12.2300 C.2     1  UNL1        0.0610
     11  C         22.1420  -21.5420  -12.6940 C.2     1  UNL1        0.2010
     12  O         22.0640  -21.0050  -13.7960 O.2     1  UNL1       -0.2860
     13  C         22.4440  -23.9090   -9.1300 C.3     1  UNL1        0.2330
     14  C         21.0920  -24.0620   -8.4170 C.2     1  UNL1        0.2400
     15  O         20.4280  -25.0920   -8.5330 O.2     1  UNL1       -0.2710
     16  N         20.7300  -22.9260   -7.7060 N.am    1  UNL1       -0.3260
     17  H         21.4750  -22.2300   -7.5940 H       1  UNL1        0.1690
     18  C         19.5810  -22.7160   -6.9190 C.2     1  UNL1        0.0370
     19  C         19.5450  -21.5280   -6.1670 C.2     1  UNL1        0.0320
     20  C         18.4670  -21.2470   -5.3270 C.2     1  UNL1        0.0420
     21  C         17.4300  -22.1680   -5.2080 C.2     1  UNL1        0.1020
     22  C         17.4690  -23.3680   -5.9330 C.2     1  UNL1        0.1040
     23  O         16.4230  -21.8400   -4.3370 O.2     1  UNL1       -0.3460
     24  C         18.5230  -23.6240   -6.8180 C.2     1  UNL1        0.0690
     25  O         16.5130  -24.3510   -5.8070 O.2     1  UNL1       -0.3460
     26  C         15.7310  -24.1610   -4.6250 C.3     1  UNL1        0.2020
     27  C         15.2900  -22.7070   -4.4930 C.3     1  UNL1        0.2020
     28  C         19.6030  -21.1370  -12.0390 C.2     1  UNL1        0.1970
     29  O         19.4110  -20.2760  -12.9000 O.2     1  UNL1       -0.2860
     30  C         18.4440  -21.6410  -11.2610 C.2     1  UNL1        0.0150
     31  C         17.3040  -20.8600  -11.0320 C.2     1  UNL1        0.0160
     32  C         16.2400  -21.3800  -10.2900 C.2     1  UNL1        0.0070
     33  C         16.3070  -22.6760   -9.7560 C.2     1  UNL1       -0.0620
     34  C         15.1530  -23.2310   -8.9750 C.3     1  UNL1        0.0480
     35  C         17.4750  -23.4300   -9.9370 C.2     1  UNL1        0.0070
     36  C         18.5400  -22.9150  -10.6780 C.2     1  UNL1        0.0160
@<TRIPOS>BOND
     1    12    11    2
     2     9     8    2
     3     9    10    1
     4    29    28    2
     5    11    10    1
     6    11     1    1
     7     8     6    1
     8    10     4    2
     9    28     1    1
    10    28    30    1
    11     1     2    2
    12     6     7    1
    13     6     5    2
    14    30    31    2
    15    30    36    1
    16     4     5    1
    17     4     3    1
    18    31    32    1
    19     2     3    1
    20    36    35    2
    21    32    33    2
    22     3    13    1
    23    35    33    1
    24    33    34    1
    25    13    14    1
    26    15    14    2
    27    14    16   am
    28    16    17    1
    29    16    18    1
    30    18    24    2
    31    18    19    1
    32    24    22    1
    33    19    20    2
    34    22    25    1
    35    22    21    2
    36    25    26    1
    37    20    21    1
    38    21    23    1
    39    26    27    1
    40    27    23    1
