@<TRIPOS>MOLECULE
42514_out_ligand_01.pdbqt
 35 37 0 0 0
SMALL
GASTEIGER

@<TRIPOS>ATOM
      1  C         18.8780  -22.1180   -8.5460 C.ar    1  UNL1        0.0930
      2  S         19.3800  -22.0850   -6.9030 S.2     1  UNL1       -0.0730
      3  C         17.9060  -22.4380   -6.1640 C.ar    1  UNL1        0.0300
      4  C         17.0350  -22.5800   -7.2060 C.ar    1  UNL1       -0.0210
      5  C         17.5370  -22.4140   -8.4620 C.ar    1  UNL1        0.0730
      6  C         15.5730  -22.8960   -6.8890 C.3     1  UNL1        0.0810
      7  C         15.2550  -22.7050   -5.4780 C.3     1  UNL1        0.1550
      8  C         14.7430  -24.0300   -4.8700 C.3     1  UNL1        0.0490
      9  C         13.9960  -21.8050   -5.4020 C.3     1  UNL1        0.0490
     10  N         16.1880  -22.0790   -4.6190 N.3     1  UNL1        0.1060
     11  C         17.5230  -22.5920   -4.7150 C.3     1  UNL1        0.1850
     12  C         17.7160  -23.9970   -4.2640 C.3     1  UNL1        0.0540
     13  C         18.4090  -21.7000   -3.8680 C.3     1  UNL1        0.0540
     14  H         15.8220  -22.0620   -3.6640 H       1  UNL1        0.3180
     15  N         19.7220  -21.8790   -9.6720 N.am    1  UNL1       -0.3160
     16  C         20.8830  -22.6760   -9.8280 C.2     1  UNL1        0.2560
     17  O         21.1230  -23.5590   -8.9750 O.2     1  UNL1       -0.2670
     18  H         19.5220  -21.1670  -10.3550 H       1  UNL1        0.1690
     19  C         21.8030  -22.5060  -10.9440 C.2     1  UNL1        0.0320
     20  C         23.0540  -23.0850  -10.9940 C.2     1  UNL1        0.0180
     21  C         23.9170  -22.9050  -12.0760 C.2     1  UNL1        0.0260
     22  C         23.5330  -22.1290  -13.1480 C.2     1  UNL1        0.0740
     23  C         22.2860  -21.5540  -13.0950 C.2     1  UNL1        0.0260
     24  C         21.4340  -21.7300  -12.0270 C.2     1  UNL1        0.0180
     25  S         24.5880  -21.8950  -14.5000 S.O2    1  UNL1        0.2420
     26  O         23.8360  -21.0810  -15.5280 O.2     1  UNL1       -0.2060
     27  O         24.9260  -23.2270  -15.1260 O.2     1  UNL1       -0.2060
     28  N         26.0040  -21.0080  -14.0950 N.3     1  UNL1       -0.2150
     29  C         27.1000  -21.2580  -14.9980 C.3     1  UNL1        0.1290
     30  C         25.6650  -19.6050  -14.0370 C.3     1  UNL1        0.1290
     31  C         16.7590  -22.5370   -9.7270 C.2     1  UNL1        0.2520
     32  N         16.5570  -21.4070  -10.5540 N.am    1  UNL1       -0.3660
     33  H         17.0910  -21.2750  -11.4620 H       1  UNL1        0.1590
     34  H         15.8720  -20.6830  -10.2940 H       1  UNL1        0.1590
     35  O         16.2720  -23.6530  -10.0760 O.2     1  UNL1       -0.2680
@<TRIPOS>BOND
     1    26    25    2
     2    27    25    2
     3    29    28    1
     4    25    28    1
     5    25    22    1
     6    28    30    1
     7    22    23    2
     8    22    21    1
     9    23    24    1
    10    21    20    2
    11    24    19    2
    12    33    32    1
    13    20    19    1
    14    19    16    1
    15    32    34    1
    16    32    31   am
    17    18    15    1
    18    35    31    2
    19    16    15   am
    20    16    17    2
    21    31     5    1
    22    15     1    1
    23     1     5   ar
    24     1     2   ar
    25     5     4   ar
    26     4     6    1
    27     4     3   ar
    28     2     3   ar
    29     6     7    1
    30     3    11    1
    31     7     9    1
    32     7     8    1
    33     7    10    1
    34    11    10    1
    35    11    12    1
    36    11    13    1
    37    10    14    1
