@<TRIPOS>MOLECULE
42541_out_ligand_01.pdbqt
 37 40 0 0 0
SMALL
GASTEIGER

@<TRIPOS>ATOM
      1  C         22.5770  -23.0290   -9.6540 C.2     1  UNL1        0.1030
      2  C         23.8970  -23.4460   -9.6740 C.2     1  UNL1        0.1340
      3  N         24.5440  -22.6620  -10.5870 N.pl3   1  UNL1       -0.2730
      4  N         23.7430  -21.7310  -11.1500 N.2     1  UNL1       -0.1460
      5  C         22.5580  -21.9740  -10.5910 C.2     1  UNL1        0.2010
      6  C         21.5140  -23.5950   -8.8330 C.2     1  UNL1        0.2620
      7  N         20.7510  -22.6510   -8.1720 N.am    1  UNL1       -0.3230
      8  H         21.0050  -21.6800   -8.3330 H       1  UNL1        0.1690
      9  O         21.3590  -24.8110   -8.7720 O.2     1  UNL1       -0.2670
     10  C         19.6590  -22.8610   -7.3080 C.2     1  UNL1        0.0350
     11  C         19.3570  -21.8360   -6.4030 C.2     1  UNL1        0.0300
     12  C         18.2830  -21.9610   -5.5160 C.2     1  UNL1        0.0190
     13  C         17.4910  -23.1130   -5.5260 C.2     1  UNL1        0.0320
     14  C         17.8010  -24.1480   -6.4140 C.2     1  UNL1        0.0190
     15  C         18.8790  -24.0180   -7.3010 C.2     1  UNL1        0.0300
     16  C         16.3520  -23.1980   -4.5720 C.2     1  UNL1        0.2490
     17  N         15.9910  -22.0550   -3.9140 N.am    1  UNL1       -0.3660
     18  H         15.3100  -22.1730   -3.1750 H       1  UNL1        0.1590
     19  H         16.6090  -21.2600   -3.8460 H       1  UNL1        0.1590
     20  O         15.7790  -24.2570   -4.3450 O.2     1  UNL1       -0.2680
     21  O         21.4690  -21.2460  -10.9220 O.2     1  UNL1       -0.3280
     22  C         20.6180  -21.8600  -11.8870 C.3     1  UNL1        0.2160
     23  C         19.2070  -21.7350  -11.3630 C.2     1  UNL1       -0.0310
     24  C         18.4830  -20.5430  -11.5280 C.2     1  UNL1        0.0090
     25  C         17.1660  -20.4420  -11.0660 C.2     1  UNL1        0.0040
     26  C         16.5630  -21.5320  -10.4410 C.2     1  UNL1        0.0420
     27  C         17.2780  -22.7120  -10.2810 C.2     1  UNL1        0.1170
     28  F         16.6960  -23.7620   -9.6860 F       1  UNL1       -0.2060
     29  C         18.5880  -22.8250  -10.7350 C.2     1  UNL1        0.0510
     30  C         25.9540  -22.7310  -10.9470 C.3     1  UNL1        0.1890
     31  C         26.1340  -22.9450  -12.4300 C.2     1  UNL1       -0.0350
     32  C         26.9450  -22.0830  -13.1860 C.2     1  UNL1        0.0090
     33  C         27.1170  -22.2910  -14.5590 C.2     1  UNL1        0.0040
     34  C         26.4830  -23.3620  -15.1860 C.2     1  UNL1        0.0420
     35  C         25.6820  -24.2170  -14.4390 C.2     1  UNL1        0.1170
     36  F         25.0740  -25.2480  -15.0420 F       1  UNL1       -0.2060
     37  C         25.5010  -24.0200  -13.0740 C.2     1  UNL1        0.0510
@<TRIPOS>BOND
     1    34    33    2
     2    34    35    1
     3    36    35    1
     4    33    32    1
     5    35    37    2
     6    32    31    2
     7    37    31    1
     8    31    30    1
     9    22    23    1
    10    22    21    1
    11    24    23    2
    12    24    25    1
    13    23    29    1
    14     4     5    2
    15     4     3    1
    16    25    26    2
    17    30     3    1
    18    21     5    1
    19    29    27    2
    20     5     1    1
    21     3     2    1
    22    26    27    1
    23    27    28    1
    24     2     1    2
    25     1     6    1
    26     6     9    2
    27     6     7   am
    28     8     7    1
    29     7    10    1
    30    10    15    2
    31    10    11    1
    32    15    14    1
    33    14    13    2
    34    11    12    2
    35    13    12    1
    36    13    16    1
    37    16    20    2
    38    16    17   am
    39    17    19    1
    40    17    18    1
