@<TRIPOS>MOLECULE
4257_out_ligand_01.pdbqt
 37 40 0 0 0
SMALL
GASTEIGER

@<TRIPOS>ATOM
      1  N         17.1540  -22.7560   -8.9740 N.ar    1  UNL1       -0.2740
      2  C         16.1710  -23.6660   -8.6120 C.ar    1  UNL1        0.1410
      3  N         15.1610  -23.5790   -9.4560 N.ar    1  UNL1       -0.1330
      4  N         15.4490  -22.5970  -10.3670 N.ar    1  UNL1       -0.1220
      5  C         16.6320  -22.1070  -10.0740 C.ar    1  UNL1        0.1960
      6  S         17.2950  -20.6930  -10.8170 S.3     1  UNL1       -0.0800
      7  C         18.4190  -21.4700  -12.0150 C.3     1  UNL1        0.1850
      8  C         19.8640  -20.9970  -11.8740 C.2     1  UNL1        0.2310
      9  O         20.1040  -19.8810  -11.4190 O.2     1  UNL1       -0.2720
     10  N         20.7960  -21.8860  -12.3840 N.am    1  UNL1       -0.3260
     11  H         20.4600  -22.8190  -12.6280 H       1  UNL1        0.1690
     12  C         22.1820  -21.6850  -12.5560 C.2     1  UNL1        0.0370
     13  C         22.7680  -21.2450  -13.7500 C.2     1  UNL1        0.0290
     14  C         24.1590  -21.1040  -13.8480 C.2     1  UNL1        0.0050
     15  C         24.9710  -21.3990  -12.7550 C.2     1  UNL1        0.0420
     16  C         24.3850  -21.8260  -11.5700 C.2     1  UNL1        0.1180
     17  F         25.1650  -22.1110  -10.5180 F       1  UNL1       -0.2060
     18  C         23.0060  -21.9760  -11.4590 C.2     1  UNL1        0.0710
     19  C         18.3540  -22.4890   -8.2820 C.2     1  UNL1        0.0490
     20  C         19.5720  -23.0590   -8.6930 C.2     1  UNL1       -0.0350
     21  C         20.7210  -22.7430   -7.9540 C.2     1  UNL1        0.0090
     22  C         19.7080  -23.9990   -9.8640 C.3     1  UNL1        0.0500
     23  C         20.6530  -21.9100   -6.8310 C.2     1  UNL1        0.0070
     24  C         19.4370  -21.3530   -6.4260 C.2     1  UNL1       -0.0600
     25  C         19.3700  -20.4780   -5.2100 C.3     1  UNL1        0.0480
     26  C         18.2810  -21.6590   -7.1490 C.2     1  UNL1        0.0370
     27  C         16.2780  -24.6550   -7.4930 C.3     1  UNL1        0.1380
     28  C         16.2370  -24.0650   -6.1000 C.2     1  UNL1        0.0260
     29  C         15.3000  -23.1920   -5.7050 C.2     1  UNL1        0.1000
     30  C         15.3360  -22.6650   -4.3250 C.2     1  UNL1        0.2510
     31  O         14.4870  -21.8720   -3.9330 O.2     1  UNL1       -0.2680
     32  N         16.3570  -23.1140   -3.5370 N.am    1  UNL1       -0.2750
     33  C         17.2970  -24.0270   -3.9170 C.2     1  UNL1        0.3270
     34  H         16.3970  -22.7790   -2.5840 H       1  UNL1        0.1730
     35  O         18.1690  -24.4290   -3.1530 O.2     1  UNL1       -0.2470
     36  N         17.2040  -24.4720   -5.2100 N.am    1  UNL1       -0.3120
     37  H         17.9180  -25.1420   -5.4880 H       1  UNL1        0.1700
@<TRIPOS>BOND
     1    14    13    1
     2    14    15    2
     3    13    12    2
     4    15    16    1
     5    11    10    1
     6    12    10    1
     7    12    18    1
     8    10     8   am
     9     7     8    1
    10     7     6    1
    11     8     9    2
    12    16    18    2
    13    16    17    1
    14     6     5    1
    15     4     5   ar
    16     4     3   ar
    17     5     1   ar
    18    22    20    1
    19     3     2   ar
    20     1     2   ar
    21     1    19    1
    22    20    19    2
    23    20    21    1
    24     2    27    1
    25    19    26    1
    26    21    23    2
    27    27    28    1
    28    26    24    2
    29    23    24    1
    30    24    25    1
    31    28    29    2
    32    28    36    1
    33    29    30    1
    34    37    36    1
    35    36    33   am
    36    30    31    2
    37    30    32   am
    38    33    32   am
    39    33    35    2
    40    32    34    1
