@<TRIPOS>MOLECULE
425_out_ligand_01.pdbqt
 34 37 0 0 0
SMALL
GASTEIGER

@<TRIPOS>ATOM
      1  C         23.1900  -23.1170   -9.3500 C.2     1  UNL1        0.2580
      2  O         24.0450  -23.8420   -8.8600 O.2     1  UNL1       -0.2670
      3  N         23.3090  -22.3910  -10.5190 N.am    1  UNL1       -0.3230
      4  H         22.5600  -21.7400  -10.7020 H       1  UNL1        0.1690
      5  C         24.3770  -22.3890  -11.4370 C.2     1  UNL1        0.0360
      6  C         25.3790  -21.4260  -11.2370 C.2     1  UNL1        0.0290
      7  C         26.4700  -21.3290  -12.1040 C.2     1  UNL1        0.0040
      8  C         26.5740  -22.2000  -13.1850 C.2     1  UNL1        0.0250
      9  C         25.5860  -23.1690  -13.3820 C.2     1  UNL1        0.0820
     10  C         24.4830  -23.2600  -12.5230 C.2     1  UNL1        0.0540
     11  S         25.7040  -24.2370  -14.7920 S.O2    1  UNL1        0.2640
     12  O         27.0440  -24.2100  -15.3280 O.2     1  UNL1       -0.2000
     13  O         25.0890  -25.4980  -14.4200 O.2     1  UNL1       -0.2000
     14  N         24.6530  -23.5620  -15.8950 N.3     1  UNL1       -0.2680
     15  H         23.8220  -24.1310  -16.0280 H       1  UNL1        0.1800
     16  C         24.8620  -22.4050  -16.6360 C.3     1  UNL1        0.1080
     17  N         24.5000  -21.2280  -16.2570 N.3     1  UNL1       -0.2760
     18  C         24.9000  -20.3260  -17.3550 C.3     1  UNL1        0.1510
     19  C         25.9430  -21.0910  -18.1530 C.3     1  UNL1        0.0290
     20  C         25.5070  -22.5260  -17.9770 C.3     1  UNL1        0.0800
     21  C         21.9140  -22.8960   -8.6560 C.2     1  UNL1        0.0560
     22  C         21.7020  -21.9260   -7.6390 C.2     1  UNL1        0.0440
     23  C         20.3910  -22.0070   -7.2180 C.2     1  UNL1        0.0140
     24  N         19.7750  -23.0120   -7.9450 N.pl3   1  UNL1       -0.3190
     25  C         19.6930  -21.1550   -6.2140 C.3     1  UNL1        0.0680
     26  C         20.7190  -23.6080   -8.7780 C.2     1  UNL1        0.0290
     27  C         20.4430  -24.8690   -9.5350 C.3     1  UNL1        0.0700
     28  C         18.4200  -23.4160   -7.8020 C.2     1  UNL1        0.0450
     29  C         18.0960  -24.2310   -6.7060 C.2     1  UNL1        0.0300
     30  C         16.7910  -24.6900   -6.5430 C.2     1  UNL1        0.0020
     31  C         15.8110  -24.3390   -7.4670 C.2     1  UNL1        0.0010
     32  C         16.1300  -23.5150   -8.5500 C.2     1  UNL1        0.0090
     33  C         17.4340  -23.0230   -8.7280 C.2     1  UNL1       -0.0350
     34  C         17.6890  -22.0940   -9.8810 C.3     1  UNL1        0.0500
@<TRIPOS>BOND
     1    19    20    1
     2    19    18    1
     3    20    16    1
     4    18    17    1
     5    16    17    1
     6    16    14    1
     7    15    14    1
     8    14    11    1
     9    12    11    2
    10    11    13    2
    11    11     9    1
    12     9     8    2
    13     9    10    1
    14     8     7    1
    15    10     5    2
    16     7     6    2
    17     5     6    1
    18     5     3    1
    19     4     3    1
    20     3     1   am
    21    34    33    1
    22    27    26    1
    23     1     2    2
    24     1    21    1
    25    26    21    2
    26    26    24    1
    27    33    32    1
    28    33    28    2
    29    21    22    1
    30    32    31    2
    31    24    28    1
    32    24    23    1
    33    28    29    1
    34    22    23    2
    35    31    30    1
    36    23    25    1
    37    29    30    2
