@<TRIPOS>MOLECULE
42632_out_ligand_01.pdbqt
 33 36 0 0 0
SMALL
GASTEIGER

@<TRIPOS>ATOM
      1  C         21.6360  -23.2580   -9.6030 C.2     1  UNL1       -0.0210
      2  C         20.8990  -23.9000   -8.6280 C.2     1  UNL1        0.1000
      3  N         19.5780  -23.5530   -8.7770 N.pl3   1  UNL1       -0.3510
      4  C         19.4300  -22.7210   -9.8680 C.2     1  UNL1        0.0450
      5  C         18.2890  -22.1250  -10.4340 C.2     1  UNL1        0.0300
      6  C         18.4570  -21.3000  -11.5500 C.2     1  UNL1        0.0020
      7  C         19.7190  -21.0700  -12.0850 C.2     1  UNL1        0.0010
      8  C         20.8500  -21.6650  -11.5170 C.2     1  UNL1        0.0140
      9  C         20.7090  -22.5060  -10.3920 C.2     1  UNL1       -0.0010
     10  C         23.1210  -23.3360   -9.7900 C.3     1  UNL1        0.1440
     11  C         23.7580  -22.0800  -10.3790 C.2     1  UNL1        0.2260
     12  N         24.2380  -22.2300  -11.6690 N.am    1  UNL1       -0.3270
     13  H         24.0320  -23.1130  -12.1210 H       1  UNL1        0.1690
     14  O         23.8620  -21.0690   -9.6870 O.2     1  UNL1       -0.2730
     15  C         24.8930  -21.2700  -12.4650 C.2     1  UNL1        0.0340
     16  C         24.3200  -20.9790  -13.7120 C.2     1  UNL1        0.0300
     17  C         24.9040  -20.0410  -14.5700 C.2     1  UNL1        0.0190
     18  C         26.0770  -19.3820  -14.1920 C.2     1  UNL1        0.0320
     19  C         26.6440  -19.6580  -12.9430 C.2     1  UNL1        0.0190
     20  C         26.0580  -20.6000  -12.0890 C.2     1  UNL1        0.0300
     21  C         26.7380  -18.3750  -15.0640 C.2     1  UNL1        0.2490
     22  N         27.1210  -17.1960  -14.4850 N.am    1  UNL1       -0.3660
     23  H         27.4390  -16.4820  -15.1280 H       1  UNL1        0.1590
     24  H         26.7320  -16.8830  -13.6080 H       1  UNL1        0.1590
     25  O         26.9070  -18.5680  -16.2600 O.2     1  UNL1       -0.2680
     26  C         18.5060  -24.0410   -7.9150 C.3     1  UNL1        0.1670
     27  C         18.3950  -23.2370   -6.6410 C.2     1  UNL1       -0.0400
     28  C         17.7020  -23.7570   -5.5330 C.2     1  UNL1        0.0120
     29  C         17.5900  -23.0140   -4.3580 C.2     1  UNL1        0.0430
     30  C         18.1660  -21.7520   -4.2850 C.2     1  UNL1        0.1160
     31  F         18.0560  -21.0400   -3.1550 F       1  UNL1       -0.2060
     32  C         18.8530  -21.2170   -5.3660 C.2     1  UNL1        0.0430
     33  C         18.9670  -21.9560   -6.5440 C.2     1  UNL1        0.0120
@<TRIPOS>BOND
     1    25    21    2
     2    23    22    1
     3    21    22   am
     4    21    18    1
     5    17    18    2
     6    17    16    1
     7    22    24    1
     8    18    19    1
     9    16    15    2
    10    19    20    2
    11    15    20    1
    12    15    12    1
    13    13    12    1
    14     7     6    2
    15     7     8    1
    16    12    11   am
    17     6     5    1
    18     8     9    2
    19     5     4    2
    20     9     4    1
    21     9     1    1
    22    11    10    1
    23    11    14    2
    24     4     3    1
    25    10     1    1
    26     1     2    2
    27     3     2    1
    28     3    26    1
    29    26    27    1
    30    27    33    2
    31    27    28    1
    32    33    32    1
    33    28    29    2
    34    32    30    2
    35    29    30    1
    36    30    31    1
