@<TRIPOS>MOLECULE
42671_out_ligand_01.pdbqt
 36 38 0 0 0
SMALL
GASTEIGER

@<TRIPOS>ATOM
      1  C         19.0900  -21.4270  -11.0560 C.2     1  UNL1        0.2460
      2  O         19.2230  -20.3950  -11.7060 O.2     1  UNL1       -0.2710
      3  N         20.1000  -22.2490  -10.5870 N.am    1  UNL1       -0.3250
      4  H         19.7890  -23.0160   -9.9990 H       1  UNL1        0.1690
      5  C         17.6930  -21.9460  -10.6940 C.3     1  UNL1        0.2780
      6  O         17.6780  -23.1880  -10.0000 O.2     1  UNL1       -0.3420
      7  C         17.3060  -23.1930   -8.6800 C.2     1  UNL1        0.0750
      8  C         16.1310  -22.6220   -8.1760 C.2     1  UNL1        0.0390
      9  C         15.8590  -22.6590   -6.8060 C.2     1  UNL1        0.0280
     10  C         16.7590  -23.2750   -5.9370 C.2     1  UNL1        0.0800
     11  C         17.9460  -23.8300   -6.4230 C.2     1  UNL1        0.0340
     12  C         18.2260  -23.7930   -7.7970 C.2     1  UNL1       -0.0270
     13  C         19.5080  -24.3930   -8.3100 C.3     1  UNL1        0.0510
     14  S         16.4310  -23.3090   -4.1920 S.O2    1  UNL1        0.2580
     15  O         17.2820  -24.3130   -3.5930 O.2     1  UNL1       -0.2010
     16  O         14.9970  -23.3160   -4.0140 O.2     1  UNL1       -0.2010
     17  N         16.9670  -21.8010   -3.6920 N.3     1  UNL1       -0.3150
     18  H         16.3110  -21.0440   -3.8780 H       1  UNL1        0.1720
     19  C         18.3990  -21.5110   -3.6500 C.3     1  UNL1        0.1320
     20  C         18.7120  -20.4230   -4.6730 C.3     1  UNL1        0.0160
     21  C         19.7110  -20.9060   -5.7130 C.3     1  UNL1        0.0060
     22  C         21.4890  -22.0950  -10.7500 C.2     1  UNL1        0.0350
     23  C         22.2190  -21.6860   -9.6260 C.2     1  UNL1        0.0290
     24  C         23.6020  -21.5080   -9.6950 C.2     1  UNL1        0.0030
     25  C         24.2740  -21.7370  -10.8950 C.2     1  UNL1        0.0150
     26  C         23.5560  -22.1420  -12.0260 C.2     1  UNL1        0.0120
     27  C         22.1660  -22.3310  -11.9480 C.2     1  UNL1        0.0440
     28  C         24.2420  -22.4040  -13.3170 C.2     1  UNL1        0.1410
     29  N         25.0270  -23.4260  -13.4570 N.2     1  UNL1       -0.2350
     30  C         25.6300  -23.6130  -14.6770 C.2     1  UNL1        0.0380
     31  C         26.5350  -24.8090  -14.7650 C.3     1  UNL1        0.0700
     32  C         25.4430  -22.8090  -15.7320 C.2     1  UNL1        0.1010
     33  C         24.5380  -21.6640  -15.5770 C.2     1  UNL1        0.2480
     34  O         24.2970  -20.9020  -16.5040 O.2     1  UNL1       -0.2680
     35  N         23.9910  -21.5200  -14.3380 N.am    1  UNL1       -0.3070
     36  H         23.3300  -20.7650  -14.2400 H       1  UNL1        0.1700
@<TRIPOS>BOND
     1    34    33    2
     2    32    33    1
     3    32    30    2
     4    33    35   am
     5    31    30    1
     6    30    29    1
     7    35    36    1
     8    35    28    1
     9    29    28    2
    10    28    26    1
    11    26    27    1
    12    26    25    2
    13    27    22    2
    14     2     1    2
    15     1     5    1
    16     1     3   am
    17    25    24    1
    18    22     3    1
    19    22    23    1
    20     5     6    1
    21     3     4    1
    22     6     7    1
    23    24    23    2
    24     7     8    2
    25     7    12    1
    26    13    12    1
    27     8     9    1
    28    12    11    2
    29     9    10    2
    30    11    10    1
    31    10    14    1
    32    21    20    1
    33    20    19    1
    34    14    16    2
    35    14    17    1
    36    14    15    2
    37    18    17    1
    38    17    19    1
