@<TRIPOS>MOLECULE
42679_out_ligand_01.pdbqt
 41 44 0 0 0
SMALL
GASTEIGER

@<TRIPOS>ATOM
      1  O         20.6840  -21.9650  -12.3310 O.2     1  UNL1       -0.3420
      2  C         19.8320  -20.8350  -12.1810 C.3     1  UNL1        0.2780
      3  C         18.5440  -21.1100  -11.3940 C.2     1  UNL1        0.2460
      4  N         18.6900  -22.1330  -10.4710 N.am    1  UNL1       -0.3250
      5  H         19.6090  -22.5690  -10.4570 H       1  UNL1        0.1690
      6  O         17.5330  -20.4410  -11.5860 O.2     1  UNL1       -0.2710
      7  C         17.7290  -22.6420   -9.5790 C.2     1  UNL1        0.0350
      8  C         16.6150  -23.2780  -10.1420 C.2     1  UNL1        0.0290
      9  C         15.6120  -23.8070   -9.3290 C.2     1  UNL1        0.0030
     10  C         15.7180  -23.7100   -7.9430 C.2     1  UNL1        0.0150
     11  C         16.8330  -23.0900   -7.3660 C.2     1  UNL1        0.0120
     12  C         17.8280  -22.5440   -8.1890 C.2     1  UNL1        0.0440
     13  C         16.9180  -23.0210   -5.8800 C.2     1  UNL1        0.1410
     14  N         16.0840  -23.8490   -5.1660 N.am    1  UNL1       -0.3070
     15  C         16.0340  -23.8370   -3.8060 C.2     1  UNL1        0.2480
     16  H         15.4100  -24.4520   -5.6150 H       1  UNL1        0.1700
     17  C         16.9810  -22.9260   -3.1530 C.2     1  UNL1        0.1010
     18  O         15.2520  -24.5220   -3.1570 O.2     1  UNL1       -0.2680
     19  C         17.7640  -22.1660   -3.9300 C.2     1  UNL1        0.0380
     20  C         18.7530  -21.2080   -3.3320 C.3     1  UNL1        0.0700
     21  N         17.7330  -22.1930   -5.3050 N.2     1  UNL1       -0.2350
     22  C         22.0290  -21.7510  -12.4860 C.2     1  UNL1        0.0750
     23  C         22.6150  -21.0810  -13.5680 C.2     1  UNL1        0.0390
     24  C         24.0020  -20.9250  -13.6360 C.2     1  UNL1        0.0280
     25  C         24.8060  -21.4510  -12.6250 C.2     1  UNL1        0.0800
     26  C         24.2360  -22.1240  -11.5410 C.2     1  UNL1        0.0340
     27  C         22.8450  -22.2890  -11.4720 C.2     1  UNL1       -0.0270
     28  C         22.2440  -23.0160  -10.2990 C.3     1  UNL1        0.0510
     29  S         26.5670  -21.2190  -12.6820 S.O2    1  UNL1        0.2630
     30  O         27.1210  -21.5590  -11.3890 O.2     1  UNL1       -0.2000
     31  O         26.8180  -19.9220  -13.2770 O.2     1  UNL1       -0.2000
     32  N         27.0480  -22.3600  -13.8290 N.pl3   1  UNL1       -0.2810
     33  H         27.5440  -23.1400  -13.4010 H       1  UNL1        0.1790
     34  C         26.1690  -22.6490  -14.9060 C.2     1  UNL1        0.0430
     35  C         25.5280  -23.8820  -14.9340 C.2     1  UNL1        0.0300
     36  C         24.6710  -24.1940  -15.9890 C.2     1  UNL1        0.0090
     37  C         24.4470  -23.2750  -17.0260 C.2     1  UNL1       -0.0560
     38  C         23.5230  -23.6480  -18.1530 C.3     1  UNL1        0.0490
     39  C         25.0870  -22.0180  -16.9870 C.2     1  UNL1       -0.0540
     40  C         24.8930  -21.0010  -18.0800 C.3     1  UNL1        0.0490
     41  C         25.9480  -21.7180  -15.9180 C.2     1  UNL1        0.0370
@<TRIPOS>BOND
     1    38    37    1
     2    40    39    1
     3    37    39    2
     4    37    36    1
     5    39    41    1
     6    36    35    2
     7    41    34    2
     8    35    34    1
     9    34    32    1
    10    32    33    1
    11    32    29    1
    12    24    23    1
    13    24    25    2
    14    23    22    2
    15    31    29    2
    16    29    25    1
    17    29    30    2
    18    25    26    1
    19    22     1    1
    20    22    27    1
    21     1     2    1
    22     2     3    1
    23     6     3    2
    24    26    27    2
    25    27    28    1
    26     3     4   am
    27     4     5    1
    28     4     7    1
    29     8     7    2
    30     8     9    1
    31     7    12    1
    32     9    10    2
    33    12    11    2
    34    10    11    1
    35    11    13    1
    36    13    21    2
    37    13    14    1
    38    16    14    1
    39    21    19    1
    40    14    15   am
    41    19    20    1
    42    19    17    2
    43    15    18    2
    44    15    17    1
