@<TRIPOS>MOLECULE
42684_out_ligand_01.pdbqt
 34 36 0 0 0
SMALL
GASTEIGER

@<TRIPOS>ATOM
      1  N         20.0420  -22.3280  -10.4760 N.am    1  UNL1       -0.3250
      2  C         19.0730  -21.4520  -10.9340 C.2     1  UNL1        0.2460
      3  O         19.2650  -20.3890  -11.5220 O.2     1  UNL1       -0.2710
      4  H         19.6850  -23.1360   -9.9750 H       1  UNL1        0.1690
      5  C         21.4400  -22.2180  -10.5960 C.2     1  UNL1        0.0350
      6  C         22.1370  -21.7560   -9.4740 C.2     1  UNL1        0.0290
      7  C         23.5260  -21.6280   -9.5060 C.2     1  UNL1        0.0030
      8  C         24.2300  -21.9710  -10.6590 C.2     1  UNL1        0.0150
      9  C         23.5490  -22.4360  -11.7940 C.2     1  UNL1        0.0120
     10  C         22.1500  -22.5460  -11.7570 C.2     1  UNL1        0.0440
     11  C         24.3500  -22.7750  -13.0130 C.2     1  UNL1        0.1410
     12  N         25.1370  -23.9020  -12.9700 N.am    1  UNL1       -0.3070
     13  C         25.9220  -24.2880  -14.0150 C.2     1  UNL1        0.2480
     14  H         25.2270  -24.4740  -12.1450 H       1  UNL1        0.1700
     15  C         25.8360  -23.4430  -15.2100 C.2     1  UNL1        0.1010
     16  O         26.6590  -25.2660  -13.9740 O.2     1  UNL1       -0.2680
     17  C         25.0460  -22.3630  -15.1610 C.2     1  UNL1        0.0380
     18  C         24.9160  -21.4430  -16.3410 C.3     1  UNL1        0.0700
     19  N         24.2990  -22.0120  -14.0620 N.2     1  UNL1       -0.2350
     20  C         17.6470  -21.9470  -10.6570 C.3     1  UNL1        0.2780
     21  O         17.5820  -23.1780   -9.9420 O.2     1  UNL1       -0.3420
     22  C         17.0750  -23.1390   -8.6680 C.2     1  UNL1        0.0750
     23  C         15.8770  -22.5070   -8.3140 C.2     1  UNL1        0.0390
     24  C         15.4460  -22.5020   -6.9850 C.2     1  UNL1        0.0280
     25  C         16.2130  -23.1390   -6.0080 C.2     1  UNL1        0.0800
     26  C         17.4330  -23.7350   -6.3400 C.2     1  UNL1        0.0340
     27  C         17.8720  -23.7390   -7.6750 C.2     1  UNL1       -0.0270
     28  C         19.1890  -24.3780   -8.0240 C.3     1  UNL1        0.0510
     29  S         15.6740  -23.1110   -4.3100 S.O2    1  UNL1        0.2600
     30  O         15.2010  -24.4420   -3.9880 O.2     1  UNL1       -0.2000
     31  O         14.8170  -21.9570   -4.1500 O.2     1  UNL1       -0.2000
     32  N         17.1180  -22.8340   -3.4540 N.3     1  UNL1       -0.3150
     33  C         17.9050  -21.6500   -3.8360 C.3     1  UNL1        0.1620
     34  C         17.9490  -24.0140   -3.1530 C.3     1  UNL1        0.1620
@<TRIPOS>BOND
     1    18    17    1
     2    15    17    2
     3    15    13    1
     4    17    19    1
     5    19    11    2
     6    13    16    2
     7    13    12   am
     8    11    12    1
     9    11     9    1
    10    12    14    1
    11     9    10    1
    12     9     8    2
    13    10     5    2
    14     3     2    2
    15     2    20    1
    16     2     1   am
    17     8     7    1
    18    20    21    1
    19     5     1    1
    20     5     6    1
    21     1     4    1
    22    21    22    1
    23     7     6    2
    24    22    23    2
    25    22    27    1
    26    23    24    1
    27    28    27    1
    28    27    26    2
    29    24    25    2
    30    26    25    1
    31    25    29    1
    32    29    31    2
    33    29    30    2
    34    29    32    1
    35    33    32    1
    36    32    34    1
