@<TRIPOS>MOLECULE
42696_out_ligand_01.pdbqt
 34 36 0 0 0
SMALL
GASTEIGER

@<TRIPOS>ATOM
      1  C         21.2110  -23.3890   -8.4690 C.2     1  UNL1       -0.0580
      2  C         20.8030  -22.2680   -7.7310 C.2     1  UNL1        0.0090
      3  C         19.6140  -22.2970   -7.0000 C.2     1  UNL1        0.0260
      4  C         18.8280  -23.4520   -7.0090 C.2     1  UNL1        0.0790
      5  C         19.2080  -24.5680   -7.7580 C.2     1  UNL1        0.0260
      6  C         20.4020  -24.5350   -8.4800 C.2     1  UNL1        0.0090
      7  C         22.4890  -23.3540   -9.2770 C.3     1  UNL1        0.0480
      8  C         23.1780  -21.9930   -9.2090 C.3     1  UNL1        0.1080
      9  C         24.0390  -21.7300  -10.4340 C.2     1  UNL1        0.2220
     10  N         23.7000  -22.5440  -11.5050 N.am    1  UNL1       -0.3260
     11  H         23.2480  -23.4100  -11.2410 H       1  UNL1        0.1690
     12  O         24.9190  -20.8760  -10.4210 O.2     1  UNL1       -0.2730
     13  C         24.3320  -22.5480  -12.7730 C.2     1  UNL1        0.0460
     14  C         23.6970  -21.8270  -13.8170 C.2     1  UNL1       -0.0330
     15  C         24.2730  -21.8030  -15.0980 C.2     1  UNL1        0.0280
     16  C         22.3930  -21.0940  -13.6180 C.3     1  UNL1        0.0500
     17  C         25.4590  -22.4820  -15.3480 C.2     1  UNL1        0.0120
     18  C         26.1040  -23.1640  -14.3230 C.2     1  UNL1        0.0280
     19 BR         26.2110  -22.4550  -17.0820 Br      1  UNL1       -0.0510
     20  C         25.5720  -23.1800  -13.0200 C.2     1  UNL1       -0.0330
     21  C         26.4120  -23.8490  -11.9640 C.3     1  UNL1        0.0500
     22  S         17.3060  -23.4800   -6.0980 S.O2    1  UNL1        0.2580
     23  O         17.0290  -22.1520   -5.6010 O.2     1  UNL1       -0.2010
     24  O         17.3470  -24.6280   -5.2180 O.2     1  UNL1       -0.2010
     25  N         16.1820  -23.8380   -7.2950 N.3     1  UNL1       -0.3150
     26  H         15.3760  -24.3340   -6.9130 H       1  UNL1        0.1720
     27  C         15.9060  -22.8050   -8.3080 C.3     1  UNL1        0.1370
     28  C         16.2960  -23.3080   -9.7040 C.3     1  UNL1        0.0580
     29  C         17.2810  -22.4100  -10.4160 C.2     1  UNL1       -0.0570
     30  C         18.5740  -22.8640  -10.7100 C.2     1  UNL1        0.0070
     31  C         19.4820  -22.0350  -11.3700 C.2     1  UNL1        0.0010
     32  C         19.1080  -20.7450  -11.7410 C.2     1  UNL1        0.0000
     33  C         17.8260  -20.2810  -11.4510 C.2     1  UNL1        0.0010
     34  C         16.9150  -21.1090  -10.7920 C.2     1  UNL1        0.0070
@<TRIPOS>BOND
     1    19    17    1
     2    17    15    2
     3    17    18    1
     4    15    14    1
     5    18    20    2
     6    14    16    1
     7    14    13    2
     8    20    13    1
     9    20    21    1
    10    13    10    1
    11    32    33    2
    12    32    31    1
    13    10    11    1
    14    10     9   am
    15    33    34    1
    16    31    30    2
    17    34    29    2
    18    30    29    1
    19     9    12    2
    20     9     8    1
    21    29    28    1
    22    28    27    1
    23     7     8    1
    24     7     1    1
    25     6     1    2
    26     6     5    1
    27     1     2    1
    28    27    25    1
    29     5     4    2
    30     2     3    2
    31    25    26    1
    32    25    22    1
    33     4     3    1
    34     4    22    1
    35    22    23    2
    36    22    24    2
