@<TRIPOS>MOLECULE
42692_out_ligand_01.pdbqt
 35 37 0 0 0
SMALL
GASTEIGER

@<TRIPOS>ATOM
      1  C         21.2130  -22.2610   -7.7090 C.2     1  UNL1       -0.0580
      2  C         20.3710  -21.4890   -6.8950 C.2     1  UNL1        0.0090
      3  C         19.0850  -21.9380   -6.5850 C.2     1  UNL1        0.0260
      4  C         18.6440  -23.1640   -7.0890 C.2     1  UNL1        0.0790
      5  C         19.4790  -23.9530   -7.8810 C.2     1  UNL1        0.0260
      6  C         20.7600  -23.4970   -8.1920 C.2     1  UNL1        0.0090
      7  C         22.6100  -21.7800   -8.0370 C.3     1  UNL1        0.0480
      8  C         23.3650  -22.7720   -8.9210 C.3     1  UNL1        0.1080
      9  C         23.8640  -22.1240  -10.2020 C.2     1  UNL1        0.2220
     10  N         23.6100  -22.8980  -11.3230 N.am    1  UNL1       -0.3260
     11  H         22.7860  -23.4770  -11.2410 H       1  UNL1        0.1690
     12  O         24.4210  -21.0300  -10.1900 O.2     1  UNL1       -0.2730
     13  C         24.0130  -22.5850  -12.6450 C.2     1  UNL1        0.0470
     14  C         23.2350  -21.7760  -13.5070 C.2     1  UNL1       -0.0330
     15  C         23.7010  -21.5100  -14.8100 C.2     1  UNL1        0.0280
     16  C         21.9300  -21.1290  -13.1190 C.3     1  UNL1        0.0500
     17  C         24.9390  -21.9780  -15.2330 C.2     1  UNL1        0.0120
     18  C         25.7330  -22.7270  -14.3740 C.2     1  UNL1        0.0280
     19 BR         25.5540  -21.5750  -16.9750 Br      1  UNL1       -0.0510
     20  C         25.2850  -23.0450  -13.0780 C.2     1  UNL1       -0.0300
     21  C         26.1970  -23.9050  -12.2240 C.3     1  UNL1        0.0360
     22  C         27.1210  -23.0700  -11.3530 C.3     1  UNL1        0.0100
     23  S         17.0060  -23.7250   -6.6980 S.O2    1  UNL1        0.2590
     24  O         16.1880  -22.5520   -6.4820 O.2     1  UNL1       -0.2010
     25  O         17.0990  -24.7780   -5.7090 O.2     1  UNL1       -0.2010
     26  N         16.5160  -24.3910   -8.1480 N.3     1  UNL1       -0.3070
     27  H         17.1160  -25.1350   -8.5000 H       1  UNL1        0.1730
     28  C         15.7640  -23.5850   -9.1110 C.3     1  UNL1        0.1220
     29  C         14.8510  -24.5280   -9.9040 C.3     1  UNL1        0.0380
     30  C         16.7110  -22.7720   -9.9740 C.2     1  UNL1       -0.0350
     31  C         16.3900  -21.4320  -10.2550 C.2     1  UNL1        0.0090
     32  C         17.2400  -20.6390  -11.0290 C.2     1  UNL1        0.0010
     33  C         18.4280  -21.1690  -11.5250 C.2     1  UNL1        0.0000
     34  C         18.7710  -22.4880  -11.2420 C.2     1  UNL1        0.0010
     35  C         17.9230  -23.2830  -10.4670 C.2     1  UNL1        0.0090
@<TRIPOS>BOND
     1    19    17    1
     2    17    15    2
     3    17    18    1
     4    15    14    1
     5    18    20    2
     6    14    16    1
     7    14    13    2
     8    20    13    1
     9    20    21    1
    10    13    10    1
    11    21    22    1
    12    33    34    2
    13    33    32    1
    14    10    11    1
    15    10     9   am
    16    34    35    1
    17    32    31    2
    18    35    30    2
    19    31    30    1
    20     9    12    2
    21     9     8    1
    22    30    28    1
    23    29    28    1
    24    28    26    1
    25     8     7    1
    26    27    26    1
    27     6     5    1
    28     6     1    2
    29    26    23    1
    30     7     1    1
    31     5     4    2
    32     1     2    1
    33     4    23    1
    34     4     3    1
    35     2     3    2
    36    23    24    2
    37    23    25    2
