@<TRIPOS>MOLECULE
42699_out_ligand_01.pdbqt
 39 42 0 0 0
SMALL
GASTEIGER

@<TRIPOS>ATOM
      1  C         23.3660  -23.5980   -9.6490 C.3     1  UNL1        0.2380
      2  N         23.3350  -22.6320  -10.7930 N.3     1  UNL1       -0.2980
      3  S         24.8900  -22.1060  -11.2810 S.O2    1  UNL1        0.2610
      4  O         25.8560  -23.0270  -10.7280 O.2     1  UNL1       -0.2000
      5  O         24.9910  -20.6880  -11.0230 O.2     1  UNL1       -0.2000
      6  C         24.8480  -22.3870  -13.0310 C.2     1  UNL1        0.0790
      7  C         25.3330  -23.6010  -13.5290 C.2     1  UNL1        0.0260
      8  C         25.2500  -23.8660  -14.8970 C.2     1  UNL1        0.0080
      9  C         24.6700  -22.9290  -15.7660 C.2     1  UNL1       -0.0620
     10  C         24.5800  -23.2120  -17.2400 C.3     1  UNL1        0.0480
     11  C         24.2310  -21.6970  -15.2560 C.2     1  UNL1        0.0080
     12  C         24.3260  -21.4180  -13.8900 C.2     1  UNL1        0.0260
     13  C         22.2170  -21.6370  -10.7280 C.3     1  UNL1        0.1400
     14  C         21.1760  -21.7310  -11.8530 C.3     1  UNL1        0.0590
     15  C         19.7330  -21.7120  -11.3970 C.2     1  UNL1       -0.0570
     16  C         19.2190  -22.7850  -10.6510 C.2     1  UNL1        0.0070
     17  C         17.8830  -22.7920  -10.2290 C.2     1  UNL1        0.0010
     18  C         17.0400  -21.7330  -10.5630 C.2     1  UNL1        0.0000
     19  C         17.5330  -20.6670  -11.3220 C.2     1  UNL1        0.0010
     20  C         18.8700  -20.6580  -11.7400 C.2     1  UNL1        0.0070
     21  C         22.1130  -23.4800   -8.7750 C.2     1  UNL1        0.2400
     22  O         21.2750  -24.3760   -8.7390 O.2     1  UNL1       -0.2710
     23  N         22.1220  -22.3260   -8.0070 N.am    1  UNL1       -0.3260
     24  H         22.9270  -21.7280   -8.1700 H       1  UNL1        0.1690
     25  C         21.1200  -21.8370   -7.1500 C.2     1  UNL1        0.0350
     26  C         21.4180  -20.6680   -6.4350 C.2     1  UNL1        0.0290
     27  C         20.4700  -20.0840   -5.5960 C.2     1  UNL1        0.0030
     28  C         19.2060  -20.6530   -5.4770 C.2     1  UNL1        0.0150
     29  C         18.8980  -21.8180   -6.1890 C.2     1  UNL1        0.0120
     30  C         19.8610  -22.4190   -7.0100 C.2     1  UNL1        0.0440
     31  C         17.5460  -22.4270   -6.1030 C.2     1  UNL1        0.1410
     32  N         17.1260  -23.2550   -7.0050 N.2     1  UNL1       -0.2350
     33  C         15.8520  -23.7580   -6.8740 C.2     1  UNL1        0.0380
     34  C         15.4280  -24.7070   -7.9580 C.3     1  UNL1        0.0700
     35  C         15.0210  -23.4280   -5.8780 C.2     1  UNL1        0.1010
     36  C         15.4960  -22.4780   -4.8630 C.2     1  UNL1        0.2480
     37  O         14.7820  -22.1000   -3.9430 O.2     1  UNL1       -0.2680
     38  N         16.7750  -22.0420   -5.0340 N.am    1  UNL1       -0.3070
     39  H         17.0920  -21.3560   -4.3630 H       1  UNL1        0.1700
@<TRIPOS>BOND
     1    10     9    1
     2     9    11    2
     3     9     8    1
     4    11    12    1
     5     8     7    2
     6    12     6    2
     7     7     6    1
     8     6     3    1
     9    14    15    1
    10    14    13    1
    11    20    15    2
    12    20    19    1
    13    15    16    1
    14    19    18    2
    15     3     5    2
    16     3     2    1
    17     3     4    2
    18     2    13    1
    19     2     1    1
    20    16    17    2
    21    18    17    1
    22     1    21    1
    23    21    22    2
    24    21    23   am
    25    24    23    1
    26    23    25    1
    27    34    33    1
    28    25    30    2
    29    25    26    1
    30    30    29    1
    31    32    33    1
    32    32    31    2
    33    33    35    2
    34    26    27    2
    35    29    31    1
    36    29    28    2
    37    31    38    1
    38    35    36    1
    39    27    28    1
    40    38    36   am
    41    38    39    1
    42    36    37    2
