@<TRIPOS>MOLECULE
42690_out_ligand_01.pdbqt
 41 45 0 0 0
SMALL
GASTEIGER

@<TRIPOS>ATOM
      1  O         20.6720  -21.8290  -12.4320 O.2     1  UNL1       -0.3420
      2  C         19.8770  -20.6910  -12.1120 C.3     1  UNL1        0.2780
      3  C         18.6160  -20.9990  -11.2950 C.2     1  UNL1        0.2460
      4  N         18.7580  -22.1000  -10.4680 N.am    1  UNL1       -0.3250
      5  H         19.6710  -22.5470  -10.4930 H       1  UNL1        0.1690
      6  O         17.6200  -20.2830  -11.3880 O.2     1  UNL1       -0.2710
      7  C         17.8030  -22.6500   -9.5870 C.2     1  UNL1        0.0350
      8  C         16.7370  -23.3570  -10.1560 C.2     1  UNL1        0.0290
      9  C         15.7500  -23.9270   -9.3460 C.2     1  UNL1        0.0030
     10  C         15.8350  -23.8090   -7.9590 C.2     1  UNL1        0.0150
     11  C         16.9030  -23.1140   -7.3730 C.2     1  UNL1        0.0120
     12  C         17.8690  -22.5180   -8.1970 C.2     1  UNL1        0.0440
     13  C         16.9700  -23.0210   -5.8850 C.2     1  UNL1        0.1410
     14  N         16.1990  -23.9030   -5.1650 N.am    1  UNL1       -0.3070
     15  C         16.1390  -23.8800   -3.8040 C.2     1  UNL1        0.2480
     16  H         15.5750  -24.5630   -5.6050 H       1  UNL1        0.1700
     17  C         17.0070  -22.8900   -3.1560 C.2     1  UNL1        0.1010
     18  O         15.4090  -24.6200   -3.1540 O.2     1  UNL1       -0.2680
     19  C         17.7300  -22.0790   -3.9380 C.2     1  UNL1        0.0380
     20  C         18.6360  -21.0360   -3.3470 C.3     1  UNL1        0.0700
     21  N         17.7130  -22.1260   -5.3110 N.2     1  UNL1       -0.2350
     22  C         22.0110  -21.6330  -12.6480 C.2     1  UNL1        0.0750
     23  C         22.5400  -20.9110  -13.7280 C.2     1  UNL1        0.0390
     24  C         23.9250  -20.7990  -13.8930 C.2     1  UNL1        0.0270
     25  C         24.7770  -21.4040  -12.9690 C.2     1  UNL1        0.0750
     26  C         24.2610  -22.1360  -11.8930 C.2     1  UNL1        0.0340
     27  C         22.8740  -22.2640  -11.7320 C.2     1  UNL1       -0.0270
     28  C         22.3330  -23.0430  -10.5640 C.3     1  UNL1        0.0510
     29  S         26.5520  -21.3050  -13.1510 S.O2    1  UNL1        0.2480
     30  O         26.9210  -20.0600  -12.5110 O.2     1  UNL1       -0.2050
     31  O         27.1120  -22.5630  -12.7010 O.2     1  UNL1       -0.2050
     32  N         26.7060  -21.2270  -14.8860 N.pl3   1  UNL1       -0.1720
     33  C         26.8730  -19.8070  -15.3430 C.3     1  UNL1        0.1140
     34  C         26.8890  -19.7100  -16.8580 C.3     1  UNL1        0.0200
     35  C         25.5570  -20.2010  -17.4020 C.3     1  UNL1        0.0420
     36  C         25.2390  -21.5740  -16.8790 C.2     1  UNL1       -0.0360
     37  C         24.3820  -22.3890  -17.6440 C.2     1  UNL1        0.0090
     38  C         25.7820  -22.0540  -15.6680 C.2     1  UNL1        0.0310
     39  C         24.1260  -23.7060  -17.2690 C.2     1  UNL1        0.0010
     40  C         24.7410  -24.2240  -16.1400 C.2     1  UNL1        0.0020
     41  C         25.5760  -23.4100  -15.3620 C.2     1  UNL1        0.0250
@<TRIPOS>BOND
     1    37    39    1
     2    37    36    2
     3    35    36    1
     4    35    34    1
     5    39    40    2
     6    36    38    1
     7    34    33    1
     8    40    41    1
     9    38    41    2
    10    38    32    1
    11    33    32    1
    12    32    29    1
    13    24    23    1
    14    24    25    2
    15    23    22    2
    16    29    25    1
    17    29    31    2
    18    29    30    2
    19    25    26    1
    20    22     1    1
    21    22    27    1
    22     1     2    1
    23     2     3    1
    24    26    27    2
    25    27    28    1
    26     6     3    2
    27     3     4   am
    28     5     4    1
    29     4     7    1
    30     8     7    2
    31     8     9    1
    32     7    12    1
    33     9    10    2
    34    12    11    2
    35    10    11    1
    36    11    13    1
    37    13    21    2
    38    13    14    1
    39    16    14    1
    40    21    19    1
    41    14    15   am
    42    19    20    1
    43    19    17    2
    44    15    17    1
    45    15    18    2
