@<TRIPOS>MOLECULE
42706_out_ligand_01.pdbqt
 41 44 0 0 0
SMALL
GASTEIGER

@<TRIPOS>ATOM
      1  N         23.4340  -22.6400  -10.8170 N.3     1  UNL1       -0.2980
      2  S         24.9750  -22.1130  -11.3410 S.O2    1  UNL1        0.2610
      3  O         25.9590  -22.9350  -10.6730 O.2     1  UNL1       -0.2000
      4  O         25.0130  -20.6720  -11.2410 O.2     1  UNL1       -0.2000
      5  C         24.9780  -22.5720  -13.0540 C.2     1  UNL1        0.0800
      6  C         24.6930  -21.6210  -14.0340 C.2     1  UNL1        0.0280
      7  C         24.6950  -21.9980  -15.3790 C.2     1  UNL1        0.0390
      8  C         24.9900  -23.3160  -15.7470 C.2     1  UNL1        0.0740
      9  C         25.2970  -24.2670  -14.7540 C.2     1  UNL1       -0.0270
     10  C         25.2950  -23.8860  -13.4050 C.2     1  UNL1        0.0340
     11  C         25.6310  -25.6870  -15.1270 C.3     1  UNL1        0.0510
     12  O         25.0090  -23.7810  -17.0360 O.2     1  UNL1       -0.3550
     13  C         23.9590  -23.3670  -17.9000 C.3     1  UNL1        0.2100
     14  C         22.3070  -21.6600  -10.8010 C.3     1  UNL1        0.1400
     15  C         21.3390  -21.7750  -11.9810 C.3     1  UNL1        0.0590
     16  C         19.9060  -21.7390  -11.5060 C.2     1  UNL1       -0.0570
     17  C         19.0800  -20.6530  -11.8270 C.2     1  UNL1        0.0070
     18  C         17.7470  -20.6330  -11.4120 C.2     1  UNL1        0.0010
     19  C         17.2300  -21.6960  -10.6760 C.2     1  UNL1        0.0000
     20  C         18.0420  -22.7810  -10.3530 C.2     1  UNL1        0.0010
     21  C         19.3740  -22.8060  -10.7670 C.2     1  UNL1        0.0070
     22  C         23.5020  -23.4900   -9.5790 C.3     1  UNL1        0.2380
     23  C         22.2210  -23.3900   -8.7520 C.2     1  UNL1        0.2400
     24  O         21.4330  -24.3290   -8.6900 O.2     1  UNL1       -0.2710
     25  N         22.1310  -22.1950   -8.0570 N.am    1  UNL1       -0.3260
     26  H         22.8770  -21.5400   -8.2700 H       1  UNL1        0.1690
     27  C         21.1110  -21.7600   -7.1950 C.2     1  UNL1        0.0350
     28  C         21.3970  -20.6610   -6.3750 C.2     1  UNL1        0.0290
     29  C         20.4380  -20.1670   -5.4880 C.2     1  UNL1        0.0030
     30  C         19.1810  -20.7650   -5.4210 C.2     1  UNL1        0.0150
     31  C         18.8770  -21.8570   -6.2440 C.2     1  UNL1        0.0120
     32  C         19.8520  -22.3610   -7.1180 C.2     1  UNL1        0.0440
     33  C         17.5190  -22.4620   -6.1500 C.2     1  UNL1        0.1410
     34  N         17.1030  -23.2870   -7.0600 N.2     1  UNL1       -0.2350
     35  C         15.8430  -23.8190   -6.9220 C.2     1  UNL1        0.0380
     36  C         15.4150  -24.7430   -8.0270 C.3     1  UNL1        0.0700
     37  C         15.0330  -23.5570   -5.8880 C.2     1  UNL1        0.1010
     38  C         15.5200  -22.6520   -4.8410 C.2     1  UNL1        0.2480
     39  O         14.8510  -22.4080   -3.8450 O.2     1  UNL1       -0.2680
     40  N         16.7570  -22.1250   -5.0570 N.am    1  UNL1       -0.3070
     41  H         17.1050  -21.5300   -4.3200 H       1  UNL1        0.1700
@<TRIPOS>BOND
     1    13    12    1
     2    12     8    1
     3     8     7    2
     4     8     9    1
     5     7     6    1
     6    11     9    1
     7     9    10    2
     8     6     5    2
     9    10     5    1
    10     5     2    1
    11    15    16    1
    12    15    14    1
    13    17    16    2
    14    17    18    1
    15    16    21    1
    16    18    19    2
    17     2     4    2
    18     2     1    1
    19     2     3    2
    20     1    14    1
    21     1    22    1
    22    21    20    2
    23    19    20    1
    24    22    23    1
    25    23    24    2
    26    23    25   am
    27    26    25    1
    28    25    27    1
    29    36    35    1
    30    27    32    2
    31    27    28    1
    32    32    31    1
    33    34    35    1
    34    34    33    2
    35    35    37    2
    36    28    29    2
    37    31    33    1
    38    31    30    2
    39    33    40    1
    40    37    38    1
    41    29    30    1
    42    40    38   am
    43    40    41    1
    44    38    39    2
