@<TRIPOS>MOLECULE
42705_out_ligand_01.pdbqt
 39 42 0 0 0
SMALL
GASTEIGER

@<TRIPOS>ATOM
      1  C         23.0920  -23.6640   -9.5250 C.3     1  UNL1        0.2380
      2  N         23.1940  -22.6230  -10.5940 N.3     1  UNL1       -0.2940
      3  S         24.7750  -22.1810  -11.0650 S.O2    1  UNL1        0.2610
      4  O         24.9690  -20.7970  -10.6880 O.2     1  UNL1       -0.2000
      5  O         25.6810  -23.2060  -10.5930 O.2     1  UNL1       -0.2000
      6  C         24.7460  -22.2570  -12.8410 C.2     1  UNL1        0.0790
      7  C         25.1630  -23.4230  -13.4890 C.2     1  UNL1        0.0260
      8  C         25.1830  -23.4650  -14.8840 C.2     1  UNL1        0.0080
      9  C         24.8140  -22.3420  -15.6360 C.2     1  UNL1       -0.0620
     10  C         24.8410  -22.4060  -17.1360 C.3     1  UNL1        0.0480
     11  C         24.4090  -21.1760  -14.9730 C.2     1  UNL1        0.0080
     12  C         24.3890  -21.1260  -13.5780 C.2     1  UNL1        0.0260
     13  C         22.2350  -22.8280  -11.7130 C.3     1  UNL1        0.1740
     14  C         20.9220  -22.0990  -11.5150 C.2     1  UNL1       -0.0390
     15  C         20.7960  -20.7490  -11.8730 C.2     1  UNL1        0.0090
     16  C         19.5880  -20.0780  -11.6910 C.2     1  UNL1        0.0010
     17  C         18.4830  -20.7570  -11.1770 C.2     1  UNL1        0.0070
     18  C         18.5740  -22.1140  -10.8510 C.2     1  UNL1       -0.0610
     19  C         17.3830  -22.8370  -10.2920 C.3     1  UNL1        0.0480
     20  C         19.8000  -22.7760  -11.0100 C.2     1  UNL1        0.0150
     21  C         21.9490  -23.4330   -8.5420 C.2     1  UNL1        0.2400
     22  O         21.1100  -24.3090   -8.3490 O.2     1  UNL1       -0.2710
     23  N         21.9560  -22.1640   -7.9990 N.am    1  UNL1       -0.3260
     24  H         22.7820  -21.6200   -8.2270 H       1  UNL1        0.1690
     25  C         21.0580  -21.6030   -7.0760 C.2     1  UNL1        0.0350
     26  C         21.3380  -20.4770   -6.3020 C.2     1  UNL1        0.0290
     27  C         20.3880  -19.9810   -5.4020 C.2     1  UNL1        0.0030
     28  C         19.1460  -20.6020   -5.2730 C.2     1  UNL1        0.0150
     29  C         18.8480  -21.7240   -6.0530 C.2     1  UNL1        0.0120
     30  C         19.8120  -22.2260   -6.9400 C.2     1  UNL1        0.0440
     31  C         17.5330  -22.4160   -5.9750 C.2     1  UNL1        0.1410
     32  N         17.1770  -23.2620   -6.8900 N.2     1  UNL1       -0.2350
     33  C         15.9400  -23.8530   -6.7800 C.2     1  UNL1        0.0380
     34  C         15.5840  -24.7990   -7.8900 C.3     1  UNL1        0.0700
     35  C         15.0850  -23.6070   -5.7810 C.2     1  UNL1        0.1010
     36  C         15.4900  -22.6530   -4.7410 C.2     1  UNL1        0.2480
     37  O         14.7570  -22.3800   -3.7980 O.2     1  UNL1       -0.2680
     38  N         16.7240  -22.1010   -4.9080 N.am    1  UNL1       -0.3070
     39  H         16.9830  -21.4090   -4.2220 H       1  UNL1        0.1700
@<TRIPOS>BOND
     1    10     9    1
     2     9    11    2
     3     9     8    1
     4    11    12    1
     5     8     7    2
     6    12     6    2
     7     7     6    1
     8     6     3    1
     9    15    16    1
    10    15    14    2
    11    13    14    1
    12    13     2    1
    13    16    17    2
    14    14    20    1
    15    17    18    1
    16     3     4    2
    17     3     2    1
    18     3     5    2
    19    20    18    2
    20    18    19    1
    21     2     1    1
    22     1    21    1
    23    21    22    2
    24    21    23   am
    25    24    23    1
    26    23    25    1
    27    34    33    1
    28    25    30    2
    29    25    26    1
    30    30    29    1
    31    32    33    1
    32    32    31    2
    33    33    35    2
    34    26    27    2
    35    29    31    1
    36    29    28    2
    37    31    38    1
    38    35    36    1
    39    27    28    1
    40    38    36   am
    41    38    39    1
    42    36    37    2
