@<TRIPOS>MOLECULE
42708_out_ligand_01.pdbqt
 42 45 0 0 0
SMALL
GASTEIGER

@<TRIPOS>ATOM
      1  N         21.2640  -23.0120   -8.3090 N.pl3   1  UNL1       -0.1630
      2  C         20.1790  -22.7200   -7.4010 C.2     1  UNL1        0.0270
      3  C         20.2170  -21.5140   -6.7030 C.2     1  UNL1        0.0270
      4  C         19.1990  -21.1860   -5.8000 C.2     1  UNL1        0.0400
      5  C         18.1360  -22.0680   -5.5810 C.2     1  UNL1        0.0890
      6  C         18.1120  -23.2850   -6.2850 C.2     1  UNL1        0.0690
      7  C         19.1290  -23.6130   -7.1860 C.2     1  UNL1        0.0510
      8 CL         16.8310  -24.4260   -6.0660 Cl      1  UNL1       -0.0810
      9  O         17.0960  -21.8310   -4.7210 O.2     1  UNL1       -0.3540
     10  C         17.2710  -22.1880   -3.3570 C.3     1  UNL1        0.2100
     11  C         22.2610  -21.9060   -8.4840 C.3     1  UNL1        0.2170
     12  C         23.4460  -22.3310   -9.3440 C.2     1  UNL1        0.2360
     13  O         24.1170  -23.3140   -9.0330 O.2     1  UNL1       -0.2720
     14  N         23.6840  -21.5020  -10.4240 N.am    1  UNL1       -0.3260
     15  H         22.9950  -20.7630  -10.5590 H       1  UNL1        0.1690
     16  C         24.7270  -21.5790  -11.3650 C.2     1  UNL1        0.0350
     17  C         26.0310  -21.6910  -10.8670 C.2     1  UNL1        0.0290
     18  C         27.1190  -21.7820  -11.7340 C.2     1  UNL1        0.0030
     19  C         26.9130  -21.7610  -13.1110 C.2     1  UNL1        0.0150
     20  C         25.6170  -21.6460  -13.6270 C.2     1  UNL1        0.0120
     21  C         24.5260  -21.5680  -12.7480 C.2     1  UNL1        0.0440
     22  C         25.4340  -21.6500  -15.1060 C.2     1  UNL1        0.1410
     23  N         25.6320  -20.5670  -15.7930 N.2     1  UNL1       -0.2350
     24  C         25.4600  -20.6270  -17.1560 C.2     1  UNL1        0.0380
     25  C         25.7400  -19.3480  -17.8920 C.3     1  UNL1        0.0700
     26  C         25.0800  -21.7310  -17.8110 C.2     1  UNL1        0.1010
     27  C         24.8210  -22.9450  -17.0290 C.2     1  UNL1        0.2480
     28  O         24.4330  -23.9790  -17.5600 O.2     1  UNL1       -0.2680
     29  N         25.0380  -22.8300  -15.6900 N.am    1  UNL1       -0.3070
     30  H         24.8290  -23.6560  -15.1490 H       1  UNL1        0.1700
     31  S         20.7260  -23.7260   -9.7820 S.O2    1  UNL1        0.2510
     32  O         21.7430  -23.5580  -10.8000 O.2     1  UNL1       -0.2050
     33  O         20.2130  -25.0410   -9.4510 O.2     1  UNL1       -0.2050
     34  C         19.3540  -22.6980  -10.2390 C.2     1  UNL1        0.1080
     35  C         18.0570  -23.0800   -9.8700 C.2     1  UNL1        0.0340
     36  C         16.9650  -22.2700  -10.2040 C.2     1  UNL1       -0.0600
     37  C         15.5790  -22.6510   -9.7760 C.3     1  UNL1        0.0480
     38  C         17.1920  -21.0660  -10.8840 C.2     1  UNL1        0.0090
     39  C         18.4850  -20.6920  -11.2590 C.2     1  UNL1        0.0390
     40  C         19.5660  -21.5210  -10.9570 C.2     1  UNL1        0.0910
     41  O         20.8340  -21.1190  -11.2830 O.2     1  UNL1       -0.3540
     42  C         20.9690  -20.9690  -12.6990 C.3     1  UNL1        0.2100
@<TRIPOS>BOND
     1    25    24    1
     2    26    24    2
     3    26    27    1
     4    28    27    2
     5    24    23    1
     6    27    29   am
     7    23    22    2
     8    29    30    1
     9    29    22    1
    10    22    20    1
    11    20    19    2
    12    20    21    1
    13    19    18    1
    14    21    16    2
    15    42    41    1
    16    18    17    2
    17    16    17    1
    18    16    14    1
    19    41    40    1
    20    39    40    1
    21    39    38    2
    22    40    34    2
    23    38    36    1
    24    32    31    2
    25    15    14    1
    26    14    12   am
    27    34    35    1
    28    34    31    1
    29    36    35    2
    30    36    37    1
    31    31    33    2
    32    31     1    1
    33    12    13    2
    34    12    11    1
    35    11     1    1
    36     1     2    1
    37     2     7    2
    38     2     3    1
    39     7     6    1
    40     3     4    2
    41     6     8    1
    42     6     5    2
    43     4     5    1
    44     5     9    1
    45     9    10    1
