@<TRIPOS>MOLECULE
42707_out_ligand_01.pdbqt
 41 44 0 0 0
SMALL
GASTEIGER

@<TRIPOS>ATOM
      1  N         21.1370  -22.8470   -8.2180 N.pl3   1  UNL1       -0.2630
      2  C         20.1270  -22.4710   -7.2690 C.2     1  UNL1        0.0450
      3  C         19.1200  -23.4010   -7.0000 C.2     1  UNL1        0.0330
      4  C         18.1570  -23.1280   -6.0260 C.2     1  UNL1        0.0390
      5  C         18.2060  -21.9370   -5.2950 C.2     1  UNL1        0.0680
      6  C         19.2240  -21.0140   -5.5530 C.2     1  UNL1        0.0390
      7  C         20.1870  -21.2840   -6.5340 C.2     1  UNL1        0.0330
      8  O         17.2080  -21.7980   -4.3690 O.2     1  UNL1       -0.3560
      9  C         15.9500  -22.3820   -4.6890 C.3     1  UNL1        0.2100
     10  C         22.2560  -21.8910   -8.3830 C.3     1  UNL1        0.2450
     11  C         23.4070  -22.3800   -9.2530 C.2     1  UNL1        0.2410
     12  O         24.0150  -23.4150   -8.9820 O.2     1  UNL1       -0.2710
     13  N         23.6540  -21.5660  -10.3560 N.am    1  UNL1       -0.3260
     14  H         22.9830  -20.8360  -10.5690 H       1  UNL1        0.1690
     15  C         24.7260  -21.6920  -11.2670 C.2     1  UNL1        0.0350
     16  C         26.0200  -21.7870  -10.7400 C.2     1  UNL1        0.0290
     17  C         27.1210  -21.9100  -11.5900 C.2     1  UNL1        0.0030
     18  C         26.9330  -21.9410  -12.9730 C.2     1  UNL1        0.0150
     19  C         25.6450  -21.8600  -13.5170 C.2     1  UNL1        0.0120
     20  C         24.5460  -21.7570  -12.6530 C.2     1  UNL1        0.0440
     21  C         25.4860  -21.9130  -15.0050 C.2     1  UNL1        0.1410
     22  N         26.2500  -21.1930  -15.7700 N.2     1  UNL1       -0.2350
     23  C         26.0680  -21.2750  -17.1310 C.2     1  UNL1        0.0380
     24  C         26.9840  -20.4120  -17.9530 C.3     1  UNL1        0.0700
     25  C         25.1510  -22.0580  -17.7160 C.2     1  UNL1        0.1010
     26  C         24.2790  -22.8620  -16.8540 C.2     1  UNL1        0.2480
     27  O         23.4100  -23.5900  -17.3220 O.2     1  UNL1       -0.2680
     28  N         24.5050  -22.7340  -15.5170 N.am    1  UNL1       -0.3070
     29  H         23.8720  -23.2620  -14.9370 H       1  UNL1        0.1700
     30  S         20.5880  -23.6750   -9.5980 S.O2    1  UNL1        0.2680
     31  O         20.0010  -24.9320   -9.1670 O.2     1  UNL1       -0.2000
     32  O         21.6070  -23.6600  -10.6270 O.2     1  UNL1       -0.2000
     33  C         19.2510  -22.6550  -10.1820 C.2     1  UNL1        0.1130
     34  C         17.9340  -22.9860   -9.8180 C.2     1  UNL1        0.0350
     35  C         16.8630  -22.1830  -10.2330 C.2     1  UNL1       -0.0600
     36  C         15.4530  -22.5210   -9.8340 C.3     1  UNL1        0.0480
     37  C         17.1270  -21.0290  -10.9840 C.2     1  UNL1        0.0090
     38  C         18.4390  -20.7040  -11.3440 C.2     1  UNL1        0.0390
     39  C         19.5010  -21.5290  -10.9670 C.2     1  UNL1        0.0910
     40  O         20.7740  -21.1320  -11.2690 O.2     1  UNL1       -0.3540
     41  C         20.9640  -21.0600  -12.6890 C.3     1  UNL1        0.2100
@<TRIPOS>BOND
     1    24    23    1
     2    25    23    2
     3    25    26    1
     4    27    26    2
     5    23    22    1
     6    26    28   am
     7    22    21    2
     8    28    21    1
     9    28    29    1
    10    21    19    1
    11    19    18    2
    12    19    20    1
    13    18    17    1
    14    41    40    1
    15    20    15    2
    16    17    16    2
    17    38    37    2
    18    38    39    1
    19    40    39    1
    20    15    16    1
    21    15    13    1
    22    37    35    1
    23    39    33    2
    24    32    30    2
    25    14    13    1
    26    13    11   am
    27    35    36    1
    28    35    34    2
    29    33    34    1
    30    33    30    1
    31    30    31    2
    32    30     1    1
    33    11    12    2
    34    11    10    1
    35    10     1    1
    36     1     2    1
    37     2     3    2
    38     2     7    1
    39     3     4    1
    40     7     6    2
    41     4     5    2
    42     6     5    1
    43     5     8    1
    44     9     8    1
