@<TRIPOS>MOLECULE
42703_out_ligand_01.pdbqt
 41 44 0 0 0
SMALL
GASTEIGER

@<TRIPOS>ATOM
      1  N         18.6530  -23.5580   -8.3130 N.pl3   1  UNL1       -0.2630
      2  C         18.2510  -22.6080   -9.3220 C.2     1  UNL1        0.0480
      3  C         16.8830  -22.3630   -9.4700 C.2     1  UNL1        0.0300
      4  C         16.4240  -21.5290  -10.4900 C.2     1  UNL1        0.0050
      5  C         17.3300  -20.9520  -11.3840 C.2     1  UNL1        0.0370
      6  C         18.6940  -21.2140  -11.2650 C.2     1  UNL1        0.0700
      7  C         19.1470  -22.0530  -10.2400 C.2     1  UNL1        0.0670
      8  O         19.6820  -20.7230  -12.0730 O.2     1  UNL1       -0.3560
      9  C         20.8420  -21.5280  -12.2400 C.3     1  UNL1        0.2100
     10  C         20.0260  -23.3760   -7.7600 C.3     1  UNL1        0.2450
     11  C         21.1880  -23.8440   -8.6270 C.2     1  UNL1        0.2410
     12  O         21.1360  -24.9390   -9.1850 O.2     1  UNL1       -0.2710
     13  N         22.2580  -22.9690   -8.6500 N.am    1  UNL1       -0.3260
     14  H         22.1410  -22.0880   -8.1420 H       1  UNL1        0.1690
     15  C         23.4880  -23.1190   -9.3230 C.2     1  UNL1        0.0350
     16  C         24.4940  -24.0020   -8.9290 C.2     1  UNL1        0.0290
     17  C         25.6860  -24.0890   -9.6550 C.2     1  UNL1        0.0030
     18  C         25.8900  -23.2850  -10.7760 C.2     1  UNL1        0.0150
     19  C         24.8980  -22.3820  -11.1710 C.2     1  UNL1        0.0120
     20  C         23.6940  -22.3160  -10.4510 C.2     1  UNL1        0.0440
     21  C         25.0770  -21.4820  -12.3420 C.2     1  UNL1        0.1410
     22  N         25.9650  -20.5380  -12.3200 N.2     1  UNL1       -0.2350
     23  C         26.0910  -19.7440  -13.4350 C.2     1  UNL1        0.0380
     24  C         27.1210  -18.6550  -13.3290 C.3     1  UNL1        0.0700
     25  C         25.3670  -19.9050  -14.5500 C.2     1  UNL1        0.1010
     26  C         24.3840  -20.9920  -14.5830 C.2     1  UNL1        0.2480
     27  O         23.7110  -21.2210  -15.5810 O.2     1  UNL1       -0.2680
     28  N         24.2810  -21.7200  -13.4380 N.am    1  UNL1       -0.3070
     29  H         23.6400  -22.4960  -13.4760 H       1  UNL1        0.1700
     30  S         17.4600  -24.0560   -7.1920 S.O2    1  UNL1        0.2680
     31  O         16.1940  -23.7310   -7.8260 O.2     1  UNL1       -0.2000
     32  O         17.7600  -25.3930   -6.7290 O.2     1  UNL1       -0.2000
     33  C         17.7570  -22.9680   -5.8120 C.2     1  UNL1        0.1130
     34  C         18.6580  -21.9050   -6.0160 C.2     1  UNL1        0.0350
     35  C         18.9160  -20.9900   -4.9910 C.2     1  UNL1       -0.0600
     36  C         19.8970  -19.8740   -5.1950 C.3     1  UNL1        0.0480
     37  C         18.2870  -21.1710   -3.7560 C.2     1  UNL1        0.0090
     38  C         17.4050  -22.2410   -3.5510 C.2     1  UNL1        0.0390
     39  C         17.1340  -23.1590   -4.5730 C.2     1  UNL1        0.0910
     40  O         16.3010  -24.2290   -4.4280 O.2     1  UNL1       -0.3540
     41  C         14.8980  -24.0020   -4.4770 C.3     1  UNL1        0.2100
@<TRIPOS>BOND
     1    27    26    2
     2    26    25    1
     3    26    28   am
     4    25    23    2
     5    29    28    1
     6    28    21    1
     7    23    24    1
     8    23    22    1
     9    21    22    2
    10    21    19    1
    11     9     8    1
    12     8     6    1
    13     5     6    2
    14     5     4    1
    15     6     7    1
    16    19    18    2
    17    19    20    1
    18    18    17    1
    19     4     3    2
    20    20    15    2
    21     7     2    2
    22    17    16    2
    23     3     2    1
    24    15    16    1
    25    15    13    1
    26     2     1    1
    27    12    11    2
    28    13    11   am
    29    13    14    1
    30    11    10    1
    31     1    10    1
    32     1    30    1
    33    31    30    2
    34    30    32    2
    35    30    33    1
    36    34    33    2
    37    34    35    1
    38    33    39    1
    39    36    35    1
    40    35    37    2
    41    39    40    1
    42    39    38    2
    43    41    40    1
    44    37    38    1
