@<TRIPOS>MOLECULE
42714_out_ligand_01.pdbqt
 32 35 0 0 0
SMALL
GASTEIGER

@<TRIPOS>ATOM
      1  N         20.4990  -22.1580   -9.8710 N.am    1  UNL1       -0.3230
      2  C         20.3780  -23.3140   -9.1220 C.2     1  UNL1        0.2560
      3  O         20.8630  -24.4100   -9.3800 O.2     1  UNL1       -0.2670
      4  H         19.9240  -21.3700   -9.6000 H       1  UNL1        0.1690
      5  C         21.2740  -21.9700  -11.0350 C.2     1  UNL1        0.0350
      6  C         20.8560  -21.2300  -12.1410 C.2     1  UNL1        0.0290
      7  C         21.6770  -21.1070  -13.2670 C.2     1  UNL1        0.0030
      8  C         22.9290  -21.7200  -13.2970 C.2     1  UNL1        0.0150
      9  C         23.3680  -22.4540  -12.1900 C.2     1  UNL1        0.0120
     10  C         22.5320  -22.5860  -11.0710 C.2     1  UNL1        0.0440
     11  C         24.6940  -23.1290  -12.1670 C.2     1  UNL1        0.1410
     12  N         25.3020  -23.2680  -10.9430 N.am    1  UNL1       -0.3070
     13  C         26.5000  -23.8980  -10.7920 C.2     1  UNL1        0.2480
     14  H         24.8560  -22.9840  -10.0850 H       1  UNL1        0.1700
     15  C         27.1210  -24.3710  -12.0340 C.2     1  UNL1        0.1010
     16  O         27.0290  -24.0700   -9.6990 O.2     1  UNL1       -0.2680
     17  C         26.4540  -24.1860  -13.1810 C.2     1  UNL1        0.0380
     18  C         27.0270  -24.6490  -14.4910 C.3     1  UNL1        0.0700
     19  N         25.2250  -23.5760  -13.2620 N.2     1  UNL1       -0.2350
     20  C         19.5280  -23.1870   -7.9040 C.2     1  UNL1        0.0330
     21  C         18.5990  -24.2080   -7.6270 C.2     1  UNL1        0.0190
     22  C         17.7820  -24.1500   -6.4910 C.2     1  UNL1        0.0320
     23  C         17.8930  -23.0520   -5.6570 C.2     1  UNL1        0.0510
     24  C         18.8500  -22.0640   -5.8990 C.2     1  UNL1       -0.0280
     25  N         17.2310  -22.7870   -4.4240 N.pl3   1  UNL1       -0.2750
     26  C         19.6750  -22.1120   -7.0150 C.2     1  UNL1        0.0260
     27  C         18.8930  -21.0700   -4.7810 C.3     1  UNL1        0.0620
     28  C         17.6440  -21.4340   -3.9570 C.3     1  UNL1        0.1460
     29  S         15.6550  -23.2880   -4.1260 S.O2    1  UNL1        0.2290
     30  C         14.9830  -23.4760   -5.7670 C.3     1  UNL1        0.1860
     31  O         14.9580  -22.1810   -3.5000 O.2     1  UNL1       -0.2060
     32  O         15.6670  -24.5950   -3.5050 O.2     1  UNL1       -0.2060
@<TRIPOS>BOND
     1    18    17    1
     2     8     7    2
     3     8     9    1
     4     7     6    1
     5    19    17    1
     6    19    11    2
     7    17    15    2
     8     9    11    1
     9     9    10    2
    10    11    12    1
    11     6     5    2
    12    15    13    1
    13    10     5    1
    14     5     1    1
    15    12    13   am
    16    12    14    1
    17    13    16    2
    18     1     4    1
    19     1     2   am
    20     3     2    2
    21     2    20    1
    22    20    21    2
    23    20    26    1
    24    21    22    1
    25    26    24    2
    26    22    23    2
    27    24    23    1
    28    24    27    1
    29    30    29    1
    30    23    25    1
    31    27    28    1
    32    25    29    1
    33    25    28    1
    34    29    32    2
    35    29    31    2
