@<TRIPOS>MOLECULE
42710_out_ligand_01.pdbqt
 39 42 0 0 0
SMALL
GASTEIGER

@<TRIPOS>ATOM
      1  C         16.9910  -21.6000  -10.8660 C.3     1  UNL1        0.2780
      2  O         16.5810  -22.9150  -10.5080 O.2     1  UNL1       -0.3420
      3  C         16.2570  -23.1510   -9.2000 C.2     1  UNL1        0.0690
      4  C         15.9500  -22.0010   -8.4660 C.2     1  UNL1        0.0380
      5  C         15.5860  -22.0900   -7.1210 C.2     1  UNL1        0.0280
      6  C         15.5360  -23.3430   -6.5080 C.2     1  UNL1        0.0800
      7  C         15.8190  -24.5010   -7.2370 C.2     1  UNL1        0.0280
      8  C         16.1830  -24.4020   -8.5840 C.2     1  UNL1        0.0380
      9  S         15.0570  -23.4650   -4.8030 S.O2    1  UNL1        0.2630
     10  O         14.3710  -24.7220   -4.5980 O.2     1  UNL1       -0.2000
     11  O         14.4290  -22.2090   -4.4440 O.2     1  UNL1       -0.2000
     12  N         16.5450  -23.4880   -4.0010 N.pl3   1  UNL1       -0.2810
     13  H         16.8170  -24.4460   -3.7800 H       1  UNL1        0.1790
     14  C         17.5660  -22.6180   -4.4700 C.2     1  UNL1        0.0420
     15  C         18.2850  -22.9570   -5.6150 C.2     1  UNL1        0.0300
     16  C         19.3120  -22.1250   -6.0620 C.2     1  UNL1        0.0090
     17  C         19.6240  -20.9470   -5.3710 C.2     1  UNL1       -0.0620
     18  C         20.7530  -20.0720   -5.8290 C.3     1  UNL1        0.0480
     19  C         18.9090  -20.6300   -4.2090 C.2     1  UNL1        0.0090
     20  C         17.8800  -21.4610   -3.7600 C.2     1  UNL1        0.0300
     21  C         18.5020  -21.4280  -11.0690 C.2     1  UNL1        0.2460
     22  O         18.9360  -20.6500  -11.9130 O.2     1  UNL1       -0.2710
     23  N         19.2510  -22.2520  -10.2480 N.am    1  UNL1       -0.3250
     24  H         18.7120  -22.8300   -9.6080 H       1  UNL1        0.1690
     25  C         20.6530  -22.3680  -10.1790 C.2     1  UNL1        0.0350
     26  C         21.2270  -22.3920   -8.9020 C.2     1  UNL1        0.0290
     27  C         22.6090  -22.5050   -8.7460 C.2     1  UNL1        0.0030
     28  C         23.4290  -22.6040   -9.8680 C.2     1  UNL1        0.0150
     29  C         22.8700  -22.5890  -11.1520 C.2     1  UNL1        0.0120
     30  C         21.4820  -22.4560  -11.3010 C.2     1  UNL1        0.0440
     31  C         23.7830  -22.7030  -12.3250 C.2     1  UNL1        0.1410
     32  N         23.7740  -21.7970  -13.2540 N.2     1  UNL1       -0.2350
     33  C         24.6380  -21.9480  -14.3130 C.2     1  UNL1        0.0380
     34  C         24.5550  -20.8760  -15.3610 C.3     1  UNL1        0.0700
     35  C         25.5050  -22.9620  -14.4290 C.2     1  UNL1        0.1010
     36  C         25.5370  -23.9690  -13.3630 C.2     1  UNL1        0.2480
     37  O         26.3310  -24.9000  -13.3850 O.2     1  UNL1       -0.2680
     38  N         24.6330  -23.7840  -12.3610 N.am    1  UNL1       -0.3070
     39  H         24.6800  -24.4590  -11.6130 H       1  UNL1        0.1700
@<TRIPOS>BOND
     1    34    33    1
     2    35    33    2
     3    35    36    1
     4    33    32    1
     5    37    36    2
     6    36    38   am
     7    32    31    2
     8    38    31    1
     9    38    39    1
    10    31    29    1
    11    22    21    2
    12    30    29    1
    13    30    25    2
    14    29    28    2
    15    21     1    1
    16    21    23   am
    17     1     2    1
    18     2     3    1
    19    23    25    1
    20    23    24    1
    21    25    26    1
    22    28    27    1
    23     3     8    2
    24     3     4    1
    25    26    27    2
    26     8     7    1
    27     4     5    2
    28     7     6    2
    29     5     6    1
    30     6     9    1
    31    16    15    1
    32    16    17    2
    33    18    17    1
    34    15    14    2
    35    17    19    1
    36     9    10    2
    37     9    11    2
    38     9    12    1
    39    14    12    1
    40    14    20    1
    41    19    20    2
    42    12    13    1
