@<TRIPOS>MOLECULE
42713_out_ligand_01.pdbqt
 38 42 0 0 0
SMALL
GASTEIGER

@<TRIPOS>ATOM
      1  N         25.2060  -22.1060  -12.9140 N.pl3   1  UNL1       -0.2710
      2  C         25.8260  -22.8860  -11.8030 C.3     1  UNL1        0.1460
      3  C         24.7970  -22.8870  -10.6570 C.3     1  UNL1        0.0620
      4  C         23.5480  -22.4200  -11.3380 C.2     1  UNL1       -0.0280
      5  C         22.2720  -22.3410  -10.7910 C.2     1  UNL1        0.0260
      6  C         21.2430  -21.7930  -11.5690 C.2     1  UNL1        0.0330
      7  C         21.5330  -21.2910  -12.8530 C.2     1  UNL1        0.0190
      8  C         22.8270  -21.3650  -13.3820 C.2     1  UNL1        0.0320
      9  C         23.8150  -21.9740  -12.6310 C.2     1  UNL1        0.0510
     10  C         19.8410  -21.6580  -11.0620 C.2     1  UNL1        0.2560
     11  O         19.1890  -20.6820  -11.4120 O.2     1  UNL1       -0.2670
     12  N         19.4000  -22.6910  -10.2520 N.am    1  UNL1       -0.3230
     13  H         20.0100  -23.4890  -10.1440 H       1  UNL1        0.1690
     14  C         18.1540  -22.7940   -9.5950 C.2     1  UNL1        0.0350
     15  C         16.9270  -22.9050  -10.2540 C.2     1  UNL1        0.0290
     16  C         15.7340  -22.9850   -9.5280 C.2     1  UNL1        0.0030
     17  C         15.7520  -22.9620   -8.1330 C.2     1  UNL1        0.0150
     18  C         16.9750  -22.8580   -7.4620 C.2     1  UNL1        0.0120
     19  C         18.1680  -22.7650   -8.1950 C.2     1  UNL1        0.0440
     20  C         17.0510  -22.8100   -5.9780 C.2     1  UNL1        0.1410
     21  N         17.8830  -22.0100   -5.3870 N.2     1  UNL1       -0.2350
     22  C         17.9010  -22.0060   -4.0110 C.2     1  UNL1        0.0380
     23  C         18.8560  -21.0300   -3.3880 C.3     1  UNL1        0.0700
     24  C         17.1320  -22.7960   -3.2520 C.2     1  UNL1        0.1010
     25  C         16.2130  -23.7200   -3.9260 C.2     1  UNL1        0.2480
     26  O         15.4960  -24.4880   -3.2940 O.2     1  UNL1       -0.2680
     27  N         16.2200  -23.6600   -5.2870 N.am    1  UNL1       -0.3070
     28  H         15.6150  -24.3170   -5.7530 H       1  UNL1        0.1700
     29  S         25.7700  -22.4000  -14.4800 S.O2    1  UNL1        0.2650
     30  O         24.6760  -22.9830  -15.2340 O.2     1  UNL1       -0.2000
     31  O         27.0550  -23.0700  -14.4200 O.2     1  UNL1       -0.2000
     32  C         26.0570  -20.7700  -15.1480 C.2     1  UNL1        0.0800
     33  C         26.2670  -19.6940  -14.2820 C.2     1  UNL1        0.0260
     34  C         26.4310  -18.4080  -14.8050 C.2     1  UNL1        0.0080
     35  C         26.3780  -18.1900  -16.1890 C.2     1  UNL1       -0.0620
     36  C         26.5000  -16.7950  -16.7420 C.3     1  UNL1        0.0480
     37  C         26.1290  -19.2730  -17.0440 C.2     1  UNL1        0.0080
     38  C         25.9640  -20.5590  -16.5270 C.2     1  UNL1        0.0260
@<TRIPOS>BOND
     1    37    38    1
     2    37    35    2
     3    36    35    1
     4    38    32    2
     5    35    34    1
     6    30    29    2
     7    32    29    1
     8    32    33    1
     9    34    33    2
    10    29    31    2
    11    29     1    1
    12     8     7    2
    13     8     9    1
    14     1     9    1
    15     1     2    1
    16     7     6    1
    17     9     4    2
    18     2     3    1
    19     6    10    1
    20     6     5    2
    21    11    10    2
    22     4     5    1
    23     4     3    1
    24    10    12   am
    25    15    14    2
    26    15    16    1
    27    12    13    1
    28    12    14    1
    29    14    19    1
    30    16    17    2
    31    19    18    2
    32    17    18    1
    33    18    20    1
    34    20    21    2
    35    20    27    1
    36    28    27    1
    37    21    22    1
    38    27    25   am
    39    22    23    1
    40    22    24    2
    41    25    26    2
    42    25    24    1
