@<TRIPOS>MOLECULE
42718_out_ligand_01.pdbqt
 41 45 0 0 0
SMALL
GASTEIGER

@<TRIPOS>ATOM
      1  C         25.5950  -22.0520  -13.4500 C.2     1  UNL1        0.0260
      2  C         26.3630  -21.6020  -12.3830 C.2     1  UNL1        0.0260
      3  C         25.8050  -21.4780  -11.1080 C.2     1  UNL1        0.0210
      4  C         24.4530  -21.8200  -10.9210 C.2     1  UNL1        0.0160
      5  S         23.5610  -21.7520   -9.4560 S.3     1  UNL1       -0.0840
      6  C         22.1170  -22.3210  -10.1880 C.2     1  UNL1        0.0740
      7  C         22.3210  -22.5560  -11.5350 C.2     1  UNL1        0.0370
      8  C         23.6610  -22.2750  -11.9750 C.2     1  UNL1       -0.0160
      9  C         24.2500  -22.3930  -13.2570 C.2     1  UNL1        0.0370
     10  C         20.9240  -22.4820   -9.3470 C.2     1  UNL1        0.2630
     11  O         20.9960  -22.6800   -8.1360 O.2     1  UNL1       -0.2670
     12  N         19.7200  -22.3950  -10.0360 N.am    1  UNL1       -0.3220
     13  H         19.7710  -22.2150  -11.0270 H       1  UNL1        0.1690
     14  C         18.4120  -22.5340   -9.5210 C.2     1  UNL1        0.0350
     15  C         17.2560  -22.5870  -10.3010 C.2     1  UNL1        0.0290
     16  C         15.9970  -22.7080   -9.7040 C.2     1  UNL1        0.0030
     17  C         15.8780  -22.7860   -8.3180 C.2     1  UNL1        0.0150
     18  C         17.0270  -22.7520   -7.5230 C.2     1  UNL1        0.0120
     19  C         18.2860  -22.6150   -8.1270 C.2     1  UNL1        0.0440
     20  C         16.9590  -22.8270   -6.0370 C.2     1  UNL1        0.1410
     21  N         17.7370  -22.0910   -5.3050 N.2     1  UNL1       -0.2350
     22  C         17.6260  -22.1960   -3.9390 C.2     1  UNL1        0.0380
     23  C         18.5330  -21.2920   -3.1530 C.3     1  UNL1        0.0700
     24  C         16.7810  -23.0330   -3.3220 C.2     1  UNL1        0.1010
     25  C         15.9290  -23.8910   -4.1530 C.2     1  UNL1        0.2480
     26  O         15.1610  -24.7070   -3.6590 O.2     1  UNL1       -0.2680
     27  N         16.0600  -23.7140   -5.4970 N.am    1  UNL1       -0.3070
     28  H         15.5070  -24.3350   -6.0670 H       1  UNL1        0.1700
     29  N         26.2390  -22.1830  -14.7350 N.pl3   1  UNL1       -0.1720
     30  C         26.9280  -23.4870  -14.9650 C.3     1  UNL1        0.1090
     31  C         26.0840  -24.6270  -14.4120 C.3     1  UNL1        0.0220
     32  S         25.2490  -21.6430  -16.0380 S.O2    1  UNL1        0.2480
     33  O         23.8720  -21.5650  -15.5970 O.2     1  UNL1       -0.2050
     34  O         25.6200  -22.4080  -17.2140 O.2     1  UNL1       -0.2050
     35  C         25.8040  -19.9690  -16.2650 C.2     1  UNL1        0.0750
     36  C         25.8960  -19.4600  -17.5640 C.2     1  UNL1        0.0250
     37  C         26.3150  -18.1430  -17.7550 C.2     1  UNL1        0.0080
     38  C         26.6560  -17.3390  -16.6590 C.2     1  UNL1       -0.0620
     39  C         27.0790  -15.9150  -16.8720 C.3     1  UNL1        0.0480
     40  C         26.5540  -17.8630  -15.3630 C.2     1  UNL1        0.0080
     41  C         26.1350  -19.1810  -15.1620 C.2     1  UNL1        0.0250
@<TRIPOS>BOND
     1    37    36    1
     2    37    38    2
     3    36    35    2
     4    34    32    2
     5    39    38    1
     6    38    40    1
     7    35    32    1
     8    35    41    1
     9    32    33    2
    10    32    29    1
    11    40    41    2
    12    30    29    1
    13    30    31    1
    14    29     1    1
    15     1     9    2
    16     1     2    1
    17     9     8    1
    18     2     3    2
    19     8     7    1
    20     8     4    2
    21     7     6    2
    22     3     4    1
    23    13    12    1
    24     4     5    1
    25    15    16    1
    26    15    14    2
    27     6     5    1
    28     6    10    1
    29    12    14    1
    30    12    10   am
    31    16    17    2
    32    14    19    1
    33    10    11    2
    34    17    18    1
    35    19    18    2
    36    18    20    1
    37    28    27    1
    38    20    27    1
    39    20    21    2
    40    27    25   am
    41    21    22    1
    42    25    26    2
    43    25    24    1
    44    22    24    2
    45    22    23    1
