@<TRIPOS>MOLECULE
42724_out_ligand_01.pdbqt
 38 42 0 0 0
SMALL
GASTEIGER

@<TRIPOS>ATOM
      1  C         17.7630  -22.4180   -6.5970 C.2     1  UNL1        0.2580
      2  O         18.5830  -21.9820   -5.7920 O.2     1  UNL1       -0.2670
      3  N         17.9770  -22.6540   -7.9720 N.am    1  UNL1       -0.3130
      4  C         16.8400  -22.5540   -8.9010 C.3     1  UNL1        0.1330
      5  C         17.1180  -23.1060  -10.2860 C.3     1  UNL1        0.0250
      6  C         18.3150  -22.3880  -10.8720 C.3     1  UNL1        0.0420
      7  C         19.4870  -22.5020   -9.9360 C.2     1  UNL1       -0.0300
      8  C         20.7830  -22.4480  -10.4860 C.2     1  UNL1        0.0260
      9  C         21.9080  -22.5660   -9.6660 C.2     1  UNL1        0.0330
     10  C         21.7380  -22.7670   -8.2990 C.2     1  UNL1        0.0190
     11  C         20.4520  -22.7980   -7.7480 C.2     1  UNL1        0.0310
     12  C         19.3050  -22.6320   -8.5400 C.2     1  UNL1        0.0430
     13  C         23.2880  -22.5260  -10.2220 C.2     1  UNL1        0.2560
     14  O         24.1140  -23.3140   -9.7800 O.2     1  UNL1       -0.2670
     15  N         23.4900  -21.5560  -11.1870 N.am    1  UNL1       -0.3230
     16  H         22.7250  -20.9160  -11.3530 H       1  UNL1        0.1690
     17  C         24.6740  -21.2980  -11.9110 C.2     1  UNL1        0.0350
     18  C         25.8430  -21.1010  -11.1640 C.2     1  UNL1        0.0290
     19  C         27.0600  -20.8340  -11.7960 C.2     1  UNL1        0.0030
     20  C         27.1210  -20.7530  -13.1850 C.2     1  UNL1        0.0150
     21  C         25.9580  -20.9390  -13.9410 C.2     1  UNL1        0.0120
     22  C         24.7400  -21.2220  -13.3040 C.2     1  UNL1        0.0440
     23  C         25.9910  -20.8610  -15.4230 C.2     1  UNL1        0.1410
     24  N         26.2990  -19.7570  -16.0260 N.2     1  UNL1       -0.2350
     25  C         26.3150  -19.7540  -17.4000 C.2     1  UNL1        0.0380
     26  C         26.6640  -18.4360  -18.0310 C.3     1  UNL1        0.0700
     27  C         26.0470  -20.8300  -18.1510 C.2     1  UNL1        0.1010
     28  C         25.7250  -22.0880  -17.4640 C.2     1  UNL1        0.2480
     29  O         25.5080  -23.1240  -18.0820 O.2     1  UNL1       -0.2680
     30  N         25.6930  -22.0180  -16.1050 N.am    1  UNL1       -0.3070
     31  H         25.5220  -22.8880  -15.6280 H       1  UNL1        0.1700
     32  C         16.4180  -22.6970   -6.0440 C.2     1  UNL1        0.0330
     33  C         16.1670  -23.9380   -5.4550 C.2     1  UNL1        0.0170
     34  C         14.8990  -24.2100   -4.9430 C.2     1  UNL1        0.0020
     35  C         13.8850  -23.2540   -5.0410 C.2     1  UNL1        0.0070
     36  C         14.1200  -22.0210   -5.6680 C.2     1  UNL1       -0.0610
     37  C         13.0260  -20.9980   -5.7580 C.3     1  UNL1        0.0480
     38  C         15.3980  -21.7450   -6.1680 C.2     1  UNL1        0.0230
@<TRIPOS>BOND
     1    27    28    1
     2    27    25    2
     3    29    28    2
     4    26    25    1
     5    28    30   am
     6    25    24    1
     7    30    31    1
     8    30    23    1
     9    24    23    2
    10    23    21    1
    11    21    22    1
    12    21    20    2
    13    22    17    2
    14    20    19    1
    15    17    15    1
    16    17    18    1
    17    19    18    2
    18    16    15    1
    19    15    13   am
    20     6     5    1
    21     6     7    1
    22     8     7    2
    23     8     9    1
    24     5     4    1
    25    13    14    2
    26    13     9    1
    27     7    12    1
    28     9    10    2
    29     4     3    1
    30    12     3    1
    31    12    11    2
    32    10    11    1
    33     3     1   am
    34     1    32    1
    35     1     2    2
    36    38    32    2
    37    38    36    1
    38    32    33    1
    39    37    36    1
    40    36    35    2
    41    33    34    2
    42    35    34    1
