@<TRIPOS>MOLECULE
42725_out_ligand_01.pdbqt
 26 28 0 0 0
SMALL
GASTEIGER

@<TRIPOS>ATOM
      1  C         18.3010  -22.7460   -9.5130 C.2     1  UNL1        0.0350
      2  C         17.1020  -22.7520  -10.2400 C.2     1  UNL1        0.0290
      3  C         15.8690  -22.7910   -9.5860 C.2     1  UNL1        0.0030
      4  C         15.8190  -22.8240   -8.1950 C.2     1  UNL1        0.0150
      5  C         17.0100  -22.8180   -7.4590 C.2     1  UNL1        0.0120
      6  C         18.2470  -22.7910   -8.1190 C.2     1  UNL1        0.0440
      7  N         19.5000  -22.7110  -10.2560 N.am    1  UNL1       -0.3230
      8  C         19.9750  -21.6670  -11.0310 C.2     1  UNL1        0.2560
      9  O         19.3920  -20.6220  -11.2890 O.2     1  UNL1       -0.2670
     10  H         20.0240  -23.5750  -10.2890 H       1  UNL1        0.1690
     11  C         21.3130  -21.9040  -11.6430 C.2     1  UNL1        0.0320
     12  C         22.2640  -22.7340  -11.0380 C.2     1  UNL1        0.0170
     13  C         23.5070  -22.9310  -11.6450 C.2     1  UNL1        0.0070
     14  C         23.8200  -22.2860  -12.8490 C.2     1  UNL1       -0.0620
     15  C         25.1440  -22.5220  -13.5150 C.3     1  UNL1        0.0480
     16  C         22.8660  -21.4540  -13.4480 C.2     1  UNL1        0.0070
     17  C         21.6230  -21.2530  -12.8420 C.2     1  UNL1        0.0170
     18  C         16.9870  -22.8670   -5.9750 C.2     1  UNL1        0.1410
     19  N         17.7700  -22.1100   -5.2730 N.2     1  UNL1       -0.2350
     20  C         17.6970  -22.2020   -3.9030 C.2     1  UNL1        0.0380
     21  C         18.6380  -21.3040   -3.1530 C.3     1  UNL1        0.0700
     22  C         16.8550  -23.0210   -3.2560 C.2     1  UNL1        0.1010
     23  C         15.9560  -23.8600   -4.0540 C.2     1  UNL1        0.2480
     24  O         15.1400  -24.6110   -3.5320 O.2     1  UNL1       -0.2680
     25  N         16.0950  -23.7410   -5.4040 N.am    1  UNL1       -0.3070
     26  H         15.4460  -24.2770   -5.9590 H       1  UNL1        0.1700
@<TRIPOS>BOND
     1    15    14    1
     2    16    14    2
     3    16    17    1
     4    14    13    1
     5    17    11    2
     6    13    12    2
     7    11    12    1
     8    11     8    1
     9     9     8    2
    10     8     7   am
    11    10     7    1
    12     7     1    1
    13     2     3    1
    14     2     1    2
    15     3     4    2
    16     1     6    1
    17     4     5    1
    18     6     5    2
    19     5    18    1
    20    18    25    1
    21    18    19    2
    22    26    25    1
    23    25    23   am
    24    19    20    1
    25    23    24    2
    26    23    22    1
    27    20    22    2
    28    20    21    1
