@<TRIPOS>MOLECULE
42723_out_ligand_01.pdbqt
 33 36 0 0 0
SMALL
GASTEIGER

@<TRIPOS>ATOM
      1  C         21.5500  -22.8000   -9.9670 C.2     1  UNL1        0.0330
      2  C         21.1550  -22.1040  -11.1080 C.2     1  UNL1        0.0190
      3  C         22.0910  -21.8010  -12.1050 C.2     1  UNL1        0.0310
      4  C         23.4380  -22.1850  -11.9970 C.2     1  UNL1        0.0430
      5  C         23.8320  -22.8730  -10.8280 C.2     1  UNL1       -0.0300
      6  C         22.8910  -23.1630   -9.8210 C.2     1  UNL1        0.0260
      7  C         25.2600  -23.2870  -10.5890 C.3     1  UNL1        0.0420
      8  C         26.0210  -23.3870  -11.8940 C.3     1  UNL1        0.0250
      9  C         25.8220  -22.1070  -12.6860 C.3     1  UNL1        0.1330
     10  N         24.4090  -21.8570  -13.0100 N.am    1  UNL1       -0.3130
     11  C         24.0410  -21.3650  -14.2770 C.2     1  UNL1        0.2580
     12  O         22.9370  -21.4820  -14.8060 O.2     1  UNL1       -0.2670
     13  C         20.5870  -23.1450   -8.8800 C.2     1  UNL1        0.2560
     14  N         19.6630  -22.1550   -8.5920 N.am    1  UNL1       -0.3220
     15  H         19.5070  -21.5020   -9.3470 H       1  UNL1        0.1690
     16  O         20.6320  -24.2660   -8.3900 O.2     1  UNL1       -0.2670
     17  C         18.6450  -22.2240   -7.6080 C.2     1  UNL1        0.0470
     18  C         18.8250  -21.7650   -6.2830 C.2     1  UNL1       -0.0330
     19  C         17.7720  -21.9030   -5.3560 C.2     1  UNL1        0.0280
     20  C         20.0670  -21.0780   -5.7800 C.3     1  UNL1        0.0500
     21  C         16.5430  -22.4190   -5.7460 C.2     1  UNL1        0.0120
     22  C         16.3360  -22.8080   -7.0620 C.2     1  UNL1        0.0280
     23 BR         15.1400  -22.5670   -4.4880 Br      1  UNL1       -0.0510
     24  C         17.3760  -22.7190   -8.0060 C.2     1  UNL1       -0.0300
     25  C         17.0680  -23.1890   -9.4150 C.3     1  UNL1        0.0360
     26  C         15.6470  -22.8410   -9.8340 C.3     1  UNL1        0.0100
     27  C         25.0660  -20.6480  -15.0750 C.2     1  UNL1        0.0330
     28  C         25.5580  -21.2000  -16.2610 C.2     1  UNL1        0.0170
     29  C         26.5280  -20.5120  -16.9900 C.2     1  UNL1        0.0020
     30  C         27.0180  -19.2910  -16.5240 C.2     1  UNL1        0.0070
     31  C         26.5610  -18.7500  -15.3140 C.2     1  UNL1       -0.0610
     32  C         27.0810  -17.4330  -14.8210 C.3     1  UNL1        0.0480
     33  C         25.5750  -19.4360  -14.5920 C.2     1  UNL1        0.0230
@<TRIPOS>BOND
     1    29    30    2
     2    29    28    1
     3    30    31    1
     4    28    27    2
     5    31    32    1
     6    31    33    2
     7    27    33    1
     8    27    11    1
     9    12    11    2
    10    11    10   am
    11    10     9    1
    12    10     4    1
    13     9     8    1
    14     3     4    2
    15     3     2    1
    16     4     5    1
    17     8     7    1
    18     2     1    2
    19     5     7    1
    20     5     6    2
    21     1     6    1
    22     1    13    1
    23    26    25    1
    24    25    24    1
    25    15    14    1
    26    13    14   am
    27    13    16    2
    28    14    17    1
    29    24    17    2
    30    24    22    1
    31    17    18    1
    32    22    21    2
    33    18    20    1
    34    18    19    2
    35    21    19    1
    36    21    23    1
