@<TRIPOS>MOLECULE
42739_out_ligand_01.pdbqt
 36 38 0 0 0
SMALL
GASTEIGER

@<TRIPOS>ATOM
      1  C         20.7400  -23.5050   -8.4370 C.2     1  UNL1        0.0690
      2  C         19.7960  -24.5170   -8.2370 C.2     1  UNL1        0.0380
      3  C         18.7730  -24.3560   -7.3040 C.2     1  UNL1        0.0270
      4  C         18.7100  -23.1810   -6.5530 C.2     1  UNL1        0.0750
      5  C         19.6640  -22.1740   -6.7220 C.2     1  UNL1        0.0270
      6  C         20.6860  -22.3430   -7.6610 C.2     1  UNL1        0.0380
      7  O         21.6780  -23.7710   -9.3970 O.2     1  UNL1       -0.3420
      8  C         23.0140  -23.3540   -9.1200 C.3     1  UNL1        0.2780
      9  C         23.5990  -22.4380  -10.1980 C.2     1  UNL1        0.2460
     10  N         23.6040  -23.0330  -11.4480 N.am    1  UNL1       -0.3240
     11  H         23.5580  -24.0470  -11.4060 H       1  UNL1        0.1690
     12  O         24.0040  -21.3160   -9.9170 O.2     1  UNL1       -0.2710
     13  C         24.0910  -22.4630  -12.6470 C.2     1  UNL1        0.0460
     14  C         25.4080  -22.6580  -13.1190 C.2     1  UNL1       -0.0330
     15  C         25.7890  -22.0900  -14.3510 C.2     1  UNL1        0.0280
     16  C         26.4870  -23.3970  -12.3700 C.3     1  UNL1        0.0500
     17  C         24.9120  -21.2860  -15.0670 C.2     1  UNL1        0.0120
     18  C         23.6390  -21.0330  -14.5740 C.2     1  UNL1        0.0280
     19 BR         25.4670  -20.5100  -16.6970 Br      1  UNL1       -0.0510
     20  C         23.2130  -21.6120  -13.3670 C.2     1  UNL1       -0.0330
     21  C         21.8070  -21.3210  -12.8990 C.3     1  UNL1        0.0500
     22  S         17.3610  -22.9560   -5.4160 S.O2    1  UNL1        0.2450
     23  O         16.7690  -24.2510   -5.1580 O.2     1  UNL1       -0.2060
     24  O         17.8380  -22.0970   -4.3560 O.2     1  UNL1       -0.2060
     25  N         16.2460  -22.1180   -6.4060 N.pl3   1  UNL1       -0.1810
     26  H         16.4920  -21.1260   -6.3300 H       1  UNL1        0.1460
     27  C         16.2830  -22.5340   -7.7770 C.2     1  UNL1        0.0230
     28  C         15.5500  -23.6430   -8.2010 C.2     1  UNL1        0.0240
     29  C         15.5360  -23.9900   -9.5520 C.2     1  UNL1        0.0030
     30  C         16.2470  -23.2230  -10.4760 C.2     1  UNL1        0.0160
     31  C         16.9740  -22.0960  -10.0600 C.2     1  UNL1        0.0490
     32  C         16.9790  -21.7540   -8.6990 C.2     1  UNL1        0.0400
     33  C         17.7190  -21.2640  -11.0750 C.3     1  UNL1        0.4170
     34  F         17.1540  -20.0370  -11.2540 F       1  UNL1       -0.1660
     35  F         19.0090  -21.0300  -10.7140 F       1  UNL1       -0.1660
     36  F         17.7730  -21.8310  -12.3140 F       1  UNL1       -0.1660
@<TRIPOS>BOND
     1    19    17    1
     2    17    18    2
     3    17    15    1
     4    18    20    1
     5    15    14    2
     6    20    21    1
     7    20    13    2
     8    14    13    1
     9    14    16    1
    10    13    10    1
    11    36    33    1
    12    10    11    1
    13    10     9   am
    14    34    33    1
    15    33    35    1
    16    33    31    1
    17    30    31    2
    18    30    29    1
    19     9    12    2
    20     9     8    1
    21    31    32    1
    22    29    28    2
    23     7     8    1
    24     7     1    1
    25    32    27    2
    26     1     2    2
    27     1     6    1
    28     2     3    1
    29    28    27    1
    30    27    25    1
    31     6     5    2
    32     3     4    2
    33     5     4    1
    34     4    22    1
    35    25    26    1
    36    25    22    1
    37    22    23    2
    38    22    24    2
