@<TRIPOS>MOLECULE
42744_out_ligand_01.pdbqt
 33 36 0 0 0
SMALL
GASTEIGER

@<TRIPOS>ATOM
      1  N         19.2390  -22.4970  -10.2410 N.am    1  UNL1       -0.3230
      2  C         19.6190  -21.4450  -11.0550 C.2     1  UNL1        0.2560
      3  O         18.9270  -20.4960  -11.4030 O.2     1  UNL1       -0.2670
      4  H         19.8850  -23.2720  -10.1600 H       1  UNL1        0.1690
      5  C         18.0070  -22.6600   -9.5720 C.2     1  UNL1        0.0350
      6  C         16.7790  -22.7980  -10.2200 C.2     1  UNL1        0.0290
      7  C         15.5980  -22.9380   -9.4840 C.2     1  UNL1        0.0030
      8  C         15.6330  -22.9490   -8.0900 C.2     1  UNL1        0.0150
      9  C         16.8580  -22.8250   -7.4280 C.2     1  UNL1        0.0120
     10  C         18.0370  -22.6680   -8.1730 C.2     1  UNL1        0.0440
     11  C         16.9540  -22.8280   -5.9430 C.2     1  UNL1        0.1410
     12  N         16.1610  -23.7260   -5.2680 N.am    1  UNL1       -0.3070
     13  C         16.1860  -23.8430   -3.9110 C.2     1  UNL1        0.2480
     14  H         15.5830  -24.3970   -5.7470 H       1  UNL1        0.1700
     15  C         17.0810  -22.9110   -3.2170 C.2     1  UNL1        0.1010
     16  O         15.5170  -24.6690   -3.3030 O.2     1  UNL1       -0.2680
     17  C         17.8130  -22.0690   -3.9590 C.2     1  UNL1        0.0380
     18  C         18.7560  -21.0920   -3.3180 C.3     1  UNL1        0.0700
     19  N         17.7680  -22.0240   -5.3320 N.2     1  UNL1       -0.2350
     20  C         21.0110  -21.5290  -11.5750 C.2     1  UNL1        0.0330
     21  C         21.3170  -21.2680  -12.9100 C.2     1  UNL1        0.0190
     22  C         22.6430  -21.3540  -13.3560 C.2     1  UNL1        0.0320
     23  C         23.6890  -21.6780  -12.4830 C.2     1  UNL1        0.0510
     24  C         23.3590  -22.0310  -11.1600 C.2     1  UNL1       -0.0300
     25  N         25.0630  -21.7960  -12.9290 N.pl3   1  UNL1       -0.2760
     26  C         22.0310  -21.9310  -10.7080 C.2     1  UNL1        0.0260
     27  C         24.4130  -22.5050  -10.1950 C.3     1  UNL1        0.0420
     28  C         25.5250  -23.2160  -10.9440 C.3     1  UNL1        0.0260
     29  C         26.1070  -22.2790  -11.9870 C.3     1  UNL1        0.1420
     30  S         25.6710  -20.8780  -14.2370 S.O2    1  UNL1        0.2290
     31  C         25.0210  -21.8240  -15.5960 C.3     1  UNL1        0.1860
     32  O         27.1120  -21.0280  -14.2770 O.2     1  UNL1       -0.2060
     33  O         25.0650  -19.5640  -14.2790 O.2     1  UNL1       -0.2060
@<TRIPOS>BOND
     1    31    30    1
     2    33    30    2
     3    32    30    2
     4    30    25    1
     5    22    21    1
     6    22    23    2
     7    25    23    1
     8    25    29    1
     9    21    20    2
    10    23    24    1
    11    29    28    1
    12    20     2    1
    13    20    26    1
    14     3     2    2
    15    24    26    2
    16    24    27    1
    17     2     1   am
    18    28    27    1
    19     1     4    1
    20     1     5    1
    21     6     5    2
    22     6     7    1
    23     5    10    1
    24     7     8    2
    25    10     9    2
    26     8     9    1
    27     9    11    1
    28    11    19    2
    29    11    12    1
    30    14    12    1
    31    19    17    1
    32    12    13   am
    33    17    18    1
    34    17    15    2
    35    13    16    2
    36    13    15    1
