@<TRIPOS>MOLECULE
42740_out_ligand_01.pdbqt
 37 39 0 0 0
SMALL
GASTEIGER

@<TRIPOS>ATOM
      1  C         20.8440  -23.6100   -8.4140 C.2     1  UNL1        0.0690
      2  C         19.8580  -24.5780   -8.1960 C.2     1  UNL1        0.0380
      3  C         18.8230  -24.3500   -7.2880 C.2     1  UNL1        0.0280
      4  C         18.7730  -23.1380   -6.5990 C.2     1  UNL1        0.0800
      5  C         19.7590  -22.1680   -6.7970 C.2     1  UNL1        0.0280
      6  C         20.7930  -22.4050   -7.7100 C.2     1  UNL1        0.0380
      7  O         21.8070  -23.9820   -9.3120 O.2     1  UNL1       -0.3420
      8  C         23.1270  -23.4830   -9.1280 C.3     1  UNL1        0.2780
      9  C         23.6000  -22.5400  -10.2390 C.2     1  UNL1        0.2460
     10  N         23.5300  -23.1300  -11.4950 N.am    1  UNL1       -0.3240
     11  H         23.6400  -24.1380  -11.4440 H       1  UNL1        0.1690
     12  O         23.9950  -21.4070   -9.9840 O.2     1  UNL1       -0.2710
     13  C         24.0240  -22.5050  -12.6630 C.2     1  UNL1        0.0470
     14  C         23.1830  -21.5850  -13.3320 C.2     1  UNL1       -0.0330
     15  C         23.6420  -20.9480  -14.4970 C.2     1  UNL1        0.0280
     16  C         21.7780  -21.2940  -12.8700 C.3     1  UNL1        0.0500
     17  C         24.9200  -21.2020  -14.9790 C.2     1  UNL1        0.0120
     18  C         25.7670  -22.0730  -14.3000 C.2     1  UNL1        0.0280
     19 BR         25.5230  -20.3370  -16.5480 Br      1  UNL1       -0.0510
     20  C         25.3420  -22.7260  -13.1270 C.2     1  UNL1       -0.0300
     21  C         26.3890  -23.5120  -12.3640 C.3     1  UNL1        0.0360
     22  C         27.1210  -22.6410  -11.3520 C.3     1  UNL1        0.0100
     23  S         17.4690  -22.8530   -5.4300 S.O2    1  UNL1        0.2630
     24  O         17.9100  -21.8710   -4.4640 O.2     1  UNL1       -0.2000
     25  O         16.9820  -24.1490   -5.0080 O.2     1  UNL1       -0.2000
     26  N         16.2480  -22.1860   -6.3940 N.pl3   1  UNL1       -0.2810
     27  H         16.1000  -21.2070   -6.1520 H       1  UNL1        0.1790
     28  C         16.2330  -22.5290   -7.7720 C.2     1  UNL1        0.0430
     29  C         15.4940  -23.6310   -8.1990 C.2     1  UNL1        0.0300
     30  C         15.5110  -24.0010   -9.5420 C.2     1  UNL1        0.0030
     31  C         16.2700  -23.2700  -10.4560 C.2     1  UNL1        0.0160
     32  C         17.0190  -22.1590  -10.0370 C.2     1  UNL1        0.0500
     33  C         17.0020  -21.8000   -8.6790 C.2     1  UNL1        0.0460
     34  C         17.8630  -21.3900  -11.0240 C.3     1  UNL1        0.4170
     35  F         17.2920  -20.2110  -11.3960 F       1  UNL1       -0.1660
     36  F         18.0780  -22.0820  -12.1750 F       1  UNL1       -0.1660
     37  F         19.0950  -21.0670  -10.5410 F       1  UNL1       -0.1660
@<TRIPOS>BOND
     1    19    17    1
     2    17    15    2
     3    17    18    1
     4    15    14    1
     5    18    20    2
     6    14    16    1
     7    14    13    2
     8    20    13    1
     9    20    21    1
    10    13    10    1
    11    21    22    1
    12    36    34    1
    13    10    11    1
    14    10     9   am
    15    35    34    1
    16    34    37    1
    17    34    32    1
    18    31    32    2
    19    31    30    1
    20     9    12    2
    21     9     8    1
    22    32    33    1
    23    30    29    2
    24     7     8    1
    25     7     1    1
    26    33    28    2
    27     1     2    2
    28     1     6    1
    29    29    28    1
    30     2     3    1
    31    28    26    1
    32     6     5    2
    33     3     4    2
    34     5     4    1
    35     4    23    1
    36    26    27    1
    37    26    23    1
    38    23    25    2
    39    23    24    2
