@<TRIPOS>MOLECULE
42749_out_ligand_01.pdbqt
 36 39 0 0 0
SMALL
GASTEIGER

@<TRIPOS>ATOM
      1  C         23.1770  -22.0430  -10.2600 C.2     1  UNL1        0.2560
      2  O         23.8440  -21.0340  -10.0720 O.2     1  UNL1       -0.2670
      3  N         23.5230  -23.1330  -11.0380 N.am    1  UNL1       -0.3230
      4  H         22.9260  -23.9500  -10.9930 H       1  UNL1        0.1690
      5  C         21.8680  -22.1550   -9.5530 C.2     1  UNL1        0.0340
      6  C         20.6490  -22.1380  -10.2220 C.2     1  UNL1        0.0440
      7  C         19.4520  -22.2500   -9.4880 C.2     1  UNL1        0.1090
      8  S         17.9570  -22.2410  -10.4080 S.O2    1  UNL1        0.2870
      9  C         19.4020  -22.3700   -8.0980 C.2     1  UNL1        0.0590
     10  N         16.7450  -22.3270   -9.3670 N.2     1  UNL1       -0.1470
     11  O         17.9180  -20.9480  -11.0640 O.2     1  UNL1       -0.1980
     12  O         17.9900  -23.4610  -11.1930 O.2     1  UNL1       -0.1980
     13  C         16.9480  -22.4330   -8.1010 C.2     1  UNL1        0.1160
     14  N         18.1670  -22.4880   -7.4150 N.pl3   1  UNL1       -0.3330
     15  C         15.6450  -22.5200   -7.3100 C.3     1  UNL1        0.0920
     16  C         20.6540  -22.3550   -7.4540 C.2     1  UNL1        0.0320
     17  C         21.8630  -22.2480   -8.1620 C.2     1  UNL1        0.0190
     18  C         18.2070  -22.6310   -5.9420 C.3     1  UNL1        0.1300
     19  C         18.5220  -21.2910   -5.2660 C.3     1  UNL1        0.0200
     20  C         18.5000  -21.3660   -3.7390 C.3     1  UNL1       -0.0030
     21  C         17.7410  -22.5700   -3.2010 C.3     1  UNL1        0.0050
     22  C         24.6750  -23.2760  -11.8430 C.2     1  UNL1        0.0350
     23  C         25.9210  -23.6740  -11.3600 C.2     1  UNL1        0.0290
     24  C         27.0180  -23.7770  -12.2200 C.2     1  UNL1        0.0030
     25  C         26.8790  -23.4890  -13.5780 C.2     1  UNL1        0.0150
     26  C         25.6330  -23.1020  -14.0790 C.2     1  UNL1        0.0120
     27  C         24.5400  -22.9850  -13.2070 C.2     1  UNL1        0.0440
     28  C         25.4270  -22.7820  -15.5170 C.2     1  UNL1        0.1410
     29  N         26.2080  -21.9430  -16.1240 N.2     1  UNL1       -0.2350
     30  C         25.9740  -21.6870  -17.4540 C.2     1  UNL1        0.0380
     31  C         26.9360  -20.7310  -18.1000 C.3     1  UNL1        0.0700
     32  C         24.9710  -22.2340  -18.1530 C.2     1  UNL1        0.1010
     33  C         24.0660  -23.1560  -17.4550 C.2     1  UNL1        0.2480
     34  O         23.1010  -23.6600  -18.0160 O.2     1  UNL1       -0.2680
     35  N         24.3740  -23.3970  -16.1500 N.am    1  UNL1       -0.3070
     36  H         23.7270  -23.9920  -15.6590 H       1  UNL1        0.1700
@<TRIPOS>BOND
     1    32    33    1
     2    32    30    2
     3    31    30    1
     4    34    33    2
     5    33    35   am
     6    30    29    1
     7    35    36    1
     8    35    28    1
     9    29    28    2
    10    28    26    1
    11    26    25    2
    12    26    27    1
    13    25    24    1
    14    27    22    2
    15    24    23    2
    16    22    23    1
    17    22     3    1
    18    12     8    2
    19    11     8    2
    20     3     4    1
    21     3     1   am
    22     8     7    1
    23     8    10    1
    24     1     2    2
    25     1     5    1
    26     6     5    2
    27     6     7    1
    28     5    17    1
    29     7     9    2
    30    10    13    2
    31    17    16    2
    32    13    14    1
    33    13    15    1
    34     9    16    1
    35     9    14    1
    36    14    18    1
    37    18    19    1
    38    19    20    1
    39    20    21    1
