@<TRIPOS>MOLECULE
42745_out_ligand_01.pdbqt
 37 41 0 0 0
SMALL
GASTEIGER

@<TRIPOS>ATOM
      1  N         22.4340  -22.4350  -11.2470 N.am    1  UNL1       -0.3230
      2  C         21.1630  -21.9140  -11.4080 C.2     1  UNL1        0.2560
      3  O         20.8050  -21.1030  -12.2530 O.2     1  UNL1       -0.2670
      4  H         22.5280  -23.2250  -10.6230 H       1  UNL1        0.1690
      5  C         20.1320  -22.4630  -10.4790 C.2     1  UNL1        0.0330
      6  C         20.4260  -23.5060   -9.5780 C.2     1  UNL1        0.0190
      7  C         19.4370  -24.0080   -8.7230 C.2     1  UNL1        0.0260
      8  C         18.1790  -23.4290   -8.7470 C.2     1  UNL1        0.0320
      9  C         17.8830  -22.4070   -9.6480 C.2     1  UNL1       -0.0340
     10  N         17.0000  -23.8120   -8.0260 N.pl3   1  UNL1       -0.1710
     11  C         18.8470  -21.9050  -10.5120 C.2     1  UNL1        0.0260
     12  C         16.4440  -22.0200   -9.5710 C.3     1  UNL1        0.0560
     13  C         15.9880  -22.7310   -8.2860 C.3     1  UNL1        0.1180
     14  S         17.1980  -24.2710   -6.3960 S.O2    1  UNL1        0.2480
     15  O         15.8980  -24.4270   -5.7760 O.2     1  UNL1       -0.2050
     16  O         18.1830  -25.3320   -6.3410 O.2     1  UNL1       -0.2050
     17  C         17.9270  -22.8090   -5.6900 C.2     1  UNL1        0.0750
     18  C         17.4890  -22.3740   -4.4360 C.2     1  UNL1        0.0250
     19  C         18.0540  -21.2300   -3.8720 C.2     1  UNL1        0.0020
     20  C         19.0530  -20.5360   -4.5570 C.2     1  UNL1        0.0000
     21  C         19.4940  -20.9820   -5.8040 C.2     1  UNL1        0.0020
     22  C         18.9340  -22.1240   -6.3750 C.2     1  UNL1        0.0250
     23  C         23.6040  -22.0600  -11.9420 C.2     1  UNL1        0.0350
     24  C         24.7220  -21.7230  -11.1670 C.2     1  UNL1        0.0290
     25  C         25.9200  -21.3340  -11.7710 C.2     1  UNL1        0.0030
     26  C         26.0140  -21.2770  -13.1590 C.2     1  UNL1        0.0150
     27  C         24.9050  -21.6120  -13.9430 C.2     1  UNL1        0.0120
     28  C         23.6990  -21.9910  -13.3330 C.2     1  UNL1        0.0440
     29  C         24.9700  -21.5480  -15.4260 C.2     1  UNL1        0.1410
     30  N         24.6770  -22.7080  -16.1020 N.am    1  UNL1       -0.3070
     31  C         24.6700  -22.7740  -17.4620 C.2     1  UNL1        0.2480
     32  H         24.3730  -23.5410  -15.6240 H       1  UNL1        0.1700
     33  C         25.0440  -21.5330  -18.1520 C.2     1  UNL1        0.1010
     34  O         24.3730  -23.7890  -18.0790 O.2     1  UNL1       -0.2680
     35  C         25.3190  -20.4540  -17.4050 C.2     1  UNL1        0.0380
     36  C         25.6990  -19.1470  -18.0410 C.3     1  UNL1        0.0700
     37  N         25.2770  -20.4450  -16.0310 N.2     1  UNL1       -0.2350
@<TRIPOS>BOND
     1    33    31    1
     2    33    35    2
     3    34    31    2
     4    36    35    1
     5    31    30   am
     6    35    37    1
     7    30    32    1
     8    30    29    1
     9    37    29    2
    10    29    27    1
    11    27    28    1
    12    27    26    2
    13    28    23    2
    14    26    25    1
    15     3     2    2
    16    23     1    1
    17    23    24    1
    18    25    24    2
    19     2     1   am
    20     2     5    1
    21     1     4    1
    22    11     5    2
    23    11     9    1
    24     5     6    1
    25     9    12    1
    26     9     8    2
    27     6     7    2
    28    12    13    1
    29     8     7    1
    30     8    10    1
    31    13    10    1
    32    10    14    1
    33    14    16    2
    34    14    15    2
    35    14    17    1
    36    22    21    1
    37    22    17    2
    38    21    20    2
    39    17    18    1
    40    20    19    1
    41    18    19    2
