@<TRIPOS>MOLECULE
42748_out_ligand_01.pdbqt
 33 37 0 0 0
SMALL
GASTEIGER

@<TRIPOS>ATOM
      1  N         19.9150  -22.3980  -10.1890 N.am    1  UNL1       -0.3230
      2  C         21.0540  -23.1610  -10.0350 C.2     1  UNL1        0.2610
      3  O         21.1850  -24.1080   -9.2650 O.2     1  UNL1       -0.2670
      4  H         19.9820  -21.6280  -10.8570 H       1  UNL1        0.1690
      5  C         18.6760  -22.5370   -9.5340 C.2     1  UNL1        0.0350
      6  C         17.5380  -22.6160  -10.3500 C.2     1  UNL1        0.0290
      7  C         16.2650  -22.7560   -9.7950 C.2     1  UNL1        0.0030
      8  C         16.1130  -22.8150   -8.4100 C.2     1  UNL1        0.0150
      9  C         17.2410  -22.7290   -7.5850 C.2     1  UNL1        0.0120
     10  C         18.5190  -22.6020   -8.1480 C.2     1  UNL1        0.0440
     11  C         17.1110  -22.7930   -6.1070 C.2     1  UNL1        0.1410
     12  N         16.1630  -23.6560   -5.6110 N.am    1  UNL1       -0.3070
     13  C         15.9230  -23.7850   -4.2770 C.2     1  UNL1        0.2480
     14  H         15.5460  -24.1740   -6.2170 H       1  UNL1        0.1700
     15  C         16.7790  -22.9720   -3.4050 C.2     1  UNL1        0.1010
     16  O         15.0560  -24.5230   -3.8240 O.2     1  UNL1       -0.2680
     17  C         17.6780  -22.1640   -3.9800 C.2     1  UNL1        0.0380
     18  C         18.5810  -21.2930   -3.1530 C.3     1  UNL1        0.0700
     19  N         17.8510  -22.0570   -5.3400 N.2     1  UNL1       -0.2350
     20  C         22.1950  -22.7410  -10.9100 C.2     1  UNL1        0.0980
     21  C         23.4430  -23.0780  -10.5460 C.2     1  UNL1        0.1120
     22  N         24.6100  -22.7670  -11.2250 N.pl3   1  UNL1       -0.3540
     23  C         24.5320  -22.0880  -12.4600 C.2     1  UNL1        0.0540
     24  C         25.9100  -23.3300  -10.8390 C.3     1  UNL1        0.1290
     25  C         25.6820  -21.7780  -13.2120 C.2     1  UNL1       -0.0300
     26  C         23.2800  -21.6790  -12.9570 C.2     1  UNL1        0.0420
     27  C         25.5600  -21.1120  -14.4440 C.2     1  UNL1        0.0090
     28  C         27.0490  -22.1820  -12.7270 C.3     1  UNL1        0.0420
     29  C         24.3110  -20.7240  -14.9220 C.2     1  UNL1        0.0020
     30  C         23.1680  -21.0020  -14.1780 C.2     1  UNL1        0.0180
     31  C         27.0500  -22.3980  -11.2220 C.3     1  UNL1        0.0250
     32  C         22.0530  -21.9770  -12.1760 C.2     1  UNL1        0.2010
     33  O         20.9490  -21.6080  -12.5740 O.2     1  UNL1       -0.2860
@<TRIPOS>BOND
     1    29    27    2
     2    29    30    1
     3    27    25    1
     4    30    26    2
     5    25    28    1
     6    25    23    2
     7    26    23    1
     8    26    32    1
     9    28    31    1
    10    33    32    2
    11    23    22    1
    12    32    20    1
    13    22    24    1
    14    22    21    1
    15    31    24    1
    16    20    21    2
    17    20     2    1
    18     4     1    1
    19     6     7    1
    20     6     5    2
    21     1     2   am
    22     1     5    1
    23     2     3    2
    24     7     8    2
    25     5    10    1
    26     8     9    1
    27    10     9    2
    28     9    11    1
    29    14    12    1
    30    11    12    1
    31    11    19    2
    32    12    13   am
    33    19    17    1
    34    13    16    2
    35    13    15    1
    36    17    15    2
    37    17    18    1
