@<TRIPOS>MOLECULE
42751_out_ligand_01.pdbqt
 39 42 0 0 0
SMALL
GASTEIGER

@<TRIPOS>ATOM
      1  C         22.6180  -22.4220  -12.1930 C.3     1  UNL1        0.2380
      2  N         23.7590  -22.2870  -11.2370 N.3     1  UNL1       -0.2940
      3  S         25.2970  -22.0490  -11.9310 S.O2    1  UNL1        0.2610
      4  O         26.1660  -23.0810  -11.4080 O.2     1  UNL1       -0.2000
      5  O         25.6370  -20.6520  -11.7810 O.2     1  UNL1       -0.2000
      6  C         25.0490  -22.3710  -13.6640 C.2     1  UNL1        0.0790
      7  C         25.2660  -23.6560  -14.1680 C.2     1  UNL1        0.0260
      8  C         25.0880  -23.9010  -15.5310 C.2     1  UNL1        0.0080
      9  C         24.7050  -22.8650  -16.3940 C.2     1  UNL1       -0.0620
     10  C         24.5430  -23.1280  -17.8620 C.3     1  UNL1        0.0480
     11  C         24.5370  -21.5700  -15.8820 C.2     1  UNL1        0.0080
     12  C         24.7130  -21.3190  -14.5220 C.2     1  UNL1        0.0260
     13  C         23.6950  -23.2420  -10.1060 C.3     1  UNL1        0.1770
     14  C         22.6890  -22.8110   -9.0700 C.2     1  UNL1       -0.0010
     15  C         22.8190  -21.5740   -8.4200 C.2     1  UNL1        0.0120
     16  C         21.8940  -21.1850   -7.4470 C.2     1  UNL1        0.0010
     17  C         20.8290  -22.0250   -7.1180 C.2     1  UNL1        0.0030
     18  C         20.6880  -23.2530   -7.7640 C.2     1  UNL1        0.0430
     19  C         21.6140  -23.6350   -8.7290 C.2     1  UNL1        0.1240
     20  F         21.4640  -24.8170   -9.3430 F       1  UNL1       -0.2050
     21  C         21.3650  -21.6780  -11.7430 C.2     1  UNL1        0.2400
     22  O         21.3370  -20.4510  -11.7530 O.2     1  UNL1       -0.2710
     23  N         20.3170  -22.5280  -11.4420 N.am    1  UNL1       -0.3260
     24  H         20.5540  -23.5150  -11.4920 H       1  UNL1        0.1690
     25  C         19.0250  -22.1980  -10.9960 C.2     1  UNL1        0.0350
     26  C         18.2330  -21.4320  -11.8630 C.2     1  UNL1        0.0290
     27  C         16.9350  -21.0640  -11.5050 C.2     1  UNL1        0.0030
     28  C         16.4160  -21.4520  -10.2720 C.2     1  UNL1        0.0150
     29  C         17.2010  -22.2110   -9.3950 C.2     1  UNL1        0.0120
     30  C         18.4990  -22.5920   -9.7640 C.2     1  UNL1        0.0440
     31  C         16.6740  -22.6380   -8.0730 C.2     1  UNL1        0.1410
     32  N         15.6320  -22.0680   -7.5560 N.2     1  UNL1       -0.2350
     33  C         15.1900  -22.5160   -6.3350 C.2     1  UNL1        0.0380
     34  C         13.9750  -21.8100   -5.8000 C.3     1  UNL1        0.0700
     35  C         15.7740  -23.5080   -5.6490 C.2     1  UNL1        0.1010
     36  C         16.9510  -24.1580   -6.2410 C.2     1  UNL1        0.2480
     37  O         17.5380  -25.0740   -5.6730 O.2     1  UNL1       -0.2680
     38  N         17.3370  -23.6680   -7.4530 N.am    1  UNL1       -0.3070
     39  H         18.1140  -24.1390   -7.8880 H       1  UNL1        0.1700
@<TRIPOS>BOND
     1    10     9    1
     2     9    11    2
     3     9     8    1
     4    11    12    1
     5     8     7    2
     6    12     6    2
     7     7     6    1
     8     6     3    1
     9     1    21    1
    10     1     2    1
    11     3     5    2
    12     3     4    2
    13     3     2    1
    14    26    27    1
    15    26    25    2
    16    22    21    2
    17    21    23   am
    18    27    28    2
    19    24    23    1
    20    23    25    1
    21     2    13    1
    22    25    30    1
    23    28    29    1
    24    13    14    1
    25    30    29    2
    26    29    31    1
    27    20    19    1
    28    14    19    2
    29    14    15    1
    30    19    18    1
    31    15    16    2
    32    31    32    2
    33    31    38    1
    34    39    38    1
    35    18    17    2
    36    32    33    1
    37    38    36   am
    38    16    17    1
    39    33    34    1
    40    33    35    2
    41    36    37    2
    42    36    35    1
