@<TRIPOS>MOLECULE
42750_out_ligand_01.pdbqt
 42 45 0 0 0
SMALL
GASTEIGER

@<TRIPOS>ATOM
      1  N         23.2100  -22.5900  -10.6240 N.3     1  UNL1       -0.2980
      2  S         24.7740  -22.1510  -11.0850 S.O2    1  UNL1        0.2610
      3  O         25.0220  -20.7880  -10.6660 O.2     1  UNL1       -0.2000
      4  O         25.6750  -23.2290  -10.7410 O.2     1  UNL1       -0.2000
      5  C         24.6570  -22.1230  -12.8690 C.2     1  UNL1        0.0820
      6  C         24.2650  -20.9510  -13.5190 C.2     1  UNL1        0.0280
      7  C         24.1900  -20.9320  -14.9130 C.2     1  UNL1        0.0410
      8  C         24.5360  -22.0700  -15.6510 C.2     1  UNL1        0.1010
      9  C         24.9550  -23.2420  -14.9940 C.2     1  UNL1        0.1020
     10  C         25.0210  -23.2610  -13.5980 C.2     1  UNL1        0.0650
     11  O         24.4400  -22.1150  -17.0200 O.2     1  UNL1       -0.3530
     12  C         25.3590  -21.2700  -17.7050 C.3     1  UNL1        0.2100
     13  O         25.2710  -24.3100  -15.7970 O.2     1  UNL1       -0.3530
     14  C         25.6530  -25.5170  -15.1510 C.3     1  UNL1        0.2100
     15  C         22.1350  -21.5730  -10.6560 C.3     1  UNL1        0.1400
     16  C         21.1470  -21.8200  -11.8060 C.3     1  UNL1        0.0590
     17  C         19.6900  -21.7660  -11.4040 C.2     1  UNL1       -0.0570
     18  C         19.1230  -22.8050  -10.6540 C.2     1  UNL1        0.0070
     19  C         17.7880  -22.7460  -10.2530 C.2     1  UNL1        0.0010
     20  C         17.0010  -21.6550  -10.6100 C.2     1  UNL1        0.0000
     21  C         17.5450  -20.6240  -11.3730 C.2     1  UNL1        0.0010
     22  C         18.8830  -20.6790  -11.7700 C.2     1  UNL1        0.0070
     23  C         23.0810  -23.6580   -9.6130 C.3     1  UNL1        0.2380
     24  C         21.9030  -23.4110   -8.6640 C.2     1  UNL1        0.2400
     25  O         20.9840  -24.2130   -8.5220 O.2     1  UNL1       -0.2710
     26  N         22.0030  -22.1760   -8.0300 N.am    1  UNL1       -0.3260
     27  H         22.7770  -21.5840   -8.3030 H       1  UNL1        0.1690
     28  C         21.1040  -21.6130   -7.1000 C.2     1  UNL1        0.0350
     29  C         21.3870  -20.4960   -6.3110 C.2     1  UNL1        0.0290
     30  C         20.4410  -20.0040   -5.4060 C.2     1  UNL1        0.0030
     31  C         19.1940  -20.6150   -5.2890 C.2     1  UNL1        0.0150
     32  C         18.8890  -21.7220   -6.0860 C.2     1  UNL1        0.0120
     33  C         19.8490  -22.2220   -6.9790 C.2     1  UNL1        0.0440
     34  C         17.5710  -22.4060   -6.0050 C.2     1  UNL1        0.1410
     35  N         17.1840  -23.2050   -6.9510 N.2     1  UNL1       -0.2350
     36  C         15.9540  -23.8060   -6.8220 C.2     1  UNL1        0.0380
     37  C         15.5840  -24.7490   -7.9320 C.3     1  UNL1        0.0700
     38  C         15.1210  -23.5880   -5.7960 C.2     1  UNL1        0.1010
     39  C         15.5460  -22.6510   -4.7490 C.2     1  UNL1        0.2480
     40  O         14.8150  -22.3610   -3.8100 O.2     1  UNL1       -0.2680
     41  N         16.7950  -22.1310   -4.9060 N.am    1  UNL1       -0.3070
     42  H         17.0680  -21.4510   -4.2130 H       1  UNL1        0.1700
@<TRIPOS>BOND
     1    12    11    1
     2    11     8    1
     3    13    14    1
     4    13     9    1
     5     8     9    2
     6     8     7    1
     7     9    10    1
     8     7     6    2
     9    10     5    2
    10     6     5    1
    11     5     2    1
    12    16    17    1
    13    16    15    1
    14    22    17    2
    15    22    21    1
    16    17    18    1
    17    21    20    2
    18     2     4    2
    19     2     3    2
    20     2     1    1
    21    15     1    1
    22    18    19    2
    23     1    23    1
    24    20    19    1
    25    23    24    1
    26    24    25    2
    27    24    26   am
    28    27    26    1
    29    26    28    1
    30    37    36    1
    31    28    33    2
    32    28    29    1
    33    33    32    1
    34    35    36    1
    35    35    34    2
    36    36    38    2
    37    29    30    2
    38    32    34    1
    39    32    31    2
    40    34    41    1
    41    38    39    1
    42    30    31    1
    43    41    39   am
    44    41    42    1
    45    39    40    2
