@<TRIPOS>MOLECULE
427_out_ligand_01.pdbqt
 37 40 0 0 0
SMALL
GASTEIGER

@<TRIPOS>ATOM
      1  C         20.9010  -22.0300  -10.5130 C.2     1  UNL1        0.0330
      2  C         20.7440  -22.7100   -9.3010 C.2     1  UNL1        0.0170
      3  C         21.7980  -23.4750   -8.7960 C.2     1  UNL1        0.0030
      4  C         23.0050  -23.5510   -9.4930 C.2     1  UNL1        0.0250
      5  C         23.1520  -22.8520  -10.6960 C.2     1  UNL1        0.0750
      6  C         22.1100  -22.0750  -11.2080 C.2     1  UNL1        0.0410
      7  C         19.7970  -21.2310  -11.0800 C.2     1  UNL1        0.2530
      8  N         18.4940  -21.7200  -10.9770 N.am    1  UNL1       -0.3440
      9  C         17.4280  -20.9960  -11.6570 C.3     1  UNL1        0.1530
     10  O         20.0900  -20.1750  -11.6320 O.2     1  UNL1       -0.2670
     11  C         18.1430  -23.0370  -10.4110 C.3     1  UNL1        0.2280
     12  C         17.0870  -22.9790   -9.2930 C.2     1  UNL1        0.2400
     13  N         17.6390  -22.9950   -8.0270 N.am    1  UNL1       -0.3250
     14  H         18.6520  -23.0420   -8.0190 H       1  UNL1        0.1690
     15  O         15.8940  -22.9260   -9.5770 O.2     1  UNL1       -0.2710
     16  C         16.9950  -22.9960   -6.7720 C.2     1  UNL1        0.0410
     17  C         17.5820  -22.2680   -5.7140 C.2     1  UNL1       -0.0350
     18  C         16.9580  -22.2610   -4.4550 C.2     1  UNL1        0.0090
     19  C         18.8620  -21.4920   -5.8790 C.3     1  UNL1        0.0500
     20  C         15.7730  -22.9610   -4.2400 C.2     1  UNL1        0.0070
     21  C         15.1800  -23.6760   -5.2820 C.2     1  UNL1       -0.0600
     22  C         13.9210  -24.4610   -5.0500 C.3     1  UNL1        0.0480
     23  C         15.8040  -23.6970   -6.5390 C.2     1  UNL1        0.0370
     24  S         24.6700  -22.9460  -11.6030 S.O2    1  UNL1        0.2450
     25  O         24.5370  -23.9400  -12.6440 O.2     1  UNL1       -0.2060
     26  O         25.7390  -23.0110  -10.6290 O.2     1  UNL1       -0.2060
     27  N         24.7660  -21.4040  -12.3000 N.pl3   1  UNL1       -0.1810
     28  H         25.1480  -20.7430  -11.6220 H       1  UNL1        0.1460
     29  C         25.2490  -21.3120  -13.6380 C.2     1  UNL1        0.0250
     30  C         26.6170  -21.5010  -13.9080 C.2     1  UNL1        0.0270
     31  C         27.1070  -21.3650  -15.2110 C.2     1  UNL1        0.0410
     32  C         26.2050  -21.0350  -16.2000 C.2     1  UNL1        0.1050
     33  C         24.8690  -20.8440  -15.9310 C.2     1  UNL1        0.1060
     34  O         26.5010  -20.8560  -17.5150 O.2     1  UNL1       -0.3230
     35  C         24.3570  -20.9710  -14.6570 C.2     1  UNL1        0.0640
     36  O         24.1560  -20.5250  -17.0460 O.2     1  UNL1       -0.3230
     37  C         25.2000  -20.5170  -18.0440 C.3     1  UNL1        0.3520
@<TRIPOS>BOND
     1    37    34    1
     2    37    36    1
     3    34    32    1
     4    36    33    1
     5    32    33    2
     6    32    31    1
     7    33    35    1
     8    31    30    2
     9    35    29    2
    10    30    29    1
    11    29    27    1
    12    25    24    2
    13    27    28    1
    14    27    24    1
    15     9     8    1
    16    10     7    2
    17    24     5    1
    18    24    26    2
    19     6     5    1
    20     6     1    2
    21     7     8   am
    22     7     1    1
    23     8    11    1
    24     5     4    2
    25     1     2    1
    26    11    12    1
    27    15    12    2
    28     4     3    1
    29     2     3    2
    30    12    13   am
    31    13    14    1
    32    13    16    1
    33    16    23    2
    34    16    17    1
    35    23    21    1
    36    19    17    1
    37    17    18    2
    38    21    22    1
    39    21    20    2
    40    18    20    1
