@<TRIPOS>MOLECULE
42924_out_ligand_01.pdbqt
 33 37 0 0 0
SMALL
GASTEIGER

@<TRIPOS>ATOM
      1  C         20.9810  -22.4870  -10.3830 C.2     1  UNL1        0.1220
      2  N         21.0250  -21.9660  -11.5790 N.2     1  UNL1       -0.2500
      3  C         19.8560  -21.4140  -12.0690 C.2     1  UNL1        0.1370
      4  C         18.6950  -21.4120  -11.3980 C.2     1  UNL1        0.1380
      5  N         18.6450  -21.9820  -10.1360 N.pl3   1  UNL1       -0.2400
      6  N         17.5910  -22.0830   -9.3010 N.2     1  UNL1       -0.1670
      7  C         18.0600  -22.7230   -8.2220 C.2     1  UNL1        0.0910
      8  C         19.4370  -23.0230   -8.3560 C.2     1  UNL1        0.0690
      9  C         19.7860  -22.5310   -9.5920 C.2     1  UNL1        0.0950
     10  S         22.4140  -23.1810   -9.6710 S.3     1  UNL1       -0.0990
     11  C         23.4550  -21.7000   -9.5580 C.3     1  UNL1        0.1840
     12  C         24.4770  -21.6780  -10.6860 C.2     1  UNL1        0.2310
     13  N         24.2680  -22.6770  -11.6210 N.am    1  UNL1       -0.3260
     14  H         23.5100  -23.3280  -11.4190 H       1  UNL1        0.1690
     15  O         25.3850  -20.8520  -10.6990 O.2     1  UNL1       -0.2720
     16  C         25.0630  -22.9980  -12.7390 C.2     1  UNL1        0.0350
     17  C         26.1350  -23.8910  -12.7060 C.2     1  UNL1        0.0290
     18  C         26.8500  -24.1790  -13.8710 C.2     1  UNL1        0.0040
     19  C         26.5100  -23.5640  -15.0760 C.2     1  UNL1        0.0180
     20  C         25.4590  -22.6470  -15.1200 C.2     1  UNL1        0.0020
     21  C         24.7330  -22.3800  -13.9530 C.2     1  UNL1        0.0480
     22  S         24.9760  -21.8330  -16.6340 S.3     1  UNL1       -0.1340
     23  C         24.4150  -23.2610  -17.6010 C.3     1  UNL1        0.0950
     24  C         17.1990  -23.0590   -7.0940 C.2     1  UNL1        0.0050
     25  C         16.1310  -23.9360   -7.3340 C.2     1  UNL1        0.0150
     26  C         15.2820  -24.3120   -6.2990 C.2     1  UNL1        0.0020
     27  C         15.4970  -23.8160   -5.0140 C.2     1  UNL1        0.0120
     28  C         16.5580  -22.9370   -4.7450 C.2     1  UNL1       -0.0250
     29  C         16.7570  -22.4510   -3.4420 C.2     1  UNL1        0.0120
     30  C         17.4300  -22.5390   -5.7900 C.2     1  UNL1       -0.0130
     31  C         17.8030  -21.5770   -3.1530 C.2     1  UNL1        0.0010
     32  C         18.6650  -21.1740   -4.1650 C.2     1  UNL1        0.0010
     33  C         18.4810  -21.6480   -5.4650 C.2     1  UNL1        0.0130
@<TRIPOS>BOND
     1    23    22    1
     2    22    20    1
     3    20    19    2
     4    20    21    1
     5    19    18    1
     6    21    16    2
     7    18    17    2
     8    16    17    1
     9    16    13    1
    10     3     2    1
    11     3     4    2
    12    13    14    1
    13    13    12   am
    14     2     1    2
    15     4     5    1
    16    15    12    2
    17    12    11    1
    18     1    10    1
    19     1     9    1
    20     5     9    1
    21     5     6    1
    22    10    11    1
    23     9     8    2
    24     6     7    2
    25     8     7    1
    26     7    24    1
    27    25    24    2
    28    25    26    1
    29    24    30    1
    30    26    27    2
    31    30    33    1
    32    30    28    2
    33    33    32    2
    34    27    28    1
    35    28    29    1
    36    32    31    1
    37    29    31    2
