@<TRIPOS>MOLECULE
42922_out_ligand_01.pdbqt
 35 37 0 0 0
SMALL
GASTEIGER

@<TRIPOS>ATOM
      1  C         21.9390  -22.4500  -11.4360 C.2     1  UNL1        0.0230
      2  C         21.3350  -21.5260  -12.2880 C.2     1  UNL1        0.0240
      3  C         20.0250  -21.1090  -12.0500 C.2     1  UNL1        0.0030
      4  C         19.3180  -21.6150  -10.9570 C.2     1  UNL1        0.0170
      5  C         19.9250  -22.5390  -10.0930 C.2     1  UNL1        0.0340
      6  C         21.2350  -22.9710  -10.3510 C.2     1  UNL1        0.0410
      7  C         19.2150  -23.1170   -8.9080 C.2     1  UNL1        0.2560
      8  O         19.4630  -24.2810   -8.6100 O.2     1  UNL1       -0.2670
      9  N         18.3660  -22.2450   -8.2530 N.am    1  UNL1       -0.3160
     10  H         18.3570  -21.2680   -8.5400 H       1  UNL1        0.1690
     11  C         17.5830  -22.5000   -7.1340 C.ar    1  UNL1        0.0930
     12  S         16.1290  -23.3520   -7.2440 S.2     1  UNL1       -0.0760
     13  C         15.8670  -23.2910   -5.5620 C.ar    1  UNL1       -0.0120
     14  C         14.6530  -23.9520   -4.9920 C.3     1  UNL1        0.0570
     15  C         16.8880  -22.6220   -4.8970 C.ar    1  UNL1       -0.0310
     16  C         16.9500  -22.5050   -3.4040 C.3     1  UNL1        0.0500
     17  C         17.8660  -22.0870   -5.8360 C.ar    1  UNL1        0.0720
     18  C         19.0390  -21.2510   -5.5600 C.2     1  UNL1        0.2520
     19  N         18.8840  -20.2470   -4.6480 N.am    1  UNL1       -0.3660
     20  H         17.9610  -19.9010   -4.4280 H       1  UNL1        0.1590
     21  H         19.6440  -19.5800   -4.6040 H       1  UNL1        0.1590
     22  O         20.1030  -21.3650   -6.1670 O.2     1  UNL1       -0.2680
     23  N         23.2710  -22.9050  -11.7190 N.pl3   1  UNL1       -0.1810
     24  H         23.5310  -22.6810  -12.6820 H       1  UNL1        0.1460
     25  S         24.4740  -22.2110  -10.7210 S.O2    1  UNL1        0.2450
     26  O         23.7760  -21.4160   -9.7340 O.2     1  UNL1       -0.2060
     27  O         25.4620  -23.2030  -10.3570 O.2     1  UNL1       -0.2060
     28  C         25.2440  -21.1020  -11.8770 C.2     1  UNL1        0.0750
     29  C         24.8570  -21.1000  -13.2200 C.2     1  UNL1        0.0270
     30  C         25.4660  -20.2120  -14.1140 C.2     1  UNL1        0.0380
     31  C         26.4520  -19.3270  -13.6660 C.2     1  UNL1        0.0680
     32  C         26.8260  -19.3370  -12.3180 C.2     1  UNL1        0.0380
     33  C         26.2240  -20.2180  -11.4190 C.2     1  UNL1        0.0270
     34  O         27.1210  -18.4120  -14.4340 O.2     1  UNL1       -0.3560
     35  C         26.5490  -18.0870  -15.6960 C.3     1  UNL1        0.2100
@<TRIPOS>BOND
     1    35    34    1
     2    34    31    1
     3    30    31    2
     4    30    29    1
     5    31    32    1
     6    29    28    2
     7    24    23    1
     8    32    33    2
     9     2     3    1
    10     2     1    2
    11     3     4    2
    12    28    33    1
    13    28    25    1
    14    23     1    1
    15    23    25    1
    16     1     6    1
    17     4     5    1
    18    25    27    2
    19    25    26    2
    20     6     5    2
    21     5     7    1
    22     7     8    2
    23     7     9   am
    24    10     9    1
    25     9    11    1
    26    12    11   ar
    27    12    13   ar
    28    11    17   ar
    29    22    18    2
    30    17    18    1
    31    17    15   ar
    32    13    14    1
    33    13    15   ar
    34    18    19   am
    35    15    16    1
    36    19    21    1
    37    19    20    1
