@<TRIPOS>MOLECULE
42931_out_ligand_01.pdbqt
 32 36 0 0 0
SMALL
GASTEIGER

@<TRIPOS>ATOM
      1  C         20.8180  -22.5120  -10.3730 C.2     1  UNL1        0.1220
      2  N         20.8660  -21.9290  -11.5410 N.2     1  UNL1       -0.2500
      3  C         19.6900  -21.3870  -12.0270 C.2     1  UNL1        0.1370
      4  C         18.5270  -21.4130  -11.3610 C.2     1  UNL1        0.1380
      5  N         18.4770  -22.0190  -10.1170 N.pl3   1  UNL1       -0.2400
      6  N         17.4170  -22.1530   -9.2920 N.2     1  UNL1       -0.1670
      7  C         17.8860  -22.8110   -8.2220 C.2     1  UNL1        0.0910
      8  C         19.2660  -23.1010   -8.3640 C.2     1  UNL1        0.0690
      9  C         19.6160  -22.5850   -9.5900 C.2     1  UNL1        0.0950
     10  S         22.2280  -23.2680   -9.6800 S.3     1  UNL1       -0.0990
     11  C         23.3600  -21.8620   -9.5330 C.3     1  UNL1        0.1840
     12  C         24.2660  -21.7640  -10.7520 C.2     1  UNL1        0.2310
     13  O         25.2270  -21.0000  -10.7630 O.2     1  UNL1       -0.2720
     14  N         23.8780  -22.6020  -11.7830 N.am    1  UNL1       -0.3260
     15  H         22.9800  -23.0670  -11.6580 H       1  UNL1        0.1690
     16  C         24.5040  -22.7830  -13.0330 C.2     1  UNL1        0.0370
     17  C         25.3660  -23.8410  -13.3300 C.2     1  UNL1        0.0290
     18  C         25.9490  -23.9530  -14.5990 C.2     1  UNL1        0.0050
     19  C         25.6700  -23.0070  -15.5820 C.2     1  UNL1        0.0420
     20  C         24.8090  -21.9580  -15.2850 C.2     1  UNL1        0.1180
     21  F         24.5340  -21.0450  -16.2260 F       1  UNL1       -0.2060
     22  C         24.2260  -21.8390  -14.0280 C.2     1  UNL1        0.0710
     23  C         17.0380  -23.1280   -7.0740 C.2     1  UNL1        0.0050
     24  C         15.9420  -23.9800   -7.2960 C.2     1  UNL1        0.0150
     25  C         15.0850  -24.3160   -6.2540 C.2     1  UNL1        0.0020
     26  C         15.3100  -23.8020   -4.9810 C.2     1  UNL1        0.0120
     27  C         16.3930  -22.9460   -4.7260 C.2     1  UNL1       -0.0250
     28  C         16.5930  -22.4360   -3.4320 C.2     1  UNL1        0.0120
     29  C         17.2810  -22.5940   -5.7750 C.2     1  UNL1       -0.0130
     30  C         17.6570  -21.5800   -3.1540 C.2     1  UNL1        0.0010
     31  C         18.5350  -21.2190   -4.1670 C.2     1  UNL1        0.0010
     32  C         18.3490  -21.7180   -5.4570 C.2     1  UNL1        0.0130
@<TRIPOS>BOND
     1    21    20    1
     2    19    20    2
     3    19    18    1
     4    20    22    1
     5    18    17    2
     6    22    16    2
     7    17    16    1
     8    16    14    1
     9     3     2    1
    10     3     4    2
    11    14    15    1
    12    14    12   am
    13     2     1    2
    14     4     5    1
    15    13    12    2
    16    12    11    1
    17     1    10    1
    18     1     9    1
    19     5     9    1
    20     5     6    1
    21    10    11    1
    22     9     8    2
    23     6     7    2
    24     8     7    1
    25     7    23    1
    26    24    23    2
    27    24    25    1
    28    23    29    1
    29    25    26    2
    30    29    32    1
    31    29    27    2
    32    32    31    2
    33    26    27    1
    34    27    28    1
    35    31    30    1
    36    28    30    2
