@<TRIPOS>MOLECULE
42959_out_ligand_01.pdbqt
 38 42 0 0 0
SMALL
GASTEIGER

@<TRIPOS>ATOM
      1  C         17.2470  -21.9420  -10.2910 C.ar    1  UNL1        0.1530
      2  N         16.6630  -21.2170  -11.2290 N.ar    1  UNL1       -0.1320
      3  N         17.6230  -20.4910  -11.8750 N.ar    1  UNL1       -0.1220
      4  C         18.7820  -20.7840  -11.3320 C.ar    1  UNL1        0.1960
      5  N         18.6240  -21.7670  -10.3660 N.ar    1  UNL1       -0.2740
      6  S         20.2990  -20.1970  -11.9420 S.3     1  UNL1       -0.0800
      7  C         21.0670  -21.7780  -12.4110 C.3     1  UNL1        0.1850
      8  C         22.3910  -21.6020  -13.1590 C.2     1  UNL1        0.2340
      9  O         22.4410  -20.9650  -14.2130 O.2     1  UNL1       -0.2720
     10  N         23.5170  -22.1600  -12.5110 N.am    1  UNL1       -0.3170
     11  C         23.6260  -22.0430  -11.0500 C.3     1  UNL1        0.1320
     12  C         24.7300  -22.4780  -13.2300 C.2     1  UNL1        0.0430
     13  C         24.6060  -23.0260  -10.4400 C.3     1  UNL1        0.0250
     14  C         25.9830  -22.7670  -11.0240 C.3     1  UNL1        0.0420
     15  C         25.9260  -22.7620  -12.5270 C.2     1  UNL1       -0.0310
     16  C         27.1160  -23.0420  -13.2300 C.2     1  UNL1        0.0090
     17  C         27.1210  -23.1070  -14.6210 C.2     1  UNL1        0.0010
     18  C         25.9370  -22.8920  -15.3200 C.2     1  UNL1        0.0020
     19  C         24.7560  -22.5840  -14.6310 C.2     1  UNL1        0.0300
     20  C         19.6320  -22.5090   -9.6890 C.2     1  UNL1        0.0430
     21  C         20.4440  -21.8910   -8.7310 C.2     1  UNL1        0.0300
     22  C         21.4370  -22.6290   -8.0840 C.2     1  UNL1        0.0020
     23  C         21.6250  -23.9750   -8.3900 C.2     1  UNL1        0.0000
     24  C         20.8190  -24.5940   -9.3460 C.2     1  UNL1        0.0020
     25  C         19.8210  -23.8650   -9.9960 C.2     1  UNL1        0.0300
     26  C         16.5020  -22.7500   -9.2840 C.3     1  UNL1        0.2040
     27  N         16.8120  -22.3690   -7.9260 N.am    1  UNL1       -0.3500
     28  C         17.4330  -23.2090   -7.0310 C.2     1  UNL1        0.2540
     29  O         17.7780  -24.3470   -7.3330 O.2     1  UNL1       -0.2680
     30  H         16.5630  -21.4380   -7.6040 H       1  UNL1        0.1630
     31  C         17.6720  -22.6900   -5.6420 C.2     1  UNL1        0.0650
     32  C         18.5480  -21.5900   -5.5380 C.2     1  UNL1        0.0200
     33  C         18.8390  -21.0160   -4.3030 C.2     1  UNL1        0.0010
     34  C         18.2520  -21.5310   -3.1530 C.2     1  UNL1        0.0030
     35  C         17.3850  -22.6240   -3.2330 C.2     1  UNL1        0.0380
     36  C         17.0820  -23.2160   -4.4700 C.2     1  UNL1        0.0840
     37  O         16.2400  -24.2890   -4.6010 O.2     1  UNL1       -0.3550
     38  C         14.8360  -24.0490   -4.6000 C.3     1  UNL1        0.2100
@<TRIPOS>BOND
     1    18    19    1
     2    18    17    2
     3    19    12    2
     4    17    16    1
     5     9     8    2
     6    16    15    2
     7    12    15    1
     8    12    10    1
     9     8    10   am
    10     8     7    1
    11    15    14    1
    12    10    11    1
    13     7     6    1
    14     6     4    1
    15     3     4   ar
    16     3     2   ar
    17     4     5   ar
    18     2     1   ar
    19    11    13    1
    20    14    13    1
    21     5     1   ar
    22     5    20    1
    23     1    26    1
    24    25    20    2
    25    25    24    1
    26    20    21    1
    27    24    23    2
    28    26    27    1
    29    21    22    2
    30    23    22    1
    31    27    30    1
    32    27    28   am
    33    29    28    2
    34    28    31    1
    35    31    32    2
    36    31    36    1
    37    32    33    1
    38    37    38    1
    39    37    36    1
    40    36    35    2
    41    33    34    2
    42    35    34    1
