@<TRIPOS>MOLECULE
42987_out_ligand_01.pdbqt
 38 41 0 0 0
SMALL
GASTEIGER

@<TRIPOS>ATOM
      1  N         21.4080  -22.2740   -9.4090 N.am    1  UNL1       -0.3160
      2  C         20.9860  -23.4850   -8.8970 C.2     1  UNL1        0.2560
      3  O         21.3590  -24.6050   -9.2200 O.2     1  UNL1       -0.2670
      4  H         21.0890  -21.4180   -8.9570 H       1  UNL1        0.1690
      5  C         22.2740  -22.0580  -10.4730 C.ar    1  UNL1        0.0930
      6  S         23.9490  -22.2640  -10.3070 S.2     1  UNL1       -0.0730
      7  C         24.2230  -21.9030  -11.9380 C.ar    1  UNL1        0.0200
      8  C         23.0560  -21.6130  -12.6240 C.ar    1  UNL1       -0.0230
      9  C         25.5970  -21.9660  -12.5480 C.3     1  UNL1        0.3190
     10  C         23.1290  -21.3040  -14.0950 C.3     1  UNL1        0.0710
     11  C         21.8970  -21.6750  -11.7590 C.ar    1  UNL1        0.0730
     12  C         24.5200  -21.6570  -14.6790 C.3     1  UNL1        0.2780
     13  N         25.6700  -21.2310  -13.8420 N.3     1  UNL1        0.0970
     14  C         25.7970  -19.7630  -13.6720 C.3     1  UNL1        0.2150
     15  C         26.1770  -19.0550  -14.9860 C.3     1  UNL1        0.0420
     16  C         26.8800  -19.4070  -12.6380 C.3     1  UNL1        0.0420
     17  C         20.4920  -21.4290  -12.0890 C.2     1  UNL1        0.2520
     18  N         20.1160  -20.1310  -12.2760 N.am    1  UNL1       -0.3660
     19  H         20.6630  -19.3850  -11.8790 H       1  UNL1        0.1590
     20  H         19.1180  -19.9780  -12.3410 H       1  UNL1        0.1590
     21  O         19.6500  -22.3250  -12.1370 O.2     1  UNL1       -0.2680
     22  C         19.9840  -23.3800   -7.7930 C.2     1  UNL1        0.0320
     23  C         19.2000  -24.5070   -7.5000 C.2     1  UNL1        0.0180
     24  C         18.2440  -24.4590   -6.4830 C.2     1  UNL1        0.0260
     25  C         18.0630  -23.2710   -5.7710 C.2     1  UNL1        0.0750
     26  C         18.8350  -22.1390   -6.0550 C.2     1  UNL1        0.0260
     27  C         19.7900  -22.1910   -7.0730 C.2     1  UNL1        0.0180
     28  S         16.8500  -23.1780   -4.4690 S.O2    1  UNL1        0.2470
     29  O         16.8850  -24.4300   -3.7390 O.2     1  UNL1       -0.2050
     30  O         17.0680  -21.9110   -3.8020 O.2     1  UNL1       -0.2050
     31  N         15.3810  -23.1160   -5.3580 N.pl3   1  UNL1       -0.1760
     32  C         14.4530  -22.0300   -4.9610 C.3     1  UNL1        0.1360
     33  C         15.5530  -23.2380   -6.7830 C.2     1  UNL1        0.0250
     34  C         15.8220  -22.1360   -7.6010 C.2     1  UNL1        0.0240
     35  C         15.9110  -22.3000   -8.9840 C.2     1  UNL1        0.0020
     36  C         15.7150  -23.5590   -9.5530 C.2     1  UNL1        0.0000
     37  C         15.4220  -24.6540   -8.7410 C.2     1  UNL1        0.0020
     38  C         15.3320  -24.4920   -7.3580 C.2     1  UNL1        0.0240
@<TRIPOS>BOND
     1    15    14    1
     2    12    10    1
     3    12    13    1
     4    10     8    1
     5    13    14    1
     6    13     9    1
     7    14    16    1
     8     8     7   ar
     9     8    11   ar
    10     9     7    1
    11    20    18    1
    12    18    17   am
    13    18    19    1
    14    21    17    2
    15    17    11    1
    16     7     6   ar
    17    11     5   ar
    18     5     6   ar
    19     5     1    1
    20    36    35    2
    21    36    37    1
    22     1     4    1
    23     1     2   am
    24     3     2    2
    25    35    34    1
    26     2    22    1
    27    37    38    2
    28    22    23    2
    29    22    27    1
    30    34    33    2
    31    23    24    1
    32    38    33    1
    33    27    26    2
    34    33    31    1
    35    24    25    2
    36    26    25    1
    37    25    28    1
    38    31    32    1
    39    31    28    1
    40    28    30    2
    41    28    29    2
