@<TRIPOS>MOLECULE
429_out_ligand_01.pdbqt
 39 42 0 0 0
SMALL
GASTEIGER

@<TRIPOS>ATOM
      1  C         20.9100  -22.5460   -7.7210 C.2     1  UNL1        0.0330
      2  C         20.9570  -23.7630   -8.4110 C.2     1  UNL1        0.0190
      3  C         22.0310  -24.0510   -9.2570 C.2     1  UNL1        0.0310
      4  C         23.0520  -23.1150   -9.4440 C.2     1  UNL1        0.0420
      5  C         23.0000  -21.8970   -8.7660 C.2     1  UNL1        0.0310
      6  C         21.9280  -21.6050   -7.9130 C.2     1  UNL1        0.0190
      7  C         19.7620  -22.2950   -6.8090 C.2     1  UNL1        0.2700
      8  O         19.6890  -21.2430   -6.1810 O.2     1  UNL1       -0.2660
      9  N         18.7900  -23.2810   -6.7690 N.am    1  UNL1       -0.2640
     10  H         18.6960  -23.9430   -7.5340 H       1  UNL1        0.1900
     11  N         17.6070  -22.9900   -6.0640 N.am    1  UNL1       -0.2740
     12  H         17.7270  -22.6810   -5.0980 H       1  UNL1        0.1890
     13  C         16.4490  -23.6860   -6.3340 C.2     1  UNL1        0.1860
     14  S         15.1320  -23.5020   -5.3320 S.2     1  UNL1       -0.0400
     15  N         16.5200  -24.4630   -7.4620 N.am    1  UNL1       -0.3660
     16  H         16.6150  -25.4460   -7.2400 H       1  UNL1        0.1610
     17  C         15.8850  -24.1910   -8.7470 C.3     1  UNL1        0.1260
     18  C         15.8140  -22.6890   -9.0600 C.3     1  UNL1        0.0580
     19  C         16.8890  -22.2510  -10.0300 C.2     1  UNL1       -0.0570
     20  C         18.0730  -22.9920  -10.1540 C.2     1  UNL1        0.0070
     21  C         19.0880  -22.5660  -11.0090 C.2     1  UNL1        0.0010
     22  C         18.9310  -21.3940  -11.7460 C.2     1  UNL1        0.0000
     23  C         17.7570  -20.6500  -11.6350 C.2     1  UNL1        0.0010
     24  C         16.7390  -21.0760  -10.7800 C.2     1  UNL1        0.0070
     25  N         24.1520  -23.4910  -10.2600 N.pl3   1  UNL1       -0.2810
     26  H         24.1060  -24.3680  -10.7760 H       1  UNL1        0.1790
     27  S         25.1680  -22.3680  -10.9880 S.O2    1  UNL1        0.2630
     28  O         24.6040  -21.0430  -10.8500 O.2     1  UNL1       -0.2000
     29  O         26.5020  -22.6690  -10.5110 O.2     1  UNL1       -0.2000
     30  C         25.1140  -22.8270  -12.7040 C.2     1  UNL1        0.0820
     31  C         25.5310  -24.1100  -13.0800 C.2     1  UNL1        0.0280
     32  C         25.5220  -24.4670  -14.4290 C.2     1  UNL1        0.0410
     33  C         25.1140  -23.5430  -15.3910 C.2     1  UNL1        0.1020
     34  C         24.7400  -22.2480  -15.0090 C.2     1  UNL1        0.1030
     35  O         25.1240  -23.9670  -16.6950 O.2     1  UNL1       -0.3460
     36  C         24.7210  -21.8890  -13.6630 C.2     1  UNL1        0.0650
     37  O         24.3800  -21.2770  -15.9080 O.2     1  UNL1       -0.3460
     38  C         24.7790  -21.6260  -17.2400 C.3     1  UNL1        0.2020
     39  C         24.4060  -23.0660  -17.5470 C.3     1  UNL1        0.2020
@<TRIPOS>BOND
     1    39    38    1
     2    39    35    1
     3    38    37    1
     4    35    33    1
     5    37    34    1
     6    33    34    2
     7    33    32    1
     8    34    36    1
     9    32    31    2
    10    36    30    2
    11    31    30    1
    12    30    27    1
    13    22    23    2
    14    22    21    1
    15    23    24    1
    16    21    20    2
    17    27    28    2
    18    27    29    2
    19    27    25    1
    20    24    19    2
    21    26    25    1
    22    25     4    1
    23    20    19    1
    24    19    18    1
    25     4     3    2
    26     4     5    1
    27     3     2    1
    28    18    17    1
    29     5     6    2
    30    17    15    1
    31     2     1    2
    32     6     1    1
    33     1     7    1
    34    10     9    1
    35    15    16    1
    36    15    13    1
    37     7     9   am
    38     7     8    2
    39     9    11    1
    40    13    11    1
    41    13    14    2
    42    11    12    1
