@<TRIPOS>MOLECULE
43052_out_ligand_01.pdbqt
 37 41 0 0 0
SMALL
GASTEIGER

@<TRIPOS>ATOM
      1  C         19.0820  -21.0430  -11.5910 C.ar    1  UNL1        0.1530
      2  N         17.9470  -20.6690  -12.1550 N.ar    1  UNL1       -0.1320
      3  N         16.9260  -21.3890  -11.5960 N.ar    1  UNL1       -0.1220
      4  C         17.4520  -22.2090  -10.7160 C.ar    1  UNL1        0.1960
      5  N         18.8260  -22.0780  -10.6990 N.ar    1  UNL1       -0.2740
      6  S         16.5690  -23.4620   -9.8980 S.3     1  UNL1       -0.0800
      7  C         16.3100  -22.6490   -8.2830 C.3     1  UNL1        0.1850
      8  C         16.0860  -23.6730   -7.1670 C.2     1  UNL1        0.2340
      9  O         15.4220  -24.7000   -7.3720 O.2     1  UNL1       -0.2720
     10  N         16.5570  -23.3660   -5.8820 N.am    1  UNL1       -0.3170
     11  C         15.7430  -23.9070   -4.7930 C.3     1  UNL1        0.1320
     12  C         17.6050  -22.4440   -5.5700 C.2     1  UNL1        0.0430
     13  C         16.2250  -23.5810   -3.3900 C.3     1  UNL1        0.0250
     14  C         16.5570  -22.1040   -3.2990 C.3     1  UNL1        0.0420
     15  C         17.6190  -21.7990   -4.3190 C.2     1  UNL1       -0.0310
     16  C         18.6120  -20.8520   -4.0220 C.2     1  UNL1        0.0090
     17  C         19.6290  -20.5870   -4.9350 C.2     1  UNL1        0.0010
     18  C         19.6680  -21.2770   -6.1420 C.2     1  UNL1        0.0020
     19  C         18.6700  -22.2050   -6.4510 C.2     1  UNL1        0.0300
     20  C         19.7680  -22.8350   -9.9620 C.2     1  UNL1        0.0440
     21  C         19.5270  -24.1960   -9.7240 C.2     1  UNL1        0.0300
     22  C         20.4790  -24.9550   -9.0420 C.2     1  UNL1        0.0040
     23  C         21.6650  -24.3620   -8.6070 C.2     1  UNL1        0.0240
     24  C         21.8950  -23.0060   -8.8440 C.2     1  UNL1        0.0360
     25 CL         23.3680  -22.2890   -8.3230 Cl      1  UNL1       -0.0840
     26  C         20.9480  -22.2320   -9.5120 C.2     1  UNL1        0.0540
     27  C         20.4010  -20.3810  -11.8370 C.3     1  UNL1        0.2040
     28  N         21.4450  -21.3250  -12.1830 N.am    1  UNL1       -0.3500
     29  C         22.2820  -21.1160  -13.2580 C.2     1  UNL1        0.2520
     30  O         22.1220  -20.2230  -14.0790 O.2     1  UNL1       -0.2680
     31  H         21.7350  -21.9820  -11.4720 H       1  UNL1        0.1630
     32  C         23.4760  -22.0020  -13.3270 C.2     1  UNL1        0.0320
     33  C         23.8580  -22.8190  -12.2550 C.2     1  UNL1        0.0170
     34  C         25.0120  -23.6010  -12.3520 C.2     1  UNL1        0.0010
     35  C         25.7800  -23.5730  -13.5170 C.2     1  UNL1        0.0000
     36  C         25.3910  -22.7750  -14.5930 C.2     1  UNL1        0.0010
     37  C         24.2380  -21.9940  -14.5030 C.2     1  UNL1        0.0170
@<TRIPOS>BOND
     1    36    37    1
     2    36    35    2
     3    37    32    2
     4    30    29    2
     5    35    34    1
     6    32    29    1
     7    32    33    1
     8    29    28   am
     9    34    33    2
    10    28    27    1
    11    28    31    1
    12     2     3   ar
    13     2     1   ar
    14    27     1    1
    15     3     4   ar
    16     1     5   ar
    17     4     5   ar
    18     4     6    1
    19     5    20    1
    20    20    21    2
    21    20    26    1
    22     6     7    1
    23    21    22    1
    24    26    24    2
    25    22    23    2
    26    24    23    1
    27    24    25    1
    28     7     8    1
    29     9     8    2
    30     8    10   am
    31    19    18    1
    32    19    12    2
    33    18    17    2
    34    10    12    1
    35    10    11    1
    36    12    15    1
    37    17    16    1
    38    11    13    1
    39    15    16    2
    40    15    14    1
    41    13    14    1
