@<TRIPOS>MOLECULE
43064_out_ligand_01.pdbqt
 34 37 0 0 0
SMALL
GASTEIGER

@<TRIPOS>ATOM
      1  N         17.3620  -20.6510  -11.7720 N.1     1  UNL1       -0.1970
      2  C         17.5080  -21.4710  -10.9650 C.1     1  UNL1        0.0590
      3  C         17.7110  -22.5060   -9.9440 C.3     1  UNL1        0.1340
      4  C         16.5800  -22.5410   -8.9200 C.3     1  UNL1        0.0930
      5  S         16.1720  -24.2110   -8.2760 S.3     1  UNL1       -0.1270
      6  C         16.1370  -23.8570   -6.5150 C.2     1  UNL1        0.0270
      7  C         14.9080  -23.9610   -5.8500 C.2     1  UNL1        0.0210
      8  C         14.8360  -23.7440   -4.4760 C.2     1  UNL1        0.0020
      9  C         15.9880  -23.4190   -3.7650 C.2     1  UNL1        0.0020
     10  C         17.2130  -23.2890   -4.4250 C.2     1  UNL1        0.0310
     11  C         17.3020  -23.4880   -5.8050 C.2     1  UNL1        0.0510
     12  N         18.5010  -23.3220   -6.5410 N.am    1  UNL1       -0.3220
     13  C         19.3690  -22.2470   -6.5210 C.2     1  UNL1        0.2560
     14  O         19.2600  -21.2320   -5.8460 O.2     1  UNL1       -0.2670
     15  H         18.6600  -24.0530   -7.2240 H       1  UNL1        0.1690
     16  C         20.5330  -22.3540   -7.4530 C.2     1  UNL1        0.0320
     17  C         21.5450  -21.3860   -7.3600 C.2     1  UNL1        0.0180
     18  C         22.6560  -21.4400   -8.2040 C.2     1  UNL1        0.0260
     19  C         22.7510  -22.4690   -9.1440 C.2     1  UNL1        0.0750
     20  C         21.7630  -23.4560   -9.2290 C.2     1  UNL1        0.0260
     21  C         20.6550  -23.3990   -8.3800 C.2     1  UNL1        0.0180
     22  S         24.1650  -22.5700  -10.2310 S.O2    1  UNL1        0.2480
     23  O         24.8870  -21.3190  -10.1260 O.2     1  UNL1       -0.2050
     24  O         24.7990  -23.8300   -9.9050 O.2     1  UNL1       -0.2050
     25  N         23.4140  -22.6300  -11.8050 N.pl3   1  UNL1       -0.1720
     26  C         22.3520  -21.5770  -11.9420 C.3     1  UNL1        0.1140
     27  C         21.8640  -21.4550  -13.3730 C.3     1  UNL1        0.0200
     28  C         23.0250  -21.0230  -14.2470 C.3     1  UNL1        0.0420
     29  C         24.1630  -21.9940  -14.1060 C.2     1  UNL1       -0.0360
     30  C         25.0610  -22.1260  -15.1820 C.2     1  UNL1        0.0090
     31  C         24.3490  -22.7480  -12.9300 C.2     1  UNL1        0.0310
     32  C         26.0970  -23.0510  -15.1320 C.2     1  UNL1        0.0010
     33  C         26.2320  -23.8640  -14.0150 C.2     1  UNL1        0.0020
     34  C         25.3550  -23.7250  -12.9360 C.2     1  UNL1        0.0250
@<TRIPOS>BOND
     1    30    32    1
     2    30    29    2
     3    32    33    2
     4    28    29    1
     5    28    27    1
     6    29    31    1
     7    33    34    1
     8    27    26    1
     9    34    31    2
    10    31    25    1
    11    26    25    1
    12    25    22    1
    13     1     2    3
    14     2     3    1
    15    22    23    2
    16    22    24    2
    17    22    19    1
    18     3     4    1
    19    20    19    2
    20    20    21    1
    21    19    18    1
    22     4     5    1
    23    21    16    2
    24     5     6    1
    25    18    17    2
    26    16    17    1
    27    16    13    1
    28    15    12    1
    29    12    13   am
    30    12    11    1
    31    13    14    2
    32     6     7    2
    33     6    11    1
    34     7     8    1
    35    11    10    2
    36     8     9    2
    37    10     9    1
