@<TRIPOS>MOLECULE
4308_out_ligand_01.pdbqt
 29 32 0 0 0
SMALL
GASTEIGER

@<TRIPOS>ATOM
      1  C         15.9380  -23.0380   -4.1650 C.3     1  UNL1        0.0480
      2  C         16.3370  -23.0690   -5.6120 C.2     1  UNL1       -0.0600
      3  C         15.5140  -22.4970   -6.5860 C.2     1  UNL1        0.0090
      4  C         15.8690  -22.5720   -7.9320 C.2     1  UNL1        0.0400
      5  C         17.0570  -23.2000   -8.3170 C.2     1  UNL1        0.1020
      6  C         17.8900  -23.7750   -7.3600 C.2     1  UNL1        0.0690
      7  C         17.5100  -23.7260   -6.0110 C.2     1  UNL1        0.0390
      8  N         19.0750  -24.4550   -7.6630 N.am    1  UNL1       -0.3200
      9  C         19.8870  -24.3590   -8.7630 C.2     1  UNL1        0.2590
     10  O         20.8910  -25.0690   -8.8270 O.2     1  UNL1       -0.2670
     11  C         19.6660  -23.3320   -9.8030 C.2     1  UNL1        0.0680
     12  C         20.8050  -22.8340  -10.4640 C.2     1  UNL1        0.0490
     13  C         20.6960  -21.8670  -11.4720 C.2     1  UNL1        0.0360
     14  C         19.4290  -21.4110  -11.8300 C.2     1  UNL1        0.0320
     15  C         18.2930  -21.9130  -11.1880 C.2     1  UNL1        0.0400
     16  C         18.4120  -22.8620  -10.1680 C.2     1  UNL1        0.0920
     17  O         17.2390  -23.3510   -9.6670 O.2     1  UNL1       -0.3070
     18  H         19.4850  -25.0350   -6.9400 H       1  UNL1        0.1690
     19  N         21.8910  -21.4300  -12.0760 N.am    1  UNL1       -0.3230
     20  C         23.0830  -22.1220  -12.1760 C.2     1  UNL1        0.2560
     21  O         23.3130  -23.2700  -11.8240 O.2     1  UNL1       -0.2670
     22  H         21.8640  -20.5160  -12.5140 H       1  UNL1        0.1690
     23  C         24.1630  -21.3550  -12.8450 C.2     1  UNL1        0.0380
     24  C         23.9800  -21.0580  -14.2030 C.2     1  UNL1        0.0170
     25  C         24.9330  -20.3090  -14.8890 C.2     1  UNL1        0.0010
     26  C         26.0710  -19.8590  -14.2230 C.2     1  UNL1        0.0010
     27  C         26.2670  -20.1710  -12.8760 C.2     1  UNL1        0.0070
     28  C         25.3270  -20.9390  -12.1700 C.2     1  UNL1       -0.0460
     29  C         25.5960  -21.2820  -10.7320 C.3     1  UNL1        0.0490
@<TRIPOS>BOND
     1    25    26    2
     2    25    24    1
     3    26    27    1
     4    24    23    2
     5    27    28    2
     6    23    20    1
     7    23    28    1
     8    22    19    1
     9    20    19   am
    10    20    21    2
    11    28    29    1
    12    19    13    1
    13    14    13    2
    14    14    15    1
    15    13    12    1
    16    15    16    2
    17    12    11    2
    18    16    11    1
    19    16    17    1
    20    11     9    1
    21    17     5    1
    22    10     9    2
    23     9     8   am
    24     5     4    2
    25     5     6    1
    26     4     3    1
    27     8     6    1
    28     8    18    1
    29     6     7    2
    30     3     2    2
    31     7     2    1
    32     2     1    1
