@<TRIPOS>MOLECULE
43091_out_ligand_01.pdbqt
 36 40 0 0 0
SMALL
GASTEIGER

@<TRIPOS>ATOM
      1  C         21.6980  -21.8140  -11.8290 C.2     1  UNL1        0.0320
      2  C         22.6820  -22.6710  -11.3110 C.2     1  UNL1        0.0180
      3  C         23.8640  -22.8930  -12.0240 C.2     1  UNL1        0.0260
      4  C         24.0740  -22.2360  -13.2410 C.2     1  UNL1        0.0790
      5  C         23.0960  -21.3890  -13.7710 C.2     1  UNL1        0.0260
      6  C         21.9170  -21.1700  -13.0570 C.2     1  UNL1        0.0180
      7  C         20.4240  -21.5370  -11.1030 C.2     1  UNL1        0.2570
      8  N         20.0870  -22.4710  -10.1530 N.am    1  UNL1       -0.3010
      9  H         20.6230  -23.3210  -10.0530 H       1  UNL1        0.1710
     10  O         19.7890  -20.5400  -11.4270 O.2     1  UNL1       -0.2670
     11  C         18.9920  -22.4550   -9.3260 C.2     1  UNL1        0.1730
     12  S         17.3860  -22.4680   -9.8930 S.3     1  UNL1       -0.0610
     13  C         16.8230  -22.4250   -8.2740 C.2     1  UNL1        0.0850
     14  C         17.9020  -22.4180   -7.4120 C.2     1  UNL1        0.0770
     15  N         19.1440  -22.4050   -8.0240 N.2     1  UNL1       -0.2230
     16  C         17.7740  -22.3610   -5.9630 C.2     1  UNL1       -0.0000
     17  C         18.6020  -21.5600   -5.1530 C.2     1  UNL1       -0.0490
     18  C         18.4300  -21.6020   -3.7590 C.2     1  UNL1        0.0080
     19  C         19.6760  -20.6680   -5.7200 C.3     1  UNL1        0.0490
     20  C         17.4360  -22.3930   -3.1790 C.2     1  UNL1        0.0070
     21  C         16.5880  -23.1620   -3.9790 C.2     1  UNL1       -0.0610
     22  C         15.5150  -24.0190   -3.3740 C.3     1  UNL1        0.0480
     23  C         16.7650  -23.1400   -5.3680 C.2     1  UNL1        0.0210
     24  S         25.5700  -22.5490  -14.1640 S.O2    1  UNL1        0.2610
     25  O         26.6550  -22.5830  -13.2050 O.2     1  UNL1       -0.2000
     26  O         25.3090  -23.6750  -15.0360 O.2     1  UNL1       -0.2000
     27  N         25.7460  -21.1650  -15.1200 N.3     1  UNL1       -0.3020
     28  C         26.1150  -21.3510  -16.5390 C.3     1  UNL1        0.1400
     29  C         25.6710  -20.1270  -17.3400 C.3     1  UNL1        0.0600
     30  C         26.2080  -18.8490  -16.7470 C.2     1  UNL1       -0.0490
     31  C         26.3110  -17.6970  -17.5370 C.2     1  UNL1        0.0080
     32  C         26.5430  -18.7920  -15.3800 C.2     1  UNL1       -0.0330
     33  C         26.7690  -16.5020  -16.9840 C.2     1  UNL1        0.0010
     34  C         27.1210  -16.4460  -15.6370 C.2     1  UNL1        0.0010
     35  C         27.0080  -17.5850  -14.8390 C.2     1  UNL1        0.0090
     36  C         26.4270  -20.0130  -14.4880 C.3     1  UNL1        0.1740
@<TRIPOS>BOND
     1    31    33    1
     2    31    30    2
     3    29    30    1
     4    29    28    1
     5    33    34    2
     6    30    32    1
     7    28    27    1
     8    34    35    1
     9    32    35    2
    10    32    36    1
    11    27    36    1
    12    27    24    1
    13    26    24    2
    14    24     4    1
    15    24    25    2
    16     5     4    2
    17     5     6    1
    18     4     3    1
    19     6     1    2
    20     3     2    2
    21     1     2    1
    22     1     7    1
    23    10     7    2
    24     7     8   am
    25     8     9    1
    26     8    11    1
    27    12    11    1
    28    12    13    1
    29    11    15    2
    30    13    14    2
    31    15    14    1
    32    14    16    1
    33    16    23    2
    34    16    17    1
    35    19    17    1
    36    23    21    1
    37    17    18    2
    38    21    22    1
    39    21    20    2
    40    18    20    1
