@<TRIPOS>MOLECULE
43125_out_ligand_01.pdbqt
 29 32 0 0 0
SMALL
GASTEIGER

@<TRIPOS>ATOM
      1  C         19.4190  -22.2840  -10.2630 C.2     1  UNL1        0.0320
      2  C         19.9430  -23.2330   -9.3710 C.2     1  UNL1        0.0180
      3  C         19.1100  -23.8730   -8.4510 C.2     1  UNL1        0.0260
      4  C         17.7500  -23.5590   -8.4260 C.2     1  UNL1        0.0750
      5  C         17.2200  -22.5960   -9.2920 C.2     1  UNL1        0.0260
      6  C         18.0570  -21.9540  -10.2080 C.2     1  UNL1        0.0180
      7  S         16.6630  -24.3520   -7.2540 S.O2    1  UNL1        0.2480
      8  O         15.5600  -24.9340   -7.9950 O.2     1  UNL1       -0.2050
      9  O         17.5110  -25.1600   -6.4040 O.2     1  UNL1       -0.2050
     10  N         16.0690  -23.0070   -6.3810 N.pl3   1  UNL1       -0.1710
     11  C         14.8440  -23.2650   -5.5440 C.3     1  UNL1        0.1180
     12  C         15.2520  -23.0800   -4.0740 C.3     1  UNL1        0.0560
     13  C         16.5550  -22.3650   -4.1920 C.2     1  UNL1       -0.0350
     14  C         17.3040  -21.7880   -3.1790 C.2     1  UNL1        0.0090
     15  C         17.0200  -22.3890   -5.5030 C.2     1  UNL1        0.0310
     16  C         18.5330  -21.2120   -3.5100 C.2     1  UNL1        0.0010
     17  C         18.9930  -21.2240   -4.8370 C.2     1  UNL1        0.0020
     18  C         18.2310  -21.8140   -5.8480 C.2     1  UNL1        0.0250
     19  C         20.3520  -21.6250  -11.2220 C.2     1  UNL1        0.2560
     20  O         19.9890  -20.5840  -11.7580 O.2     1  UNL1       -0.2670
     21  N         21.5760  -22.2530  -11.3760 N.am    1  UNL1       -0.3230
     22  H         21.7750  -23.0300  -10.7620 H       1  UNL1        0.1690
     23  C         22.6270  -21.8760  -12.2390 C.2     1  UNL1        0.0350
     24  C         22.4360  -21.3560  -13.5230 C.2     1  UNL1        0.0320
     25  C         23.5330  -21.0120  -14.3190 C.2     1  UNL1        0.0440
     26  C         24.8200  -21.1910  -13.8310 C.2     1  UNL1        0.1160
     27  F         25.8700  -20.8610  -14.5950 F       1  UNL1       -0.2060
     28  C         25.0330  -21.7090  -12.5610 C.2     1  UNL1        0.0440
     29  C         23.9360  -22.0530  -11.7660 C.2     1  UNL1        0.0320
@<TRIPOS>BOND
     1    27    26    1
     2    25    26    2
     3    25    24    1
     4    26    28    1
     5    24    23    2
     6    28    29    2
     7    23    29    1
     8    23    21    1
     9    20    19    2
    10    21    19   am
    11    21    22    1
    12    19     1    1
    13     1     6    2
    14     1     2    1
    15     6     5    1
    16     2     3    2
    17     5     4    2
    18     3     4    1
    19     4     7    1
    20     8     7    2
    21     7     9    2
    22     7    10    1
    23    10    11    1
    24    10    15    1
    25    18    15    1
    26    18    17    2
    27    11    12    1
    28    15    13    2
    29    17    16    1
    30    13    12    1
    31    13    14    1
    32    16    14    2
