@<TRIPOS>MOLECULE
43137_out_ligand_01.pdbqt
 29 32 0 0 0
SMALL
GASTEIGER

@<TRIPOS>ATOM
      1  S         21.2870  -22.9620   -8.8900 S.O2    1  UNL1        0.2460
      2  O         21.9780  -22.1350   -7.9210 O.2     1  UNL1       -0.2060
      3  O         21.4170  -24.4020   -8.8990 O.2     1  UNL1       -0.2060
      4  N         19.6410  -22.5100   -8.8110 N.pl3   1  UNL1       -0.1810
      5  H         19.5910  -21.5080   -9.0020 H       1  UNL1        0.1460
      6  C         19.0200  -22.8140   -7.5530 C.2     1  UNL1        0.0220
      7  C         19.0230  -21.8630   -6.5360 C.2     1  UNL1        0.0250
      8  C         18.3860  -22.1360   -5.3240 C.2     1  UNL1        0.0090
      9  C         17.7250  -23.3550   -5.1290 C.2     1  UNL1       -0.0580
     10  C         17.7160  -24.2990   -6.1650 C.2     1  UNL1        0.0090
     11  C         18.3530  -24.0270   -7.3770 C.2     1  UNL1        0.0250
     12  C         17.0470  -23.6570   -3.8140 C.3     1  UNL1        0.0380
     13  C         15.5220  -23.6520   -3.9530 C.3     1  UNL1        0.0040
     14  C         14.9490  -22.2680   -4.2670 C.3     1  UNL1       -0.0040
     15  C         14.3490  -22.1620   -5.6600 C.3     1  UNL1        0.0050
     16  C         21.7240  -22.3740  -10.5110 C.2     1  UNL1        0.0860
     17  C         20.7010  -21.8210  -11.3310 C.2     1  UNL1        0.0280
     18  C         20.9830  -21.3460  -12.6220 C.2     1  UNL1        0.0320
     19  C         22.2840  -21.4370  -13.0560 C.2     1  UNL1        0.0470
     20  C         23.2620  -21.9670  -12.2550 C.2     1  UNL1        0.0180
     21  N         22.8500  -21.0560  -14.2670 N.am    1  UNL1       -0.3220
     22  C         24.4610  -21.9390  -12.9200 C.2     1  UNL1        0.0450
     23  C         23.0730  -22.4570  -10.9660 C.2     1  UNL1        0.0000
     24  C         25.6130  -22.4130  -12.3310 C.2     1  UNL1        0.0180
     25  C         24.2070  -21.3420  -14.2490 C.2     1  UNL1        0.2570
     26  C         25.5040  -22.9220  -11.0280 C.2     1  UNL1        0.0020
     27  C         24.2610  -22.9460  -10.3520 C.2     1  UNL1        0.0140
     28  O         25.0260  -21.1520  -15.1250 O.2     1  UNL1       -0.2670
     29  H         22.3770  -20.6330  -15.0500 H       1  UNL1        0.1690
@<TRIPOS>BOND
     1    28    25    2
     2    29    21    1
     3    21    25   am
     4    21    19    1
     5    25    22    1
     6    19    18    2
     7    19    20    1
     8    22    24    1
     9    22    20    2
    10    18    17    1
    11    24    26    2
    12    20    23    1
    13    17    16    2
    14    26    27    1
    15    23    16    1
    16    23    27    2
    17    16     1    1
    18     5     4    1
    19     3     1    2
    20     1     4    1
    21     1     2    2
    22     4     6    1
    23     6    11    2
    24     6     7    1
    25    11    10    1
    26     7     8    2
    27    10     9    2
    28    15    14    1
    29     8     9    1
    30     9    12    1
    31    14    13    1
    32    13    12    1
