@<TRIPOS>MOLECULE
43134_out_ligand_01.pdbqt
 31 34 0 0 0
SMALL
GASTEIGER

@<TRIPOS>ATOM
      1  C         20.6040  -22.4080   -9.6750 C.2     1  UNL1        0.0320
      2  C         20.9300  -22.1280  -11.0110 C.2     1  UNL1        0.0180
      3  C         22.2700  -22.0370  -11.3980 C.2     1  UNL1        0.0260
      4  C         23.2800  -22.2190  -10.4460 C.2     1  UNL1        0.0800
      5  C         22.9660  -22.4650   -9.1070 C.2     1  UNL1        0.0260
      6  C         21.6260  -22.5590   -8.7250 C.2     1  UNL1        0.0180
      7  S         24.9830  -22.0780  -10.9600 S.O2    1  UNL1        0.2650
      8  O         25.3760  -20.7230  -10.6320 O.2     1  UNL1       -0.2000
      9  O         25.7010  -23.2160  -10.4230 O.2     1  UNL1       -0.2000
     10  N         24.8780  -22.2720  -12.6600 N.pl3   1  UNL1       -0.2710
     11  C         24.9470  -23.6920  -13.1280 C.3     1  UNL1        0.1420
     12  C         25.2990  -23.8490  -14.6020 C.3     1  UNL1        0.0260
     13  C         24.7060  -22.7240  -15.4300 C.3     1  UNL1        0.0420
     14  C         25.2880  -21.4350  -14.9220 C.2     1  UNL1       -0.0310
     15  C         25.6890  -20.4400  -15.8250 C.2     1  UNL1        0.0090
     16  C         25.4440  -21.2530  -13.5330 C.2     1  UNL1        0.0510
     17  C         26.2660  -19.2640  -15.3590 C.2     1  UNL1        0.0010
     18  C         26.4410  -19.0800  -13.9930 C.2     1  UNL1        0.0020
     19  C         26.0260  -20.0620  -13.0860 C.2     1  UNL1        0.0310
     20  C         19.1870  -22.5120   -9.2160 C.2     1  UNL1        0.2560
     21  N         19.0270  -23.0030   -7.9320 N.am    1  UNL1       -0.3220
     22  H         19.8710  -23.1340   -7.3960 H       1  UNL1        0.1690
     23  O         18.3100  -22.1250   -9.9770 O.2     1  UNL1       -0.2670
     24  C         17.8150  -23.2620   -7.2420 C.2     1  UNL1        0.0410
     25  C         16.8600  -24.1540   -7.7430 C.2     1  UNL1        0.0300
     26  C         15.6770  -24.4030   -7.0480 C.2     1  UNL1        0.0030
     27  C         15.4340  -23.7650   -5.8390 C.2     1  UNL1        0.0070
     28  C         16.3690  -22.8680   -5.3010 C.2     1  UNL1       -0.0540
     29  C         16.0430  -22.2130   -3.9840 C.3     1  UNL1        0.0490
     30  C         17.5730  -22.6090   -6.0030 C.2     1  UNL1       -0.0290
     31  C         18.5930  -21.6470   -5.4390 C.3     1  UNL1        0.0510
@<TRIPOS>BOND
     1    15    17    1
     2    15    14    2
     3    13    14    1
     4    13    12    1
     5    17    18    2
     6    14    16    1
     7    12    11    1
     8    18    19    1
     9    16    19    2
    10    16    10    1
    11    11    10    1
    12    10     7    1
    13     3     2    1
    14     3     4    2
    15     2     1    2
    16     7     8    2
    17     7     4    1
    18     7     9    2
    19     4     5    1
    20    23    20    2
    21     1    20    1
    22     1     6    1
    23    20    21   am
    24     5     6    2
    25    21    22    1
    26    21    24    1
    27    25    24    2
    28    25    26    1
    29    24    30    1
    30    26    27    2
    31    30    31    1
    32    30    28    2
    33    27    28    1
    34    28    29    1
