@<TRIPOS>MOLECULE
43131_out_ligand_01.pdbqt
 36 39 0 0 0
SMALL
GASTEIGER

@<TRIPOS>ATOM
      1  N         20.9860  -22.6360   -9.4320 N.am    1  UNL1       -0.3160
      2  C         21.1520  -22.0600   -8.1880 C.2     1  UNL1        0.2560
      3  O         22.1550  -21.4710   -7.7950 O.2     1  UNL1       -0.2670
      4  H         20.3470  -23.4130   -9.5320 H       1  UNL1        0.1690
      5  C         20.0330  -22.2990   -7.2310 C.2     1  UNL1        0.0320
      6  C         19.3800  -23.5410   -7.2590 C.2     1  UNL1        0.0180
      7  C         18.3280  -23.8060   -6.3790 C.2     1  UNL1        0.0260
      8  C         17.9330  -22.8220   -5.4700 C.2     1  UNL1        0.0750
      9  C         18.5940  -21.5900   -5.4120 C.2     1  UNL1        0.0260
     10  C         19.6460  -21.3290   -6.2930 C.2     1  UNL1        0.0180
     11  S         16.6020  -23.1370   -4.3260 S.O2    1  UNL1        0.2470
     12  O         16.6110  -22.0430   -3.3770 O.2     1  UNL1       -0.2050
     13  O         16.7110  -24.5150   -3.8890 O.2     1  UNL1       -0.2050
     14  N         15.2240  -23.0050   -5.3430 N.pl3   1  UNL1       -0.1760
     15  C         14.3590  -21.8300   -5.0770 C.3     1  UNL1        0.1360
     16  C         15.5070  -23.2070   -6.7430 C.2     1  UNL1        0.0250
     17  C         15.4030  -24.5060   -7.2440 C.2     1  UNL1        0.0240
     18  C         15.5960  -24.7500   -8.6040 C.2     1  UNL1        0.0020
     19  C         15.8720  -23.6920   -9.4690 C.2     1  UNL1        0.0000
     20  C         15.9500  -22.3900   -8.9770 C.2     1  UNL1        0.0020
     21  C         15.7570  -22.1430   -7.6150 C.2     1  UNL1        0.0240
     22  C         21.8720  -22.4510  -10.4700 C.ar    1  UNL1        0.0930
     23  S         21.2330  -21.4600  -11.6980 S.2     1  UNL1       -0.0750
     24  C         22.6090  -21.6830  -12.6680 C.ar    1  UNL1       -0.0080
     25  C         22.7230  -21.0790  -14.0320 C.3     1  UNL1        0.0470
     26  C         23.5730  -22.4580  -12.0520 C.ar    1  UNL1       -0.0270
     27  C         24.1890  -21.0520  -14.4870 C.3     1  UNL1        0.0090
     28  C         24.8970  -22.3950  -14.2080 C.3     1  UNL1       -0.0140
     29  C         26.3190  -22.3840  -14.7640 C.3     1  UNL1        0.0100
     30  C         24.9100  -22.7120  -12.6950 C.3     1  UNL1        0.0450
     31  C         23.1620  -22.8750  -10.7290 C.ar    1  UNL1        0.0670
     32  C         24.0070  -23.5570   -9.7620 C.2     1  UNL1        0.2320
     33  N         25.3500  -23.4030   -9.9680 N.am    1  UNL1       -0.2680
     34  H         25.9020  -24.0830   -9.4610 H       1  UNL1        0.1270
     35  H         25.6380  -23.2420  -10.9240 H       1  UNL1        0.1270
     36  O         23.5700  -24.2160   -8.8260 O.2     1  UNL1       -0.2740
@<TRIPOS>BOND
     1    29    28    1
     2    27    28    1
     3    27    25    1
     4    28    30    1
     5    25    24    1
     6    30    26    1
     7    24    26   ar
     8    24    23   ar
     9    26    31   ar
    10    23    22   ar
    11    35    33    1
    12    31    22   ar
    13    31    32    1
    14    22     1    1
    15    33    32   am
    16    33    34    1
    17    32    36    2
    18     4     1    1
    19    19    20    2
    20    19    18    1
    21     1     2   am
    22    20    21    1
    23    18    17    2
    24     2     3    2
    25     2     5    1
    26    21    16    2
    27     6     5    2
    28     6     7    1
    29    17    16    1
    30     5    10    1
    31    16    14    1
    32     7     8    2
    33    10     9    2
    34     8     9    1
    35     8    11    1
    36    14    15    1
    37    14    11    1
    38    11    13    2
    39    11    12    2
