@<TRIPOS>MOLECULE
43151_out_ligand_01.pdbqt
 35 38 0 0 0
SMALL
GASTEIGER

@<TRIPOS>ATOM
      1  C         17.7870  -23.5240   -8.3400 C.2     1  UNL1        0.0750
      2  C         17.2710  -22.6870   -9.3350 C.2     1  UNL1        0.0260
      3  C         18.1400  -22.0750  -10.2420 C.2     1  UNL1        0.0180
      4  C         19.5230  -22.2910  -10.1450 C.2     1  UNL1        0.0320
      5  C         20.0250  -23.1370   -9.1430 C.2     1  UNL1        0.0180
      6  C         19.1610  -23.7490   -8.2330 C.2     1  UNL1        0.0260
      7  C         20.4940  -21.6720  -11.0990 C.2     1  UNL1        0.2560
      8  O         20.1590  -20.6290  -11.6460 O.2     1  UNL1       -0.2670
      9  N         21.6660  -22.3810  -11.2670 N.am    1  UNL1       -0.3160
     10  H         21.7520  -23.2930  -10.8200 H       1  UNL1        0.1690
     11  C         22.7520  -22.0500  -12.0680 C.ar    1  UNL1        0.0930
     12  S         22.5390  -21.3380  -13.6090 S.2     1  UNL1       -0.0750
     13  C         24.1850  -21.3210  -13.8600 C.ar    1  UNL1       -0.0080
     14  C         24.9190  -21.8190  -12.8180 C.ar    1  UNL1       -0.0260
     15  C         24.9870  -20.8670  -15.0190 C.3     1  UNL1        0.0470
     16  C         24.0970  -22.2380  -11.7270 C.ar    1  UNL1        0.0730
     17  C         26.3700  -21.7760  -13.1460 C.3     1  UNL1        0.0410
     18  C         26.3670  -21.4980  -14.6810 C.3     1  UNL1        0.0100
     19  C         24.4900  -22.7990  -10.4340 C.2     1  UNL1        0.2520
     20  N         25.6620  -23.4920  -10.3860 N.am    1  UNL1       -0.3660
     21  H         26.3410  -23.4530  -11.1290 H       1  UNL1        0.1590
     22  H         25.9800  -23.7770   -9.4690 H       1  UNL1        0.1590
     23  O         23.8310  -22.6370   -9.4080 O.2     1  UNL1       -0.2680
     24  S         16.6570  -24.2990   -7.2010 S.O2    1  UNL1        0.2480
     25  O         15.5690  -24.8710   -7.9700 O.2     1  UNL1       -0.2050
     26  O         17.4670  -25.1110   -6.3190 O.2     1  UNL1       -0.2050
     27  N         16.0390  -22.9440   -6.3380 N.pl3   1  UNL1       -0.1720
     28  C         14.6530  -23.1110   -5.8090 C.3     1  UNL1        0.1090
     29  C         13.9560  -21.7610   -5.7320 C.3     1  UNL1        0.0220
     30  C         16.9860  -22.4050   -5.3900 C.2     1  UNL1        0.0250
     31  C         16.9530  -22.7380   -4.0320 C.2     1  UNL1        0.0240
     32  C         17.8750  -22.1700   -3.1530 C.2     1  UNL1        0.0020
     33  C         18.8270  -21.2650   -3.6270 C.2     1  UNL1        0.0000
     34  C         18.8570  -20.9280   -4.9800 C.2     1  UNL1        0.0020
     35  C         17.9360  -21.4960   -5.8610 C.2     1  UNL1        0.0240
@<TRIPOS>BOND
     1    15    18    1
     2    15    13    1
     3    18    17    1
     4    13    12   ar
     5    13    14   ar
     6    12    11   ar
     7    17    14    1
     8    14    16   ar
     9    11    16   ar
    10    11     9    1
    11    16    19    1
    12     8     7    2
    13     9     7   am
    14     9    10    1
    15    21    20    1
    16     7     4    1
    17    19    20   am
    18    19    23    2
    19    20    22    1
    20     3     4    2
    21     3     2    1
    22     4     5    1
    23     2     1    2
    24     5     6    2
    25     1     6    1
    26     1    24    1
    27    25    24    2
    28    24    27    1
    29    24    26    2
    30    27    28    1
    31    27    30    1
    32    35    30    2
    33    35    34    1
    34    28    29    1
    35    30    31    1
    36    34    33    2
    37    31    32    2
    38    33    32    1
