@<TRIPOS>MOLECULE
43166_out_ligand_01.pdbqt
 37 41 0 0 0
SMALL
GASTEIGER

@<TRIPOS>ATOM
      1  C         23.5020  -22.9200  -10.8170 C.2     1  UNL1        0.2560
      2  O         24.5030  -22.9670  -10.1130 O.2     1  UNL1       -0.2670
      3  N         23.4570  -22.7770  -12.1910 N.am    1  UNL1       -0.3230
      4  H         22.5610  -22.9210  -12.6380 H       1  UNL1        0.1690
      5  C         22.1740  -23.0810  -10.1560 C.2     1  UNL1        0.0320
      6  C         21.1180  -22.2580  -10.5740 C.2     1  UNL1        0.0180
      7  C         19.8570  -22.3780   -9.9860 C.2     1  UNL1        0.0260
      8  C         19.6550  -23.3280   -8.9810 C.2     1  UNL1        0.0790
      9  C         20.6930  -24.1710   -8.5700 C.2     1  UNL1        0.0260
     10  C         21.9530  -24.0490   -9.1640 C.2     1  UNL1        0.0180
     11  S         18.0420  -23.4690   -8.2410 S.O2    1  UNL1        0.2600
     12  O         17.9980  -24.7160   -7.5070 O.2     1  UNL1       -0.2000
     13  O         17.0870  -23.1730   -9.2860 O.2     1  UNL1       -0.2000
     14  N         18.0620  -22.2020   -7.0980 N.3     1  UNL1       -0.3060
     15  C         19.4120  -21.7800   -6.6580 C.3     1  UNL1        0.1630
     16  C         17.0710  -22.2110   -5.9760 C.3     1  UNL1        0.0950
     17  C         15.6450  -22.3740   -6.5050 C.3     1  UNL1        0.0260
     18  C         14.6100  -22.1440   -5.3980 C.3     1  UNL1        0.0020
     19  C         15.1050  -22.5390   -4.0050 C.3     1  UNL1        0.0000
     20  C         16.1590  -23.6370   -4.0600 C.3     1  UNL1        0.0020
     21  C         17.3990  -23.2070   -4.8530 C.3     1  UNL1        0.0260
     22  C         24.5410  -22.5440  -13.0660 C.2     1  UNL1        0.0350
     23  C         25.3610  -23.6380  -13.3610 C.2     1  UNL1        0.0290
     24  C         26.4460  -23.5000  -14.2250 C.2     1  UNL1        0.0030
     25  C         26.7220  -22.2630  -14.8100 C.2     1  UNL1        0.0150
     26  C         25.9160  -21.1490  -14.5340 C.2     1  UNL1        0.0120
     27  C         24.8240  -21.3100  -13.6580 C.2     1  UNL1        0.0440
     28  C         26.1650  -19.8330  -15.1380 C.ar    1  UNL1        0.1390
     29  N         26.0270  -19.5280  -16.4170 N.ar    1  UNL1       -0.2280
     30  C         26.3600  -18.2040  -16.5420 C.ar    1  UNL1        0.0860
     31  C         26.3840  -17.3860  -17.6800 C.2     1  UNL1        0.0340
     32  C         26.7110  -17.6670  -15.3110 C.ar    1  UNL1        0.0620
     33  C         26.7680  -16.0460  -17.5340 C.2     1  UNL1        0.0020
     34  C         27.1210  -15.5350  -16.2830 C.2     1  UNL1        0.0020
     35  C         27.0990  -16.3380  -15.1360 C.2     1  UNL1        0.0320
     36  N         26.5730  -18.7170  -14.4400 N.ar    1  UNL1       -0.3380
     37  H         26.7340  -18.6700  -13.4470 H       1  UNL1        0.1670
@<TRIPOS>BOND
     1    31    33    1
     2    31    30    2
     3    33    34    2
     4    30    29   ar
     5    30    32   ar
     6    29    28   ar
     7    34    35    1
     8    32    35    2
     9    32    36   ar
    10    28    26    1
    11    28    36   ar
    12    25    26    2
    13    25    24    1
    14    26    27    1
    15    36    37    1
    16    24    23    2
    17    27    22    2
    18    23    22    1
    19    22     3    1
    20     4     3    1
    21     3     1   am
    22     1     5    1
    23     1     2    2
    24     6     5    2
    25     6     7    1
    26     5    10    1
    27     7     8    2
    28    13    11    2
    29    10     9    2
    30     8     9    1
    31     8    11    1
    32    11    12    2
    33    11    14    1
    34    14    15    1
    35    14    16    1
    36    17    16    1
    37    17    18    1
    38    16    21    1
    39    18    19    1
    40    21    20    1
    41    20    19    1
