@<TRIPOS>MOLECULE
43175_out_ligand_01.pdbqt
 33 36 0 0 0
SMALL
GASTEIGER

@<TRIPOS>ATOM
      1  C         26.8380  -23.6710  -15.5290 C.3     1  UNL1        0.0480
      2  C         26.1320  -23.4030  -14.2330 C.2     1  UNL1       -0.0600
      3  C         26.7060  -23.7800  -13.0160 C.2     1  UNL1        0.0090
      4  C         26.0590  -23.4850  -11.8160 C.2     1  UNL1        0.0400
      5  C         24.8240  -22.8280  -11.8200 C.2     1  UNL1        0.1020
      6  C         24.2360  -22.4450  -13.0250 C.2     1  UNL1        0.0690
      7  C         24.9090  -22.7150  -14.2250 C.2     1  UNL1        0.0390
      8  N         23.0280  -21.7450  -13.1150 N.am    1  UNL1       -0.3200
      9  C         21.9890  -21.6700  -12.2250 C.2     1  UNL1        0.2590
     10  O         21.0170  -20.9650  -12.5010 O.2     1  UNL1       -0.2670
     11  C         21.9480  -22.5070  -11.0090 C.2     1  UNL1        0.0680
     12  C         20.6840  -22.9190  -10.5550 C.2     1  UNL1        0.0440
     13  C         20.5650  -23.6830   -9.3970 C.2     1  UNL1        0.0240
     14  C         21.7000  -24.0620   -8.6850 C.2     1  UNL1        0.0270
     15  C         22.9570  -23.6470   -9.1270 C.2     1  UNL1        0.0400
     16  C         23.0800  -22.8800  -10.2920 C.2     1  UNL1        0.0920
     17  O         24.3430  -22.4540  -10.5930 O.2     1  UNL1       -0.3070
     18  H         22.8000  -21.3070  -14.0000 H       1  UNL1        0.1690
     19  N         19.2650  -24.1250   -8.9870 N.pl3   1  UNL1       -0.1810
     20  H         18.9200  -24.8610   -9.6060 H       1  UNL1        0.1460
     21  S         18.0850  -22.8850   -8.9900 S.O2    1  UNL1        0.2460
     22  O         18.7140  -21.6090   -9.2600 O.2     1  UNL1       -0.2050
     23  O         17.0150  -23.3480   -9.8490 O.2     1  UNL1       -0.2050
     24  C         17.5560  -22.9330   -7.2540 C.2     1  UNL1        0.0870
     25  C         16.3560  -23.6120   -6.8870 C.2     1  UNL1       -0.0330
     26  C         15.5660  -24.4540   -7.8590 C.3     1  UNL1        0.0500
     27  C         15.8820  -23.4830   -5.5600 C.2     1  UNL1       -0.0540
     28  C         14.6020  -24.1300   -5.0880 C.3     1  UNL1        0.0490
     29  C         16.6170  -22.7420   -4.6260 C.2     1  UNL1        0.0140
     30  C         17.8220  -22.1150   -4.9640 C.2     1  UNL1       -0.0540
     31  C         18.5440  -21.3480   -3.8850 C.3     1  UNL1        0.0490
     32  C         18.3290  -22.2360   -6.2780 C.2     1  UNL1       -0.0330
     33  C         19.6650  -21.6060   -6.5980 C.3     1  UNL1        0.0500
@<TRIPOS>BOND
     1     1     2    1
     2     2     7    2
     3     2     3    1
     4     7     6    1
     5    18     8    1
     6     8     6    1
     7     8     9   am
     8     6     5    2
     9     3     4    2
    10    10     9    2
    11     9    11    1
    12     5     4    1
    13     5    17    1
    14    11    12    2
    15    11    16    1
    16    17    16    1
    17    12    13    1
    18    16    15    2
    19    23    21    2
    20    20    19    1
    21    13    19    1
    22    13    14    2
    23    22    21    2
    24    15    14    1
    25    21    19    1
    26    21    24    1
    27    26    25    1
    28    24    25    2
    29    24    32    1
    30    25    27    1
    31    33    32    1
    32    32    30    2
    33    27    28    1
    34    27    29    2
    35    30    29    1
    36    30    31    1
