@<TRIPOS>MOLECULE
43171_out_ligand_01.pdbqt
 29 32 0 0 0
SMALL
GASTEIGER

@<TRIPOS>ATOM
      1  C         20.7470  -22.2840  -11.1310 C.2     1  UNL1        0.0320
      2  C         19.6500  -21.4510  -11.3950 C.2     1  UNL1        0.0180
      3  C         18.4600  -21.6150  -10.6800 C.2     1  UNL1        0.0260
      4  C         18.3710  -22.6170   -9.7080 C.2     1  UNL1        0.0800
      5  C         19.4460  -23.4730   -9.4580 C.2     1  UNL1        0.0260
      6  C         20.6340  -23.3030  -10.1720 C.2     1  UNL1        0.0180
      7  S         16.8350  -22.8140   -8.8170 S.O2    1  UNL1        0.2650
      8  O         16.3750  -21.4690   -8.5450 O.2     1  UNL1       -0.2000
      9  O         16.0170  -23.7500   -9.5590 O.2     1  UNL1       -0.2000
     10  N         17.3710  -23.5850   -7.3650 N.pl3   1  UNL1       -0.2710
     11  C         16.5090  -24.7030   -6.8830 C.3     1  UNL1        0.1420
     12  C         15.4200  -24.1960   -5.9510 C.3     1  UNL1        0.0260
     13  C         16.0400  -23.5300   -4.7320 C.3     1  UNL1        0.0420
     14  C         17.1830  -22.6170   -5.0830 C.2     1  UNL1       -0.0310
     15  C         17.6560  -21.7290   -4.1010 C.2     1  UNL1        0.0090
     16  C         17.8360  -22.6840   -6.3260 C.2     1  UNL1        0.0510
     17  C         18.7620  -20.9190   -4.3490 C.2     1  UNL1        0.0010
     18  C         19.4190  -21.0000   -5.5730 C.2     1  UNL1        0.0020
     19  C         18.9620  -21.8840   -6.5510 C.2     1  UNL1        0.0310
     20  C         22.0360  -22.1480  -11.8700 C.2     1  UNL1        0.2560
     21  O         22.0480  -21.4640  -12.8860 O.2     1  UNL1       -0.2670
     22  N         23.0930  -22.8620  -11.3360 N.am    1  UNL1       -0.3230
     23  H         22.8900  -23.4860  -10.5690 H       1  UNL1        0.1690
     24  C         24.4270  -22.8890  -11.7970 C.2     1  UNL1        0.0350
     25  C         25.3650  -22.1280  -11.0880 C.2     1  UNL1        0.0290
     26  C         26.7060  -22.0960  -11.4830 C.2     1  UNL1        0.0020
     27  C         27.1210  -22.8260  -12.5930 C.2     1  UNL1        0.0000
     28  C         26.1950  -23.5840  -13.3070 C.2     1  UNL1        0.0020
     29  C         24.8540  -23.6140  -12.9110 C.2     1  UNL1        0.0290
@<TRIPOS>BOND
     1    28    29    1
     2    28    27    2
     3    29    24    2
     4    21    20    2
     5    27    26    1
     6    20    22   am
     7    20     1    1
     8    24    22    1
     9    24    25    1
    10    26    25    2
    11     2     1    2
    12     2     3    1
    13    22    23    1
    14     1     6    1
    15     3     4    2
    16     6     5    2
    17     4     5    1
    18     4     7    1
    19     9     7    2
    20     7     8    2
    21     7    10    1
    22    10    11    1
    23    10    16    1
    24    11    12    1
    25    19    16    1
    26    19    18    2
    27    16    14    2
    28    12    13    1
    29    18    17    1
    30    14    13    1
    31    14    15    1
    32    17    15    2
