@<TRIPOS>MOLECULE
43176_out_ligand_01.pdbqt
 38 42 0 0 0
SMALL
GASTEIGER

@<TRIPOS>ATOM
      1  C         19.3270  -21.9610  -10.7010 C.2     1  UNL1        0.0320
      2  C         19.6590  -23.0030   -9.8200 C.2     1  UNL1        0.0180
      3  C         18.7320  -23.4610   -8.8830 C.2     1  UNL1        0.0260
      4  C         17.4720  -22.8590   -8.8180 C.2     1  UNL1        0.0800
      5  C         17.1290  -21.8150   -9.6840 C.2     1  UNL1        0.0260
      6  C         18.0600  -21.3610  -10.6220 C.2     1  UNL1        0.0180
      7  C         20.3590  -21.5080  -11.6810 C.2     1  UNL1        0.2560
      8  N         21.6110  -22.0600  -11.4920 N.am    1  UNL1       -0.3160
      9  H         21.7620  -22.6510  -10.6770 H       1  UNL1        0.1690
     10  O         20.0210  -20.6860  -12.5220 O.2     1  UNL1       -0.2670
     11  C         22.7440  -21.8790  -12.2730 C.ar    1  UNL1        0.0930
     12  S         22.6340  -21.5600  -13.9350 S.2     1  UNL1       -0.0730
     13  C         24.3170  -21.5500  -14.1160 C.ar    1  UNL1        0.0200
     14  C         24.9820  -21.7780  -12.9240 C.ar    1  UNL1       -0.0230
     15  C         24.9660  -21.3750  -15.4610 C.3     1  UNL1        0.3180
     16  C         26.4840  -21.8400  -12.9200 C.3     1  UNL1        0.0710
     17  C         24.0590  -21.9440  -11.8200 C.ar    1  UNL1        0.0730
     18  C         27.0520  -21.9690  -14.3540 C.3     1  UNL1        0.2770
     19  N         26.4170  -21.0930  -15.3600 N.3     1  UNL1        0.0890
     20  C         26.6710  -19.6770  -15.1060 C.3     1  UNL1        0.3100
     21  C         24.3550  -22.1850  -10.4060 C.2     1  UNL1        0.2520
     22  N         25.1280  -23.2700  -10.1100 N.am    1  UNL1       -0.3660
     23  H         25.7340  -23.6630  -10.8140 H       1  UNL1        0.1590
     24  H         25.4550  -23.3170   -9.1540 H       1  UNL1        0.1590
     25  O         23.9940  -21.4270   -9.5080 O.2     1  UNL1       -0.2680
     26  S         16.2670  -23.4220   -7.6290 S.O2    1  UNL1        0.2650
     27  O         15.4180  -22.2760   -7.3740 O.2     1  UNL1       -0.2000
     28  O         15.7110  -24.6640   -8.1230 O.2     1  UNL1       -0.2000
     29  N         17.2550  -23.7700   -6.2540 N.pl3   1  UNL1       -0.2710
     30  C         16.6620  -24.7170   -5.2660 C.3     1  UNL1        0.1420
     31  C         15.8430  -23.9780   -4.2200 C.3     1  UNL1        0.0260
     32  C         16.7230  -23.0030   -3.4560 C.3     1  UNL1        0.0420
     33  C         17.6430  -22.2170   -4.3520 C.2     1  UNL1       -0.0310
     34  C         18.3000  -21.0940   -3.8200 C.2     1  UNL1        0.0090
     35  C         17.9210  -22.6200   -5.6700 C.2     1  UNL1        0.0510
     36  C         19.2190  -20.3790   -4.5850 C.2     1  UNL1        0.0010
     37  C         19.5070  -20.7900   -5.8820 C.2     1  UNL1        0.0020
     38  C         18.8660  -21.9090   -6.4170 C.2     1  UNL1        0.0310
@<TRIPOS>BOND
     1    15    19    1
     2    15    13    1
     3    19    20    1
     4    19    18    1
     5    18    16    1
     6    13    12   ar
     7    13    14   ar
     8    12    11   ar
     9    14    16    1
    10    14    17   ar
    11    10     7    2
    12    11    17   ar
    13    11     8    1
    14    17    21    1
    15     7     8   am
    16     7     1    1
    17     8     9    1
    18    23    22    1
    19     1     6    2
    20     1     2    1
    21     6     5    1
    22    21    22   am
    23    21    25    2
    24    22    24    1
    25     2     3    2
    26     5     4    2
    27     3     4    1
    28     4    26    1
    29    28    26    2
    30    26    27    2
    31    26    29    1
    32    38    37    2
    33    38    35    1
    34    29    35    1
    35    29    30    1
    36    37    36    1
    37    35    33    2
    38    30    31    1
    39    36    34    2
    40    33    34    1
    41    33    32    1
    42    31    32    1
