@<TRIPOS>MOLECULE
43195_out_ligand_01.pdbqt
 30 33 0 0 0
SMALL
GASTEIGER

@<TRIPOS>ATOM
      1  C         14.8530  -22.2780   -5.9010 C.3     1  UNL1        0.0480
      2  C         16.0200  -22.8320   -6.6650 C.2     1  UNL1       -0.0600
      3  C         16.8300  -23.8220   -6.1030 C.2     1  UNL1        0.0090
      4  C         17.9220  -24.3190   -6.8130 C.2     1  UNL1        0.0400
      5  C         18.2410  -23.8030   -8.0720 C.2     1  UNL1        0.1020
      6  C         17.4630  -22.7930   -8.6360 C.2     1  UNL1        0.0690
      7  C         16.3440  -22.3240   -7.9320 C.2     1  UNL1        0.0390
      8  N         17.6960  -22.2430   -9.9020 N.am    1  UNL1       -0.3200
      9  C         18.8510  -22.1960  -10.6390 C.2     1  UNL1        0.2590
     10  O         18.8280  -21.6750  -11.7550 O.2     1  UNL1       -0.2670
     11  C         20.1460  -22.6310  -10.0770 C.2     1  UNL1        0.0680
     12  C         21.2950  -21.9520  -10.5190 C.2     1  UNL1        0.0440
     13  C         22.5550  -22.3280  -10.0560 C.2     1  UNL1        0.0240
     14  C         22.6830  -23.3660   -9.1370 C.2     1  UNL1        0.0270
     15  C         21.5470  -24.0490   -8.7040 C.2     1  UNL1        0.0400
     16  C         20.2790  -23.6740   -9.1660 C.2     1  UNL1        0.0920
     17  O         19.2380  -24.4540   -8.7500 O.2     1  UNL1       -0.3070
     18  H         16.9540  -21.6960  -10.3220 H       1  UNL1        0.1690
     19  N         23.7220  -21.6060  -10.4680 N.pl3   1  UNL1       -0.1810
     20  H         24.2880  -21.3390   -9.6580 H       1  UNL1        0.1460
     21  S         24.7560  -22.4790  -11.5080 S.O2    1  UNL1        0.2480
     22  O         25.8500  -22.9250  -10.6660 O.2     1  UNL1       -0.2050
     23  O         24.0140  -23.4040  -12.3330 O.2     1  UNL1       -0.2050
     24  C         25.3730  -21.2030  -12.5530 C.2     1  UNL1        0.1130
     25  C         25.0590  -21.1850  -13.9160 C.2     1  UNL1        0.0280
     26  C         25.5530  -20.1580  -14.7220 C.2     1  UNL1        0.0020
     27  C         26.3520  -19.1560  -14.1660 C.2     1  UNL1        0.0030
     28  C         26.6560  -19.1790  -12.8050 C.2     1  UNL1        0.0440
     29  C         26.1630  -20.2040  -12.0010 C.2     1  UNL1        0.1390
     30  F         26.4800  -20.2030  -10.6990 F       1  UNL1       -0.2040
@<TRIPOS>BOND
     1    26    27    2
     2    26    25    1
     3    27    28    1
     4    25    24    2
     5    28    29    2
     6    24    29    1
     7    24    21    1
     8    23    21    2
     9    29    30    1
    10    10     9    2
    11    21    22    2
    12    21    19    1
    13     9    11    1
    14     9     8   am
    15    12    11    2
    16    12    13    1
    17    19    13    1
    18    19    20    1
    19    18     8    1
    20    11    16    1
    21    13    14    2
    22     8     6    1
    23    16    17    1
    24    16    15    2
    25    14    15    1
    26    17     5    1
    27     6     5    2
    28     6     7    1
    29     5     4    1
    30     7     2    2
    31     4     3    2
    32     2     3    1
    33     2     1    1
