@<TRIPOS>MOLECULE
43215_out_ligand_01.pdbqt
 35 38 0 0 0
SMALL
GASTEIGER

@<TRIPOS>ATOM
      1  C         18.5560  -23.1600   -8.8240 C.2     1  UNL1        0.0750
      2  C         18.7470  -22.3170   -9.9210 C.2     1  UNL1        0.0270
      3  C         20.0040  -22.2430  -10.5330 C.2     1  UNL1        0.0310
      4  C         21.0710  -23.0100  -10.0570 C.2     1  UNL1        0.0340
      5  C         20.8620  -23.8620   -8.9620 C.2     1  UNL1        0.0310
      6  C         19.6050  -23.9500   -8.3540 C.2     1  UNL1        0.0270
      7  N         22.3720  -22.9790  -10.6030 N.am    1  UNL1       -0.3260
      8  C         23.3970  -22.0920  -10.2930 C.2     1  UNL1        0.2400
      9  O         23.3140  -21.1350   -9.5260 O.2     1  UNL1       -0.2710
     10  H         22.5660  -23.6830  -11.3030 H       1  UNL1        0.1690
     11  C         24.7050  -22.4000  -11.0490 C.3     1  UNL1        0.2270
     12  N         25.1280  -21.2950  -11.9220 N.pl3   1  UNL1       -0.3560
     13  C         26.2380  -20.4840  -11.4170 C.3     1  UNL1        0.1520
     14  C         25.0360  -21.4010  -13.2850 C.ar    1  UNL1        0.1700
     15  N         24.9210  -22.5570  -13.9040 N.ar    1  UNL1       -0.2200
     16  C         24.8740  -22.4050  -15.2810 C.ar    1  UNL1        0.1150
     17  C         24.7520  -23.4250  -16.2500 C.2     1  UNL1        0.1460
     18  C         24.9660  -21.0860  -15.7280 C.ar    1  UNL1        0.0400
     19  F         24.6610  -24.7130  -15.8830 F       1  UNL1       -0.2040
     20  C         24.7260  -23.1190  -17.6120 C.2     1  UNL1        0.0450
     21  C         24.8200  -21.7960  -18.0310 C.2     1  UNL1        0.0050
     22  C         24.9390  -20.7590  -17.0970 C.2     1  UNL1        0.0210
     23  S         25.1120  -20.0470  -14.3670 S.2     1  UNL1       -0.0500
     24  S         16.9420  -23.2900   -8.0900 S.O2    1  UNL1        0.2480
     25  O         16.0300  -23.8720   -9.0530 O.2     1  UNL1       -0.2050
     26  O         16.6510  -21.9930   -7.5080 O.2     1  UNL1       -0.2050
     27  N         17.1800  -24.3150   -6.8040 N.pl3   1  UNL1       -0.1480
     28  H         18.0370  -24.8520   -6.8740 H       1  UNL1        0.1490
     29  C         16.9590  -23.8050   -5.5320 C.cat   1  UNL1        0.2150
     30  N         15.7430  -24.0840   -5.0550 N.2     1  UNL1       -0.2300
     31  C         15.4470  -23.5160   -3.8700 C.2     1  UNL1        0.1220
     32  C         16.3020  -22.6730   -3.1970 C.2     1  UNL1        0.0460
     33  C         17.5100  -22.4130   -3.8140 C.2     1  UNL1        0.0350
     34  C         18.5030  -21.4910   -3.1710 C.3     1  UNL1        0.0700
     35  N         17.8460  -22.9590   -5.0020 N.2     1  UNL1       -0.2230
@<TRIPOS>BOND
     1    21    20    2
     2    21    22    1
     3    20    17    1
     4    22    18    2
     5    17    19    1
     6    17    16    2
     7    18    16   ar
     8    18    23   ar
     9    16    15   ar
    10    23    14   ar
    11    15    14   ar
    12    14    12    1
    13    12    13    1
    14    12    11    1
    15    10     7    1
    16    11     8    1
    17     7     8   am
    18     7     4    1
    19     3     4    2
    20     3     2    1
    21     8     9    2
    22     4     5    1
    23     2     1    2
    24    25    24    2
    25     5     6    2
    26     1     6    1
    27     1    24    1
    28    24    26    2
    29    24    27    1
    30    28    27    1
    31    27    29    1
    32    29    30    2
    33    29    35    1
    34    30    31    1
    35    35    33    2
    36    31    32    2
    37    33    32    1
    38    33    34    1
