@<TRIPOS>MOLECULE
43222_out_ligand_01.pdbqt
 37 41 0 0 0
SMALL
GASTEIGER

@<TRIPOS>ATOM
      1  N         20.3570  -22.5440   -8.8170 N.am    1  UNL1       -0.3160
      2  C         20.2090  -22.0440  -10.0960 C.2     1  UNL1        0.2560
      3  O         19.2310  -21.4340  -10.5170 O.2     1  UNL1       -0.2670
      4  H         21.2870  -22.6550   -8.4360 H       1  UNL1        0.1690
      5  C         21.4090  -22.1790  -10.9780 C.2     1  UNL1        0.0320
      6  C         22.4870  -22.9520  -10.5190 C.2     1  UNL1        0.0180
      7  C         23.6330  -23.1080  -11.3040 C.2     1  UNL1        0.0260
      8  C         23.6930  -22.4920  -12.5570 C.2     1  UNL1        0.0750
      9  C         22.6370  -21.6970  -13.0150 C.2     1  UNL1        0.0260
     10  C         21.4970  -21.5370  -12.2220 C.2     1  UNL1        0.0180
     11  S         25.1530  -22.6570  -13.5700 S.O2    1  UNL1        0.2480
     12  O         26.1970  -21.9060  -12.9020 O.2     1  UNL1       -0.2050
     13  O         25.3180  -24.0630  -13.8830 O.2     1  UNL1       -0.2050
     14  N         24.6720  -21.8440  -14.9970 N.pl3   1  UNL1       -0.1710
     15  C         24.6740  -22.6790  -16.2510 C.3     1  UNL1        0.1180
     16  C         25.7750  -22.1180  -17.1660 C.3     1  UNL1        0.0560
     17  C         26.0330  -20.7780  -16.5640 C.2     1  UNL1       -0.0350
     18  C         26.8060  -19.7480  -17.0760 C.2     1  UNL1        0.0090
     19  C         25.4420  -20.6730  -15.3090 C.2     1  UNL1        0.0310
     20  C         26.9580  -18.5900  -16.3100 C.2     1  UNL1        0.0010
     21  C         26.3480  -18.4820  -15.0510 C.2     1  UNL1        0.0020
     22  C         25.5790  -19.5300  -14.5410 C.2     1  UNL1        0.0250
     23  C         19.3280  -22.5750   -7.9010 C.ar    1  UNL1        0.0930
     24  S         18.0100  -23.5090   -8.4410 S.2     1  UNL1       -0.0750
     25  C         17.2020  -23.3210   -6.9600 C.ar    1  UNL1       -0.0080
     26  C         17.8830  -22.4950   -6.0840 C.ar    1  UNL1       -0.0260
     27  C         15.8620  -23.9410   -6.7040 C.3     1  UNL1        0.0510
     28  C         17.3290  -22.1540   -4.7290 C.3     1  UNL1        0.0410
     29  C         19.1230  -22.0140   -6.6560 C.ar    1  UNL1        0.0730
     30  C         15.8350  -22.5000   -4.6110 C.3     1  UNL1        0.0090
     31  C         15.5210  -23.8920   -5.1990 C.3     1  UNL1       -0.0140
     32  C         14.0560  -24.2610   -4.9710 C.3     1  UNL1        0.0100
     33  C         19.9980  -21.0200   -6.0490 C.2     1  UNL1        0.2520
     34  N         19.3920  -20.2160   -5.1220 N.am    1  UNL1       -0.3660
     35  H         20.0560  -19.7250   -4.5380 H       1  UNL1        0.1590
     36  H         18.5960  -20.6090   -4.6370 H       1  UNL1        0.1590
     37  O         21.1800  -20.8880   -6.3410 O.2     1  UNL1       -0.2680
@<TRIPOS>BOND
     1    16    17    1
     2    16    15    1
     3    18    17    2
     4    18    20    1
     5    17    19    1
     6    20    21    2
     7    15    14    1
     8    19    14    1
     9    19    22    2
    10    21    22    1
    11    14    11    1
    12    13    11    2
    13    11    12    2
    14    11     8    1
    15     9     8    2
    16     9    10    1
    17     8     7    1
    18    10     5    2
    19     7     6    2
    20     5     6    1
    21     5     2    1
    22     3     2    2
    23     2     1   am
    24     1     4    1
    25     1    23    1
    26    24    23   ar
    27    24    25   ar
    28    23    29   ar
    29    25    27    1
    30    25    26   ar
    31    27    31    1
    32    29    26   ar
    33    29    33    1
    34    37    33    2
    35    26    28    1
    36    33    34   am
    37    31    32    1
    38    31    30    1
    39    34    36    1
    40    34    35    1
    41    28    30    1
