@<TRIPOS>MOLECULE
43229_out_ligand_01.pdbqt
 35 39 0 0 0
SMALL
GASTEIGER

@<TRIPOS>ATOM
      1  C         21.0040  -22.3160  -10.7450 C.ar    1  UNL1        0.2130
      2  N         21.1330  -21.7670  -11.9340 N.ar    1  UNL1       -0.1200
      3  N         19.8970  -21.2960  -12.3160 N.ar    1  UNL1       -0.1280
      4  C         19.0440  -21.5900  -11.3560 C.ar    1  UNL1        0.1750
      5  C         17.6560  -21.3920  -11.2240 C.2     1  UNL1        0.0570
      6  C         17.0340  -21.8170  -10.1170 C.2     1  UNL1        0.0380
      7  C         17.8630  -22.4700   -9.0520 C.2     1  UNL1        0.0880
      8  N         19.1440  -22.6840   -9.1520 N.2     1  UNL1       -0.1630
      9  N         19.6970  -22.2310  -10.3200 N.ar    1  UNL1       -0.1870
     10  S         22.2600  -23.0550   -9.8150 S.3     1  UNL1       -0.0790
     11  C         23.3930  -21.6630   -9.5660 C.3     1  UNL1        0.1850
     12  C         24.4660  -21.6170  -10.6420 C.2     1  UNL1        0.2310
     13  N         24.3000  -22.5810  -11.6200 N.am    1  UNL1       -0.3260
     14  H         23.3960  -23.0540  -11.6340 H       1  UNL1        0.1690
     15  O         25.3750  -20.7910  -10.5890 O.2     1  UNL1       -0.2720
     16  C         25.1660  -22.8850  -12.6910 C.2     1  UNL1        0.0360
     17  C         26.0680  -23.9470  -12.6830 C.2     1  UNL1        0.0290
     18  C         26.8690  -24.1920  -13.8010 C.2     1  UNL1        0.0040
     19  C         26.7760  -23.3790  -14.9330 C.2     1  UNL1        0.0290
     20  C         25.8800  -22.3100  -14.9590 C.2     1  UNL1        0.0360
     21  C         25.0750  -22.0750  -13.8340 C.2     1  UNL1        0.0590
     22  N         25.7190  -21.4380  -16.0570 N.am    1  UNL1       -0.3270
     23  C         24.8660  -21.5880  -17.1330 C.2     1  UNL1        0.2180
     24  C         24.9490  -20.4430  -18.1150 C.3     1  UNL1        0.1170
     25  O         24.1020  -22.5230  -17.3430 O.2     1  UNL1       -0.2740
     26  H         26.3160  -20.6190  -16.0550 H       1  UNL1        0.1690
     27  C         17.1550  -22.9190   -7.8130 C.2     1  UNL1       -0.0030
     28  C         16.3110  -24.0530   -7.9020 C.2     1  UNL1        0.0170
     29  C         15.6220  -24.5290   -6.7830 C.2     1  UNL1        0.0400
     30  C         15.8010  -23.8630   -5.5930 C.2     1  UNL1        0.1050
     31  C         16.6300  -22.7680   -5.4960 C.2     1  UNL1        0.1050
     32  O         15.2230  -24.1810   -4.4040 O.2     1  UNL1       -0.3230
     33  C         17.3240  -22.2730   -6.5800 C.2     1  UNL1        0.0530
     34  O         16.6780  -22.2650   -4.2320 O.2     1  UNL1       -0.3230
     35  C         15.7900  -23.1710   -3.5440 C.3     1  UNL1        0.3520
@<TRIPOS>BOND
     1    24    23    1
     2    25    23    2
     3    23    22   am
     4    22    26    1
     5    22    20    1
     6    20    19    2
     7    20    21    1
     8    19    18    1
     9    21    16    2
    10    18    17    2
    11    16    17    1
    12    16    13    1
    13     3     2   ar
    14     3     4   ar
    15     2     1   ar
    16    14    13    1
    17    13    12   am
    18     4     5    1
    19     4     9   ar
    20     5     6    2
    21     1     9   ar
    22     1    10    1
    23    12    15    2
    24    12    11    1
    25     9     8    1
    26     6     7    1
    27    10    11    1
    28     8     7    2
    29     7    27    1
    30    28    27    2
    31    28    29    1
    32    27    33    1
    33    29    30    2
    34    33    31    2
    35    30    31    1
    36    30    32    1
    37    31    34    1
    38    32    35    1
    39    34    35    1
