@<TRIPOS>MOLECULE
43236_out_ligand_01.pdbqt
 32 35 0 0 0
SMALL
GASTEIGER

@<TRIPOS>ATOM
      1  C         23.5320  -22.2840   -9.9950 C.ar    1  UNL1        0.7250
      2  N         24.7380  -22.7410  -10.2880 N.ar    1  UNL1       -0.0420
      3  C         24.8700  -22.5810  -11.6280 C.ar    1  UNL1        0.1860
      4  C         23.7630  -22.0130  -12.1840 C.ar    1  UNL1        0.1660
      5  C         23.6530  -21.7590  -13.5780 C.ar    1  UNL1        0.2800
      6  O         22.6720  -21.2790  -14.1330 O.2     1  UNL1       -0.2650
      7  N         24.7860  -22.1230  -14.2700 N.ar    1  UNL1       -0.2730
      8  C         25.9310  -22.7080  -13.7580 C.ar    1  UNL1        0.3300
      9  O         26.8470  -22.9940  -14.5290 O.2     1  UNL1       -0.2460
     10  N         25.9650  -22.9380  -12.3860 N.ar    1  UNL1       -0.2860
     11  C         27.1210  -23.5550  -11.7670 C.3     1  UNL1        0.1630
     12  N         22.9090  -21.8020  -11.1350 N.ar    1  UNL1       -0.1700
     13  H         24.7750  -21.9770  -15.2660 H       1  UNL1        0.1730
     14  N         22.9150  -22.2510   -8.7780 N.pl3   1  UNL1       -0.1070
     15  H         23.0920  -21.4390   -8.1920 H       1  UNL1        0.2080
     16  N         21.6930  -22.8090   -8.5050 N.2     1  UNL1       -0.1720
     17  C         20.9550  -22.1760   -7.6450 C.2     1  UNL1        0.1500
     18  C         19.6300  -22.6790   -7.2320 C.2     1  UNL1       -0.0170
     19  C         18.7650  -21.8150   -6.5570 C.2     1  UNL1        0.0130
     20  C         17.5050  -22.2680   -6.1550 C.2     1  UNL1        0.0070
     21  C         17.0990  -23.5790   -6.4350 C.2     1  UNL1       -0.0620
     22  C         15.7600  -24.0730   -5.9730 C.3     1  UNL1        0.0480
     23  C         17.9820  -24.4410   -7.0990 C.2     1  UNL1        0.0070
     24  C         19.2420  -23.9920   -7.5020 C.2     1  UNL1        0.0130
     25  C         21.6060  -21.1680  -11.2230 C.3     1  UNL1        0.1530
     26  C         20.5870  -22.0590  -11.9320 C.3     1  UNL1        0.0590
     27  C         19.2050  -21.8700  -11.3620 C.2     1  UNL1       -0.0570
     28  C         18.5770  -22.9210  -10.6780 C.2     1  UNL1        0.0070
     29  C         17.2890  -22.7600  -10.1670 C.2     1  UNL1        0.0010
     30  C         16.6170  -21.5510  -10.3350 C.2     1  UNL1        0.0000
     31  C         17.2320  -20.5020  -11.0150 C.2     1  UNL1        0.0010
     32  C         18.5210  -20.6590  -11.5290 C.2     1  UNL1        0.0070
@<TRIPOS>BOND
     1    13     7    1
     2     9     8    2
     3     7     8   ar
     4     7     5   ar
     5     6     5    2
     6     8    10   ar
     7     5     4   ar
     8    10    11    1
     9    10     3   ar
    10     4     3   ar
    11     4    12   ar
    12    26    27    1
    13    26    25    1
    14     3     2   ar
    15    32    27    2
    16    32    31    1
    17    27    28    1
    18    25    12    1
    19    12     1   ar
    20    31    30    2
    21    28    29    2
    22    30    29    1
    23     2     1   ar
    24     1    14    1
    25    14    16    1
    26    14    15    1
    27    16    17    2
    28    17    18    1
    29    24    18    2
    30    24    23    1
    31    18    19    1
    32    23    21    2
    33    19    20    2
    34    21    20    1
    35    21    22    1
