@<TRIPOS>MOLECULE
43230_out_ligand_01.pdbqt
 31 34 0 0 0
SMALL
GASTEIGER

@<TRIPOS>ATOM
      1  C         15.1340  -22.3580   -6.2080 C.3     1  UNL1        0.0480
      2  C         16.3440  -22.8470   -6.9480 C.2     1  UNL1       -0.0600
      3  C         17.1870  -23.8030   -6.3740 C.2     1  UNL1        0.0090
      4  C         18.3170  -24.2430   -7.0630 C.2     1  UNL1        0.0400
      5  C         18.6380  -23.7020   -8.3120 C.2     1  UNL1        0.1020
      6  C         17.8250  -22.7260   -8.8870 C.2     1  UNL1        0.0690
      7  C         16.6710  -22.3150   -8.2030 C.2     1  UNL1        0.0390
      8  N         18.0600  -22.1550  -10.1420 N.am    1  UNL1       -0.3200
      9  C         19.2240  -22.0470  -10.8580 C.2     1  UNL1        0.2590
     10  O         19.1940  -21.4910  -11.9570 O.2     1  UNL1       -0.2670
     11  C         20.5280  -22.4420  -10.2870 C.2     1  UNL1        0.0680
     12  C         21.6610  -21.7280  -10.7210 C.2     1  UNL1        0.0440
     13  C         22.9260  -22.0370  -10.2240 C.2     1  UNL1        0.0240
     14  C         23.0800  -23.0760   -9.3100 C.2     1  UNL1        0.0270
     15  C         21.9650  -23.8030   -8.8950 C.2     1  UNL1        0.0400
     16  C         20.6890  -23.4770   -9.3720 C.2     1  UNL1        0.0920
     17  O         19.6770  -24.3030   -8.9720 O.2     1  UNL1       -0.3070
     18  H         17.3030  -21.6370  -10.5730 H       1  UNL1        0.1690
     19  N         24.0710  -21.3020  -10.6800 N.pl3   1  UNL1       -0.1810
     20  H         23.7990  -20.4840  -11.2280 H       1  UNL1        0.1460
     21  S         25.1660  -22.2130  -11.6250 S.O2    1  UNL1        0.2460
     22  O         24.3970  -23.2870  -12.2150 O.2     1  UNL1       -0.2060
     23  O         26.3800  -22.4680  -10.8840 O.2     1  UNL1       -0.2060
     24  C         25.5460  -21.0370  -12.9170 C.2     1  UNL1        0.0820
     25  C         25.0930  -21.3300  -14.2130 C.2     1  UNL1        0.0490
     26  C         25.3700  -20.4510  -15.2550 C.2     1  UNL1        0.0350
     27 CL         24.8100  -20.8040  -16.8430 Cl      1  UNL1       -0.0840
     28  C         26.0980  -19.2890  -15.0230 C.2     1  UNL1        0.0240
     29  C         26.5560  -19.0010  -13.7360 C.2     1  UNL1        0.0100
     30  C         26.2850  -19.8640  -12.6600 C.2     1  UNL1       -0.0390
     31  C         26.8310  -19.5090  -11.3050 C.3     1  UNL1        0.0500
@<TRIPOS>BOND
     1    27    26    1
     2    26    28    2
     3    26    25    1
     4    28    29    1
     5    25    24    2
     6    29    30    2
     7    24    30    1
     8    24    21    1
     9    30    31    1
    10    22    21    2
    11    10     9    2
    12    21    23    2
    13    21    19    1
    14    20    19    1
    15     9    11    1
    16     9     8   am
    17    12    11    2
    18    12    13    1
    19    19    13    1
    20    18     8    1
    21    11    16    1
    22    13    14    2
    23     8     6    1
    24    16    17    1
    25    16    15    2
    26    14    15    1
    27    17     5    1
    28     6     5    2
    29     6     7    1
    30     5     4    1
    31     7     2    2
    32     4     3    2
    33     2     3    1
    34     2     1    1
