@<TRIPOS>MOLECULE
43240_out_ligand_01.pdbqt
 36 40 0 0 0
SMALL
GASTEIGER

@<TRIPOS>ATOM
      1  N         22.4420  -23.0110  -10.4430 N.am    1  UNL1       -0.3040
      2  C         23.6370  -22.7920  -11.1280 C.2     1  UNL1        0.2560
      3  O         24.7130  -23.2530  -10.7530 O.2     1  UNL1       -0.2670
      4  C         23.5930  -21.9480  -12.3610 C.2     1  UNL1        0.0240
      5  C         22.4370  -21.3870  -12.7440 C.2     1  UNL1        0.0270
      6  C         21.2050  -21.5910  -11.9910 C.2     1  UNL1       -0.0060
      7  C         20.0270  -20.9600  -12.4130 C.2     1  UNL1        0.0530
      8  C         18.8510  -21.1270  -11.6900 C.2     1  UNL1        0.1030
      9  C         18.8400  -21.9500  -10.5630 C.2     1  UNL1        0.1040
     10  C         20.0130  -22.5740  -10.1340 C.2     1  UNL1        0.0700
     11  C         21.2100  -22.4080  -10.8480 C.2     1  UNL1        0.0510
     12  O         17.7130  -22.1820   -9.8140 O.2     1  UNL1       -0.3460
     13  C         16.5260  -21.7810  -10.5110 C.3     1  UNL1        0.2020
     14  C         16.7150  -20.4130  -11.1500 C.3     1  UNL1        0.2020
     15  O         17.7450  -20.4570  -12.1440 O.2     1  UNL1       -0.3460
     16  C         22.4960  -23.9100   -9.2820 C.3     1  UNL1        0.2350
     17  C         21.1820  -24.0790   -8.5030 C.2     1  UNL1        0.2400
     18  O         20.5570  -25.1370   -8.5850 O.2     1  UNL1       -0.2710
     19  N         20.7960  -22.9640   -7.7800 N.am    1  UNL1       -0.3260
     20  H         21.3600  -22.1380   -7.9170 H       1  UNL1        0.1690
     21  C         19.6480  -22.8180   -6.9790 C.2     1  UNL1        0.0370
     22  C         19.5410  -21.6350   -6.2260 C.2     1  UNL1        0.0290
     23  C         18.4270  -21.4010   -5.4120 C.2     1  UNL1        0.0050
     24  C         17.4190  -22.3580   -5.3330 C.2     1  UNL1        0.0420
     25  C         17.5330  -23.5370   -6.0670 C.2     1  UNL1        0.1180
     26  F         16.5680  -24.4630   -5.9760 F       1  UNL1       -0.2060
     27  C         18.6320  -23.7750   -6.8900 C.2     1  UNL1        0.0710
     28  C         24.9230  -21.7970  -13.0630 C.3     1  UNL1        0.1360
     29  N         25.1070  -22.8730  -14.0400 N.pl3   1  UNL1       -0.2890
     30  H         26.0090  -23.3280  -13.9130 H       1  UNL1        0.1280
     31  C         24.8900  -22.6210  -15.4020 C.2     1  UNL1        0.0080
     32  C         24.6090  -23.6140  -16.3460 C.2     1  UNL1        0.0230
     33  C         24.4880  -23.3070  -17.7070 C.2     1  UNL1        0.0020
     34  C         24.6780  -22.0020  -18.1520 C.2     1  UNL1        0.0000
     35  C         24.9940  -21.0060  -17.2360 C.2     1  UNL1        0.0020
     36  C         25.1140  -21.3190  -15.8780 C.2     1  UNL1        0.0230
@<TRIPOS>BOND
     1    34    33    2
     2    34    35    1
     3    33    32    1
     4    35    36    2
     5    32    31    2
     6    36    31    1
     7    31    29    1
     8    29    30    1
     9    29    28    1
    10    28     4    1
    11     5     4    2
    12     5     6    1
    13     7     6    2
    14     7     8    1
    15     4     2    1
    16    15     8    1
    17    15    14    1
    18     6    11    1
    19     8     9    2
    20    14    13    1
    21     2     3    2
    22     2     1   am
    23    11     1    1
    24    11    10    2
    25     9    10    1
    26     9    12    1
    27    13    12    1
    28     1    16    1
    29    16    17    1
    30    18    17    2
    31    17    19   am
    32    20    19    1
    33    19    21    1
    34    21    27    2
    35    21    22    1
    36    27    25    1
    37    22    23    2
    38    25    26    1
    39    25    24    2
    40    23    24    1
