@<TRIPOS>MOLECULE
43264_out_ligand_01.pdbqt
 30 33 0 0 0
SMALL
GASTEIGER

@<TRIPOS>ATOM
      1  C         15.0460  -22.5090   -6.0660 C.3     1  UNL1        0.0480
      2  C         16.2510  -22.9730   -6.8300 C.2     1  UNL1       -0.0600
      3  C         17.0580  -23.9970   -6.3280 C.2     1  UNL1        0.0090
      4  C         18.1830  -24.4120   -7.0390 C.2     1  UNL1        0.0400
      5  C         18.5360  -23.7830   -8.2360 C.2     1  UNL1        0.1020
      6  C         17.7610  -22.7390   -8.7370 C.2     1  UNL1        0.0690
      7  C         16.6100  -22.3510   -8.0350 C.2     1  UNL1        0.0390
      8  N         18.0270  -22.0760   -9.9400 N.am    1  UNL1       -0.3200
      9  C         19.2020  -21.9480  -10.6350 C.2     1  UNL1        0.2590
     10  O         19.1940  -21.3150  -11.6920 O.2     1  UNL1       -0.2670
     11  C         20.4880  -22.4190  -10.0780 C.2     1  UNL1        0.0680
     12  C         21.6430  -21.7000  -10.4310 C.2     1  UNL1        0.0440
     13  C         22.8890  -22.0740   -9.9300 C.2     1  UNL1        0.0240
     14  C         23.0060  -23.1960   -9.1120 C.2     1  UNL1        0.0270
     15  C         21.8660  -23.9260   -8.7790 C.2     1  UNL1        0.0400
     16  C         20.6070  -23.5280   -9.2470 C.2     1  UNL1        0.0920
     17  O         19.5680  -24.3570   -8.9310 O.2     1  UNL1       -0.3070
     18  H         17.2910  -21.5060  -10.3390 H       1  UNL1        0.1690
     19  N         24.0560  -21.3400  -10.3250 N.pl3   1  UNL1       -0.1810
     20  H         24.6210  -21.1070   -9.5050 H       1  UNL1        0.1460
     21  S         25.0810  -22.2070  -11.3850 S.O2    1  UNL1        0.2470
     22  O         24.3630  -23.2710  -12.0450 O.2     1  UNL1       -0.2050
     23  O         26.2750  -22.4800  -10.6080 O.2     1  UNL1       -0.2050
     24  C         25.4970  -20.9760  -12.5950 C.2     1  UNL1        0.0920
     25  C         26.7320  -20.3180  -12.4580 C.2     1  UNL1        0.0260
     26  C         27.1210  -19.3450  -13.3790 C.2     1  UNL1        0.0020
     27  C         26.2830  -19.0240  -14.4410 C.2     1  UNL1        0.0010
     28  C         25.0580  -19.6790  -14.5850 C.2     1  UNL1        0.0200
     29  C         24.6570  -20.6590  -13.6660 C.2     1  UNL1        0.0330
     30 BR         22.9660  -21.4550  -13.9910 Br      1  UNL1       -0.0490
@<TRIPOS>BOND
     1    28    27    2
     2    28    29    1
     3    27    26    1
     4    30    29    1
     5    29    24    2
     6    26    25    2
     7    24    25    1
     8    24    21    1
     9    22    21    2
    10    10     9    2
    11    21    23    2
    12    21    19    1
    13     9    11    1
    14     9     8   am
    15    12    11    2
    16    12    13    1
    17    18     8    1
    18    19    13    1
    19    19    20    1
    20    11    16    1
    21     8     6    1
    22    13    14    2
    23    16    17    1
    24    16    15    2
    25    14    15    1
    26    17     5    1
    27     6     5    2
    28     6     7    1
    29     5     4    1
    30     7     2    2
    31     4     3    2
    32     2     3    1
    33     2     1    1
