@<TRIPOS>MOLECULE
43279_out_ligand_01.pdbqt
 39 43 0 0 0
SMALL
GASTEIGER

@<TRIPOS>ATOM
      1  N         22.0980  -22.5770  -11.1950 N.am    1  UNL1       -0.3160
      2  C         20.9730  -21.8070  -10.9830 C.2     1  UNL1        0.2560
      3  O         20.8160  -20.6500  -11.3590 O.2     1  UNL1       -0.2670
      4  H         22.3090  -23.3320  -10.5580 H       1  UNL1        0.1690
      5  C         19.9210  -22.4320  -10.1240 C.2     1  UNL1        0.0320
      6  C         20.3210  -23.3680   -9.1560 C.2     1  UNL1        0.0180
      7  C         19.3780  -23.9790   -8.3260 C.2     1  UNL1        0.0260
      8  C         18.0280  -23.6540   -8.4700 C.2     1  UNL1        0.0750
      9  C         17.6160  -22.7050   -9.4120 C.2     1  UNL1        0.0260
     10  C         18.5650  -22.0910  -10.2360 C.2     1  UNL1        0.0180
     11  S         16.8020  -24.4090   -7.4120 S.O2    1  UNL1        0.2480
     12  O         17.5440  -25.2880   -6.5320 O.2     1  UNL1       -0.2050
     13  O         15.7470  -24.9200   -8.2630 O.2     1  UNL1       -0.2050
     14  N         16.1720  -23.0340   -6.5400 N.pl3   1  UNL1       -0.1720
     15  C         14.8670  -23.3600   -5.8740 C.3     1  UNL1        0.1140
     16  C         14.4690  -22.3090   -4.8540 C.3     1  UNL1        0.0200
     17  C         15.5330  -22.2520   -3.7750 C.3     1  UNL1        0.0420
     18  C         16.8670  -21.9480   -4.3960 C.2     1  UNL1       -0.0360
     19  C         17.8280  -21.2740   -3.6220 C.2     1  UNL1        0.0090
     20  C         17.1620  -22.3310   -5.7190 C.2     1  UNL1        0.0310
     21  C         19.0530  -20.9110   -4.1730 C.2     1  UNL1        0.0010
     22  C         19.3190  -21.2070   -5.5030 C.2     1  UNL1        0.0020
     23  C         18.3740  -21.8950   -6.2710 C.2     1  UNL1        0.0250
     24  C         23.1290  -22.1950  -12.0270 C.ar    1  UNL1        0.0930
     25  S         22.5650  -21.4320  -13.4440 S.2     1  UNL1       -0.0730
     26  C         24.1380  -21.3160  -14.0740 C.ar    1  UNL1        0.0200
     27  C         25.0910  -21.8130  -13.2040 C.ar    1  UNL1       -0.0240
     28  C         24.4230  -20.7260  -15.4250 C.3     1  UNL1        0.3190
     29  C         26.5490  -21.7360  -13.5490 C.3     1  UNL1        0.0710
     30  C         24.5080  -22.2760  -11.9660 C.ar    1  UNL1        0.0670
     31  C         26.7640  -21.3480  -15.0290 C.3     1  UNL1        0.2770
     32  N         25.8390  -20.3520  -15.5940 N.3     1  UNL1        0.0930
     33  C         26.1520  -18.9570  -15.2770 C.3     1  UNL1        0.2680
     34  C         26.8010  -18.0900  -16.3500 C.3     1  UNL1        0.0370
     35  C         25.2600  -22.6820  -10.7910 C.2     1  UNL1        0.2320
     36  N         24.5510  -23.4280   -9.8900 N.am    1  UNL1       -0.2680
     37  H         25.0080  -23.4830   -8.9880 H       1  UNL1        0.1270
     38  H         23.5560  -23.2560   -9.8570 H       1  UNL1        0.1270
     39  O         26.4400  -22.4060  -10.6140 O.2     1  UNL1       -0.2740
@<TRIPOS>BOND
     1    34    33    1
     2    32    28    1
     3    32    33    1
     4    32    31    1
     5    28    26    1
     6    31    29    1
     7    26    25   ar
     8    26    27   ar
     9    29    27    1
    10    25    24   ar
    11    27    30   ar
    12    24    30   ar
    13    24     1    1
    14    30    35    1
    15     3     2    2
    16     1     2   am
    17     1     4    1
    18     2     5    1
    19    35    39    2
    20    35    36   am
    21    10     5    2
    22    10     9    1
    23     5     6    1
    24    36    38    1
    25    36    37    1
    26     9     8    2
    27     6     7    2
    28     8     7    1
    29     8    11    1
    30    13    11    2
    31    11    14    1
    32    11    12    2
    33    14    15    1
    34    14    20    1
    35    23    20    1
    36    23    22    2
    37    15    16    1
    38    20    18    2
    39    22    21    1
    40    16    17    1
    41    18    17    1
    42    18    19    1
    43    21    19    2
