@<TRIPOS>MOLECULE
43277_out_ligand_01.pdbqt
 33 36 0 0 0
SMALL
GASTEIGER

@<TRIPOS>ATOM
      1  C         21.5610  -22.6200   -8.3200 C.3     1  UNL1        0.1850
      2  C         22.4700  -22.0970   -9.4220 C.2     1  UNL1        0.2310
      3  N         22.4000  -22.8400  -10.5910 N.am    1  UNL1       -0.3270
      4  H         21.9120  -23.7340  -10.5270 H       1  UNL1        0.1690
      5  O         23.1750  -21.1090   -9.2380 O.2     1  UNL1       -0.2720
      6  C         23.0610  -22.5860  -11.8080 C.2     1  UNL1        0.0340
      7  C         22.4670  -21.6540  -12.6730 C.2     1  UNL1        0.0310
      8  C         23.0590  -21.3440  -13.9010 C.2     1  UNL1        0.0270
      9  C         24.2640  -21.9550  -14.2550 C.2     1  UNL1        0.0740
     10  C         24.8640  -22.8850  -13.4050 C.2     1  UNL1        0.0270
     11  C         24.2620  -23.1970  -12.1820 C.2     1  UNL1        0.0310
     12  S         25.0290  -21.5680  -15.8050 S.O2    1  UNL1        0.2390
     13  O         24.1460  -21.9840  -16.8720 O.2     1  UNL1       -0.2060
     14  O         26.4140  -21.9620  -15.7470 O.2     1  UNL1       -0.2060
     15  N         24.9660  -19.8870  -15.7960 N.3     1  UNL1       -0.2250
     16  H         24.8980  -19.4950  -14.8580 H       1  UNL1        0.1360
     17  H         24.1960  -19.5840  -16.3960 H       1  UNL1        0.1360
     18  S         20.5520  -24.0070   -8.9140 S.3     1  UNL1       -0.0800
     19  C         19.2120  -23.1780   -9.6390 C.ar    1  UNL1        0.2030
     20  N         19.2480  -22.6130  -10.8260 N.ar    1  UNL1       -0.1350
     21  N         18.1420  -21.8080  -10.8940 N.ar    1  UNL1        0.0190
     22  N         17.4320  -21.8770   -9.7800 N.ar    1  UNL1        0.0030
     23  N         18.0350  -22.8110   -8.9970 N.ar    1  UNL1       -0.2160
     24  C         17.5240  -23.1260   -7.7160 C.2     1  UNL1        0.0680
     25  C         16.5890  -24.1750   -7.6590 C.2     1  UNL1        0.0320
     26  C         15.9480  -24.4720   -6.4640 C.2     1  UNL1        0.0030
     27  C         16.2430  -23.7360   -5.3200 C.2     1  UNL1        0.0120
     28  C         17.2200  -22.7290   -5.3370 C.2     1  UNL1       -0.0240
     29  C         17.5280  -22.0510   -4.1470 C.2     1  UNL1        0.0120
     30  C         17.9110  -22.4220   -6.5370 C.2     1  UNL1        0.0030
     31  C         18.5470  -21.1030   -4.1020 C.2     1  UNL1        0.0010
     32  C         19.2880  -20.8360   -5.2430 C.2     1  UNL1        0.0010
     33  C         18.9820  -21.4920   -6.4380 C.2     1  UNL1        0.0140
@<TRIPOS>BOND
     1    13    12    2
     2    17    15    1
     3    12    15    1
     4    12    14    2
     5    12     9    1
     6    15    16    1
     7     9     8    2
     8     9    10    1
     9     8     7    1
    10    10    11    2
    11     7     6    2
    12    11     6    1
    13     6     3    1
    14    21    20   ar
    15    21    22   ar
    16    20    19   ar
    17     3     4    1
    18     3     2   am
    19    22    23   ar
    20    19    23   ar
    21    19    18    1
    22     2     5    2
    23     2     1    1
    24    23    24    1
    25    18     1    1
    26    24    25    2
    27    24    30    1
    28    25    26    1
    29    30    33    1
    30    30    28    2
    31    26    27    2
    32    33    32    2
    33    28    27    1
    34    28    29    1
    35    32    31    1
    36    29    31    2
