@<TRIPOS>MOLECULE
43292_out_ligand_01.pdbqt
 39 43 0 0 0
SMALL
GASTEIGER

@<TRIPOS>ATOM
      1  N         22.4070  -22.8640  -11.5590 N.am    1  UNL1       -0.3160
      2  C         21.2430  -22.1570  -11.1560 C.2     1  UNL1        0.2560
      3  O         21.0580  -20.9730  -11.6180 O.2     1  UNL1       -0.2670
      4  H         22.5550  -23.8040  -11.1930 H       1  UNL1        0.1690
      5  C         20.2340  -22.6610  -10.2570 C.2     1  UNL1        0.0320
      6  C         20.5510  -23.5960   -9.3100 C.2     1  UNL1        0.0180
      7  C         19.5680  -24.0810   -8.4400 C.2     1  UNL1        0.0260
      8  C         18.2630  -23.6430   -8.5030 C.2     1  UNL1        0.0800
      9  C         17.9480  -22.6930   -9.4690 C.2     1  UNL1        0.0260
     10  C         18.9320  -22.2230  -10.3210 C.2     1  UNL1        0.0180
     11  S         17.0600  -24.2630   -7.4090 S.O2    1  UNL1        0.2650
     12  O         15.8090  -24.5100   -8.2520 O.2     1  UNL1       -0.2000
     13  O         17.3940  -25.5670   -6.8020 O.2     1  UNL1       -0.2000
     14  N         16.5580  -23.0660   -6.2490 N.pl3   1  UNL1       -0.2710
     15  C         15.1440  -22.9360   -5.9190 C.3     1  UNL1        0.1420
     16  C         14.8850  -22.2450   -4.6290 C.3     1  UNL1        0.0260
     17  C         16.0450  -22.2740   -3.6730 C.3     1  UNL1        0.0420
     18  C         17.2950  -21.7950   -4.3320 C.2     1  UNL1       -0.0310
     19  C         18.2060  -20.9770   -3.7190 C.2     1  UNL1        0.0090
     20  C         17.5120  -22.2170   -5.6270 C.2     1  UNL1        0.0510
     21  C         19.3310  -20.5980   -4.4340 C.2     1  UNL1        0.0010
     22  C         19.5430  -21.0300   -5.7410 C.2     1  UNL1        0.0020
     23  C         18.6250  -21.8560   -6.3620 C.2     1  UNL1        0.0310
     24  C         23.3050  -22.1890  -12.4700 C.ar    1  UNL1        0.0930
     25  S         23.0850  -21.9440  -14.1520 S.2     1  UNL1       -0.0730
     26  C         24.5130  -21.1080  -14.4990 C.ar    1  UNL1        0.0200
     27  C         25.1480  -21.0320  -13.2790 C.ar    1  UNL1       -0.0230
     28  C         25.1180  -20.5240  -15.7430 C.3     1  UNL1        0.3190
     29  C         26.4740  -20.2900  -13.4060 C.3     1  UNL1        0.0710
     30  C         24.5210  -21.5940  -12.2310 C.ar    1  UNL1        0.0730
     31  C         26.0870  -18.9990  -14.1550 C.3     1  UNL1        0.2770
     32  N         25.8630  -19.3400  -15.5180 N.3     1  UNL1        0.0930
     33  C         27.1210  -19.3220  -16.2300 C.3     1  UNL1        0.2680
     34  C         26.9860  -20.1850  -17.4840 C.3     1  UNL1        0.0370
     35  C         25.1040  -21.5870  -10.8580 C.2     1  UNL1        0.2520
     36  N         26.3440  -22.1730  -10.5240 N.am    1  UNL1       -0.3660
     37  H         26.3960  -23.1810  -10.3090 H       1  UNL1        0.1590
     38  H         27.1960  -21.5380  -10.5040 H       1  UNL1        0.1590
     39  O         24.5010  -21.0400   -9.8870 O.2     1  UNL1       -0.2680
@<TRIPOS>BOND
     1    34    33    1
     2    33    32    1
     3    28    32    1
     4    28    26    1
     5    32    31    1
     6    26    25   ar
     7    26    27   ar
     8    31    29    1
     9    25    24   ar
    10    29    27    1
    11    27    30   ar
    12    24    30   ar
    13    24     1    1
    14    30    35    1
    15     3     2    2
    16     1     4    1
    17     1     2   am
    18     2     5    1
    19    35    36   am
    20    35    39    2
    21    36    38    1
    22    36    37    1
    23    10     5    2
    24    10     9    1
    25     5     6    1
    26     9     8    2
    27     6     7    2
    28     8     7    1
    29     8    11    1
    30    12    11    2
    31    11    13    2
    32    11    14    1
    33    23    22    2
    34    23    20    1
    35    14    15    1
    36    14    20    1
    37    15    16    1
    38    22    21    1
    39    20    18    2
    40    16    17    1
    41    21    19    2
    42    18    19    1
    43    18    17    1
