@<TRIPOS>MOLECULE
43316_out_ligand_01.pdbqt
 33 36 0 0 0
SMALL
GASTEIGER

@<TRIPOS>ATOM
      1  C         22.4520  -21.7720  -12.5200 C.2     1  UNL1        0.0320
      2  C         23.1170  -22.6670  -11.6680 C.2     1  UNL1        0.0180
      3  C         22.5030  -23.1010  -10.4910 C.2     1  UNL1        0.0260
      4  C         21.2210  -22.6400  -10.1700 C.2     1  UNL1        0.0750
      5  C         20.5360  -21.7720  -11.0240 C.2     1  UNL1        0.0260
      6  C         21.1550  -21.3390  -12.1980 C.2     1  UNL1        0.0180
      7  C         23.0720  -21.2860  -13.7870 C.2     1  UNL1        0.2560
      8  N         24.2630  -21.9010  -14.1250 N.am    1  UNL1       -0.3160
      9  H         24.8160  -22.3300  -13.3960 H       1  UNL1        0.1690
     10  O         22.5610  -20.3400  -14.3770 O.2     1  UNL1       -0.2670
     11  C         24.9200  -21.6260  -15.3060 C.2     1  UNL1        0.0920
     12  S         24.6630  -22.8170  -16.4940 S.3     1  UNL1       -0.0830
     13  C         25.7760  -22.0730  -17.5560 C.2     1  UNL1        0.0530
     14  C         26.2690  -20.8970  -17.0350 C.2     1  UNL1        0.0270
     15  C         25.7300  -20.5940  -15.7340 C.2     1  UNL1        0.0660
     16  C         25.9430  -19.3480  -15.0120 C.2     1  UNL1        0.2520
     17  N         26.0150  -18.2340  -15.8020 N.am    1  UNL1       -0.3660
     18  H         26.3790  -17.4240  -15.3170 H       1  UNL1        0.1590
     19  H         26.3220  -18.3560  -16.7570 H       1  UNL1        0.1590
     20  O         26.0250  -19.2720  -13.7910 O.2     1  UNL1       -0.2680
     21  S         20.4500  -23.2190   -8.6660 S.O2    1  UNL1        0.2480
     22  O         21.2160  -22.6240   -7.5910 O.2     1  UNL1       -0.2050
     23  O         20.3040  -24.6570   -8.7740 O.2     1  UNL1       -0.2050
     24  N         18.8580  -22.5080   -8.7740 N.pl3   1  UNL1       -0.1720
     25  C         18.1180  -23.0110   -9.9790 C.3     1  UNL1        0.1140
     26  C         16.6520  -22.6260   -9.9410 C.3     1  UNL1        0.0200
     27  C         16.0120  -23.2670   -8.7260 C.3     1  UNL1        0.0420
     28  C         16.7430  -22.8440   -7.4820 C.2     1  UNL1       -0.0360
     29  C         16.0330  -22.8190   -6.2690 C.2     1  UNL1        0.0090
     30  C         18.1070  -22.4930   -7.5150 C.2     1  UNL1        0.0310
     31  C         16.6430  -22.3770   -5.0990 C.2     1  UNL1        0.0010
     32  C         17.9600  -21.9400   -5.1400 C.2     1  UNL1        0.0020
     33  C         18.6770  -21.9820   -6.3410 C.2     1  UNL1        0.0250
@<TRIPOS>BOND
     1    13    14    2
     2    13    12    1
     3    14    15    1
     4    19    17    1
     5    12    11    1
     6    17    18    1
     7    17    16   am
     8    15    11    2
     9    15    16    1
    10    11     8    1
    11    16    20    2
    12    10     7    2
    13     8     7   am
    14     8     9    1
    15     7     1    1
    16     1     6    2
    17     1     2    1
    18     6     5    1
    19     2     3    2
    20     5     4    2
    21     3     4    1
    22     4    21    1
    23    25    26    1
    24    25    24    1
    25    26    27    1
    26    24    21    1
    27    24    30    1
    28    23    21    2
    29    27    28    1
    30    21    22    2
    31    30    28    2
    32    30    33    1
    33    28    29    1
    34    33    32    2
    35    29    31    2
    36    32    31    1
