@<TRIPOS>MOLECULE
43328_out_ligand_01.pdbqt
 38 42 0 0 0
SMALL
GASTEIGER

@<TRIPOS>ATOM
      1  C         18.8970  -21.0890  -11.4620 C.ar    1  UNL1        0.1960
      2  N         17.7700  -20.6000  -11.9220 N.ar    1  UNL1       -0.1220
      3  N         16.7490  -21.2310  -11.2720 N.ar    1  UNL1       -0.1320
      4  C         17.2690  -22.1270  -10.4470 C.ar    1  UNL1        0.1530
      5  N         18.6550  -22.0710  -10.5170 N.ar    1  UNL1       -0.2740
      6  C         16.4770  -23.1240   -9.6760 C.3     1  UNL1        0.2040
      7  N         16.6010  -22.8150   -8.2670 N.am    1  UNL1       -0.3500
      8  C         16.4030  -23.7850   -7.3090 C.2     1  UNL1        0.2520
      9  O         16.2690  -24.9760   -7.5560 O.2     1  UNL1       -0.2680
     10  H         16.5740  -21.8390   -7.9940 H       1  UNL1        0.1630
     11  C         16.4170  -23.3090   -5.9050 C.2     1  UNL1        0.0430
     12  C         15.3990  -23.8120   -5.0830 C.2     1  UNL1        0.0180
     13  C         15.3550  -23.4610   -3.7390 C.2     1  UNL1        0.0020
     14  C         16.3230  -22.6070   -3.2170 C.2     1  UNL1        0.0120
     15  C         17.3380  -22.0720   -4.0300 C.2     1  UNL1       -0.0250
     16  C         18.2910  -21.1980   -3.4830 C.2     1  UNL1        0.0120
     17  C         17.3940  -22.4080   -5.4060 C.2     1  UNL1       -0.0100
     18  C         19.2910  -20.6370   -4.2760 C.2     1  UNL1        0.0010
     19  C         19.3450  -20.9350   -5.6310 C.2     1  UNL1        0.0010
     20  C         18.4060  -21.8020   -6.1900 C.2     1  UNL1        0.0130
     21  C         19.5990  -22.8110   -9.7650 C.2     1  UNL1        0.0430
     22  C         20.5430  -22.1430   -8.9750 C.2     1  UNL1        0.0300
     23  C         21.4860  -22.8770   -8.2540 C.2     1  UNL1        0.0020
     24  C         21.4890  -24.2700   -8.3190 C.2     1  UNL1        0.0000
     25  C         20.5520  -24.9350   -9.1080 C.2     1  UNL1        0.0020
     26  C         19.6080  -24.2090   -9.8360 C.2     1  UNL1        0.0300
     27  S         20.4240  -20.3320  -11.8040 S.3     1  UNL1       -0.0800
     28  C         21.3740  -21.7100  -12.5190 C.3     1  UNL1        0.1850
     29  C         22.5600  -21.2720  -13.3650 C.2     1  UNL1        0.2330
     30  N         23.7150  -21.9810  -13.1190 N.am    1  UNL1       -0.3040
     31  H         23.6850  -22.8180  -12.5500 H       1  UNL1        0.1710
     32  O         22.4330  -20.3420  -14.1560 O.2     1  UNL1       -0.2720
     33  C         24.8360  -21.8160  -13.8840 C.ar    1  UNL1        0.1960
     34  N         25.9400  -21.1510  -13.6480 N.ar    1  UNL1       -0.1230
     35  N         26.8200  -21.2270  -14.7140 N.ar    1  UNL1       -0.1450
     36  C         26.3340  -21.9460  -15.7060 C.ar    1  UNL1        0.0970
     37  C         27.0430  -22.2180  -16.9790 C.3     1  UNL1        0.0810
     38  S         24.7730  -22.5990  -15.3990 S.2     1  UNL1       -0.0340
@<TRIPOS>BOND
     1    37    36    1
     2    36    38   ar
     3    36    35   ar
     4    38    33   ar
     5    35    34   ar
     6    32    29    2
     7    33    34   ar
     8    33    30    1
     9    29    30   am
    10    29    28    1
    11    30    31    1
    12    28    27    1
    13     2     1   ar
    14     2     3   ar
    15    27     1    1
    16     1     5   ar
    17     3     4   ar
    18     5     4   ar
    19     5    21    1
    20     4     6    1
    21    26    21    2
    22    26    25    1
    23    21    22    1
    24     6     7    1
    25    25    24    2
    26    22    23    2
    27    24    23    1
    28     7    10    1
    29     7     8   am
    30     9     8    2
    31     8    11    1
    32    20    19    2
    33    20    17    1
    34    11    17    2
    35    11    12    1
    36    19    18    1
    37    17    15    1
    38    12    13    2
    39    18    16    2
    40    15    16    1
    41    15    14    2
    42    13    14    1
