@<TRIPOS>MOLECULE
43326_out_ligand_01.pdbqt
 36 40 0 0 0
SMALL
GASTEIGER

@<TRIPOS>ATOM
      1  C         21.6670  -23.1520   -9.6730 C.2     1  UNL1        0.0320
      2  C         21.6280  -22.5950  -10.9600 C.2     1  UNL1        0.0180
      3  C         22.8140  -22.4020  -11.6750 C.2     1  UNL1        0.0260
      4  C         24.0350  -22.7720  -11.1010 C.2     1  UNL1        0.0750
      5  C         24.0840  -23.3530   -9.8320 C.2     1  UNL1        0.0260
      6  C         22.8970  -23.5410   -9.1200 C.2     1  UNL1        0.0180
      7  C         20.4250  -23.3780   -8.8770 C.2     1  UNL1        0.2560
      8  N         19.8960  -22.2480   -8.2850 N.am    1  UNL1       -0.3160
      9  H         20.4980  -21.4530   -8.1190 H       1  UNL1        0.1690
     10  O         20.0200  -24.5260   -8.7230 O.2     1  UNL1       -0.2670
     11  C         18.7060  -22.2570   -7.5910 C.ar    1  UNL1        0.0930
     12  C         17.3830  -22.4390   -7.9460 C.ar    1  UNL1        0.0730
     13  C         16.5450  -22.4600   -6.7680 C.ar    1  UNL1       -0.0260
     14  C         17.2720  -22.2290   -5.6150 C.ar    1  UNL1       -0.0080
     15  C         15.0560  -22.6640   -6.7320 C.3     1  UNL1        0.0410
     16  S         18.9200  -21.9620   -5.9290 S.2     1  UNL1       -0.0750
     17  C         16.7040  -22.1370   -4.2330 C.3     1  UNL1        0.0470
     18  C         15.2750  -22.7020   -4.2000 C.3     1  UNL1        0.0050
     19  C         14.4450  -22.2130   -5.3950 C.3     1  UNL1        0.0050
     20  C         16.9080  -22.5200   -9.3190 C.2     1  UNL1        0.2520
     21  N         15.9970  -23.5140   -9.5520 N.am    1  UNL1       -0.3660
     22  H         16.0500  -24.3220   -8.9460 H       1  UNL1        0.1590
     23  H         15.8810  -23.7140  -10.5360 H       1  UNL1        0.1590
     24  O         17.2720  -21.7600  -10.2090 O.2     1  UNL1       -0.2680
     25  S         25.5340  -22.5300  -12.0360 S.O2    1  UNL1        0.2480
     26  O         26.5380  -22.0040  -11.1340 O.2     1  UNL1       -0.2050
     27  O         25.7570  -23.7580  -12.7700 O.2     1  UNL1       -0.2050
     28  N         25.0700  -21.2890  -13.1090 N.pl3   1  UNL1       -0.1710
     29  C         25.8600  -20.0130  -13.0200 C.3     1  UNL1        0.1180
     30  C         25.8020  -19.3720  -14.4150 C.3     1  UNL1        0.0560
     31  C         25.4320  -20.5330  -15.2770 C.2     1  UNL1       -0.0350
     32  C         25.4130  -20.5820  -16.6630 C.2     1  UNL1        0.0090
     33  C         25.0180  -21.6190  -14.5050 C.2     1  UNL1        0.0310
     34  C         24.9540  -21.7490  -17.2760 C.2     1  UNL1        0.0010
     35  C         24.5040  -22.8290  -16.5030 C.2     1  UNL1        0.0020
     36  C         24.5170  -22.7610  -15.1060 C.2     1  UNL1        0.0250
@<TRIPOS>BOND
     1    34    32    1
     2    34    35    2
     3    32    31    2
     4    35    36    1
     5    31    33    1
     6    31    30    1
     7    36    33    2
     8    33    28    1
     9    30    29    1
    10    28    29    1
    11    28    25    1
    12    27    25    2
    13    25    26    2
    14    25     4    1
    15     3     4    2
    16     3     2    1
    17     4     5    1
    18     2     1    2
    19    23    21    1
    20    24    20    2
    21     5     6    2
    22     1     6    1
    23     1     7    1
    24    21    20   am
    25    21    22    1
    26    20    12    1
    27     7    10    2
    28     7     8   am
    29     8     9    1
    30     8    11    1
    31    12    11   ar
    32    12    13   ar
    33    11    16   ar
    34    13    15    1
    35    13    14   ar
    36    15    19    1
    37    16    14   ar
    38    14    17    1
    39    19    18    1
    40    17    18    1
