@<TRIPOS>MOLECULE
43336_out_ligand_01.pdbqt
 33 36 0 0 0
SMALL
GASTEIGER

@<TRIPOS>ATOM
      1  C         23.0570  -21.3380  -13.4990 C.ar    1  UNL1        0.7250
      2  N         23.2400  -21.7440  -14.7440 N.ar    1  UNL1       -0.0420
      3  C         24.5100  -22.2170  -14.7910 C.ar    1  UNL1        0.1860
      4  C         25.1320  -22.1200  -13.5830 C.ar    1  UNL1        0.1660
      5  C         26.4760  -22.5320  -13.3820 C.ar    1  UNL1        0.2800
      6  O         27.0850  -22.4690  -12.3190 O.2     1  UNL1       -0.2650
      7  N         27.0530  -23.0250  -14.5310 N.ar    1  UNL1       -0.2730
      8  C         26.4620  -23.1630  -15.7750 C.ar    1  UNL1        0.3300
      9  O         27.1210  -23.6480  -16.6960 O.2     1  UNL1       -0.2460
     10  N         25.1450  -22.7370  -15.8990 N.ar    1  UNL1       -0.2860
     11  C         24.4430  -22.8570  -17.1610 C.3     1  UNL1        0.1630
     12  N         24.1930  -21.5830  -12.7400 N.ar    1  UNL1       -0.1710
     13  H         28.0090  -23.3340  -14.4620 H       1  UNL1        0.1730
     14  N         21.9510  -20.7460  -12.9620 N.pl3   1  UNL1       -0.1070
     15  H         22.0140  -19.7670  -12.7020 H       1  UNL1        0.2080
     16  N         20.9650  -21.3850  -12.2590 N.2     1  UNL1       -0.1720
     17  C         19.8510  -20.7400  -12.0930 C.2     1  UNL1        0.1500
     18  C         18.6980  -21.3430  -11.3930 C.2     1  UNL1       -0.0170
     19  C         18.7630  -22.6900  -11.0270 C.2     1  UNL1        0.0130
     20  C         17.6890  -23.2780  -10.3550 C.2     1  UNL1        0.0070
     21  C         16.5430  -22.5310  -10.0540 C.2     1  UNL1       -0.0620
     22  C         15.4050  -23.1530   -9.2970 C.3     1  UNL1        0.0480
     23  C         16.4930  -21.1790  -10.4150 C.2     1  UNL1        0.0070
     24  C         17.5640  -20.5870  -11.0900 C.2     1  UNL1        0.0130
     25  C         24.3730  -21.3650  -11.3160 C.3     1  UNL1        0.1480
     26  C         23.7480  -22.4720  -10.4720 C.3     1  UNL1        0.0250
     27  C         23.0890  -21.8910   -9.2220 C.3     1  UNL1        0.0400
     28  C         21.9230  -22.7300   -8.7660 C.2     1  UNL1       -0.0580
     29  C         21.7910  -24.0580   -9.1980 C.2     1  UNL1        0.0070
     30  C         20.7040  -24.8290   -8.7850 C.2     1  UNL1        0.0010
     31  C         19.7380  -24.2790   -7.9420 C.2     1  UNL1        0.0000
     32  C         19.8570  -22.9590   -7.5130 C.2     1  UNL1        0.0010
     33  C         20.9430  -22.1860   -7.9250 C.2     1  UNL1        0.0070
@<TRIPOS>BOND
     1    11    10    1
     2     9     8    2
     3    10     8   ar
     4    10     3   ar
     5     8     7   ar
     6     3     2   ar
     7     3     4   ar
     8     2     1   ar
     9     7    13    1
    10     7     5   ar
    11     4     5   ar
    12     4    12   ar
    13     1    14    1
    14     1    12   ar
    15     5     6    2
    16    14    15    1
    17    14    16    1
    18    12    25    1
    19    16    17    2
    20    17    18    1
    21    18    24    2
    22    18    19    1
    23    25    26    1
    24    24    23    1
    25    19    20    2
    26    26    27    1
    27    23    21    2
    28    20    21    1
    29    21    22    1
    30    27    28    1
    31    29    30    1
    32    29    28    2
    33    30    31    2
    34    28    33    1
    35    31    32    1
    36    33    32    2
