@<TRIPOS>MOLECULE
43338_out_ligand_01.pdbqt
 33 37 0 0 0
SMALL
GASTEIGER

@<TRIPOS>ATOM
      1  O         20.4710  -24.1770   -9.5300 O.2     1  UNL1       -0.2670
      2  C         19.9830  -23.0920   -9.8290 C.2     1  UNL1        0.2590
      3  N         20.6760  -22.0170  -10.3480 N.am    1  UNL1       -0.3230
      4  H         20.1380  -21.1810  -10.5460 H       1  UNL1        0.1690
      5  C         22.0570  -21.9180  -10.6210 C.2     1  UNL1        0.0350
      6  C         23.0440  -21.8200   -9.6430 C.2     1  UNL1        0.0290
      7  C         24.3890  -21.7290  -10.0070 C.2     1  UNL1        0.0030
      8  C         24.7590  -21.7320  -11.3540 C.2     1  UNL1        0.0150
      9  C         23.7870  -21.8260  -12.3560 C.2     1  UNL1        0.0120
     10  C         22.4390  -21.9200  -11.9700 C.2     1  UNL1        0.0440
     11  C         24.1170  -21.8340  -13.7880 C.ar    1  UNL1        0.1390
     12  N         24.3150  -20.7630  -14.5390 N.ar    1  UNL1       -0.2280
     13  C         24.5990  -21.2230  -15.8000 C.ar    1  UNL1        0.0860
     14  C         24.8850  -20.5130  -16.9740 C.2     1  UNL1        0.0340
     15  C         24.5810  -22.6110  -15.8350 C.ar    1  UNL1        0.0620
     16  C         25.1450  -21.2320  -18.1480 C.2     1  UNL1        0.0020
     17  C         25.1210  -22.6290  -18.1520 C.2     1  UNL1        0.0020
     18  C         24.8370  -23.3550  -16.9880 C.2     1  UNL1        0.0320
     19  N         24.2770  -22.9720  -14.5480 N.ar    1  UNL1       -0.3380
     20  H         24.1910  -23.9190  -14.2150 H       1  UNL1        0.1670
     21  C         18.5040  -22.9060   -9.6360 C.2     1  UNL1        0.0660
     22  C         17.7800  -22.3780  -10.7210 C.2     1  UNL1        0.0200
     23  C         16.4020  -22.1650  -10.6330 C.2     1  UNL1        0.0010
     24  C         15.7230  -22.4740   -9.4580 C.2     1  UNL1        0.0030
     25  C         16.4200  -23.0030   -8.3740 C.2     1  UNL1        0.0380
     26  C         17.8000  -23.2390   -8.4680 C.2     1  UNL1        0.0910
     27  O         18.4570  -23.7360   -7.3650 O.2     1  UNL1       -0.3100
     28  C         18.3620  -23.0180   -6.1910 C.2     1  UNL1        0.0760
     29  C         18.9740  -21.7630   -6.1920 C.2     1  UNL1        0.0370
     30  C         18.9600  -20.9780   -5.0390 C.2     1  UNL1        0.0030
     31  C         18.3450  -21.4530   -3.8810 C.2     1  UNL1        0.0000
     32  C         17.7520  -22.7150   -3.8720 C.2     1  UNL1        0.0030
     33  C         17.7650  -23.5040   -5.0250 C.2     1  UNL1        0.0370
@<TRIPOS>BOND
     1    17    16    2
     2    17    18    1
     3    16    14    1
     4    18    15    2
     5    14    13    2
     6    15    13   ar
     7    15    19   ar
     8    13    12   ar
     9    19    20    1
    10    19    11   ar
    11    12    11   ar
    12    11     9    1
    13     9    10    1
    14     9     8    2
    15    10     5    2
    16     8     7    1
    17    22    23    1
    18    22    21    2
    19    23    24    2
    20     5     3    1
    21     5     6    1
    22     4     3    1
    23     3     2   am
    24     7     6    2
    25     2    21    1
    26     2     1    2
    27    21    26    1
    28    24    25    1
    29    26    25    2
    30    26    27    1
    31    27    28    1
    32    29    28    2
    33    29    30    1
    34    28    33    1
    35    30    31    2
    36    33    32    2
    37    31    32    1
