@<TRIPOS>MOLECULE
4333_out_ligand_01.pdbqt
 30 33 0 0 0
SMALL
GASTEIGER

@<TRIPOS>ATOM
      1  N         25.2200  -25.0370  -13.9930 N.1     1  UNL1       -0.1910
      2  C         25.5270  -23.9200  -14.0590 C.1     1  UNL1        0.1020
      3  C         25.8480  -22.5270  -14.1220 C.2     1  UNL1        0.0790
      4  C         27.0640  -22.0120  -14.6680 C.2     1  UNL1        0.0330
      5  C         27.1080  -20.6370  -14.6120 C.2     1  UNL1        0.0530
      6  S         25.6930  -19.9870  -13.9110 S.3     1  UNL1       -0.0830
      7  C         25.0100  -21.5280  -13.6610 C.2     1  UNL1        0.0970
      8  N         23.7560  -21.6870  -13.0800 N.am    1  UNL1       -0.3160
      9  C         23.4750  -21.7590  -11.7270 C.2     1  UNL1        0.2560
     10  O         24.2640  -21.7640  -10.7920 O.2     1  UNL1       -0.2670
     11  H         22.9860  -21.8380  -13.7220 H       1  UNL1        0.1690
     12  C         22.0240  -21.8850  -11.4030 C.2     1  UNL1        0.0320
     13  C         21.6280  -22.8870  -10.5060 C.2     1  UNL1        0.0180
     14  C         20.2810  -23.0390  -10.1710 C.2     1  UNL1        0.0260
     15  C         19.3340  -22.1630  -10.7110 C.2     1  UNL1        0.0790
     16  C         19.7190  -21.1640  -11.6130 C.2     1  UNL1        0.0260
     17  C         21.0680  -21.0170  -11.9500 C.2     1  UNL1        0.0180
     18  S         17.6070  -22.3720  -10.3120 S.O2    1  UNL1        0.2610
     19  O         17.2250  -23.6990  -10.7440 O.2     1  UNL1       -0.2000
     20  O         16.9180  -21.1980  -10.8040 O.2     1  UNL1       -0.2000
     21  N         17.5810  -22.3340   -8.6210 N.3     1  UNL1       -0.3020
     22  C         18.6720  -23.0260   -7.9010 C.3     1  UNL1        0.1400
     23  C         18.8140  -22.4190   -6.5050 C.3     1  UNL1        0.0600
     24  C         17.5060  -22.4310   -5.7570 C.2     1  UNL1       -0.0490
     25  C         17.4960  -22.3680   -4.3580 C.2     1  UNL1        0.0080
     26  C         16.2900  -22.4470   -6.4650 C.2     1  UNL1       -0.0330
     27  C         16.2880  -22.3500   -3.6620 C.2     1  UNL1        0.0010
     28  C         15.0820  -22.3840   -4.3570 C.2     1  UNL1        0.0010
     29  C         15.0820  -22.4320   -5.7520 C.2     1  UNL1        0.0090
     30  C         16.2580  -22.5140   -7.9790 C.3     1  UNL1        0.1740
@<TRIPOS>BOND
     1     4     5    2
     2     4     3    1
     3     5     6    1
     4     3     2    1
     5     3     7    2
     6     2     1    3
     7     6     7    1
     8    11     8    1
     9     7     8    1
    10     8     9   am
    11    17    16    1
    12    17    12    2
    13     9    12    1
    14     9    10    2
    15    16    15    2
    16    12    13    1
    17    20    18    2
    18    19    18    2
    19    15    18    1
    20    15    14    1
    21    13    14    2
    22    18    21    1
    23    21    30    1
    24    21    22    1
    25    30    26    1
    26    22    23    1
    27    23    24    1
    28    26    24    2
    29    26    29    1
    30    24    25    1
    31    29    28    2
    32    25    27    2
    33    28    27    1
