@<TRIPOS>MOLECULE
43351_out_ligand_01.pdbqt
 32 35 0 0 0
SMALL
GASTEIGER

@<TRIPOS>ATOM
      1  C         19.2530  -22.1070  -10.3930 C.2     1  UNL1        0.0720
      2  C         20.6000  -22.4070  -10.1300 C.2     1  UNL1        0.0450
      3  C         21.6070  -21.9150  -10.9690 C.2     1  UNL1        0.0800
      4  C         21.2840  -21.1610  -12.1020 C.2     1  UNL1        0.0280
      5  C         19.9480  -20.8710  -12.3720 C.2     1  UNL1        0.0450
      6  C         18.9460  -21.3390  -11.5200 C.2     1  UNL1        0.1320
      7  F         17.6760  -21.0300  -11.8200 F       1  UNL1       -0.2050
      8  S         23.3100  -22.3280  -10.6320 S.O2    1  UNL1        0.2610
      9  O         23.9380  -21.1340  -10.1100 O.2     1  UNL1       -0.2000
     10  O         23.3030  -23.5620   -9.8750 O.2     1  UNL1       -0.2000
     11  N         23.9510  -22.6550  -12.1630 N.3     1  UNL1       -0.3020
     12  C         25.1080  -23.5730  -12.2470 C.3     1  UNL1        0.1400
     13  C         25.1650  -24.1820  -13.6480 C.3     1  UNL1        0.0600
     14  C         25.1750  -23.1160  -14.7140 C.2     1  UNL1       -0.0490
     15  C         25.6910  -23.4000  -15.9860 C.2     1  UNL1        0.0080
     16  C         24.6150  -21.8530  -14.4540 C.2     1  UNL1       -0.0330
     17  C         25.6760  -22.4290  -16.9860 C.2     1  UNL1        0.0010
     18  C         25.1380  -21.1700  -16.7270 C.2     1  UNL1        0.0010
     19  C         24.6090  -20.8830  -15.4690 C.2     1  UNL1        0.0090
     20  C         24.0460  -21.5070  -13.0920 C.3     1  UNL1        0.1740
     21  C         18.2180  -22.6110   -9.4390 C.2     1  UNL1        0.2590
     22  N         18.4170  -22.3220   -8.1020 N.am    1  UNL1       -0.3230
     23  H         19.2550  -21.8060   -7.8590 H       1  UNL1        0.1690
     24  O         17.2790  -23.2440   -9.9100 O.2     1  UNL1       -0.2670
     25  C         17.5950  -22.6720   -7.0090 C.2     1  UNL1        0.0350
     26  C         18.1260  -23.5660   -6.0750 C.2     1  UNL1        0.0300
     27  C         17.3800  -23.9640   -4.9630 C.2     1  UNL1        0.0090
     28  C         16.0840  -23.4760   -4.7580 C.2     1  UNL1       -0.0560
     29  C         15.3070  -23.9240   -3.5510 C.3     1  UNL1        0.0490
     30  C         15.5380  -22.5760   -5.6920 C.2     1  UNL1       -0.0540
     31  C         16.3020  -22.1830   -6.8080 C.2     1  UNL1        0.0370
     32  C         14.1510  -22.0160   -5.5220 C.3     1  UNL1        0.0490
@<TRIPOS>BOND
     1    17    18    2
     2    17    15    1
     3    18    19    1
     4    15    14    2
     5    19    16    2
     6    14    16    1
     7    14    13    1
     8    16    20    1
     9    13    12    1
    10    20    11    1
    11     5     4    2
    12     5     6    1
    13    12    11    1
    14    11     8    1
    15     4     3    1
    16     7     6    1
    17     6     1    2
    18     3     8    1
    19     3     2    2
    20     8     9    2
    21     8    10    2
    22     1     2    1
    23     1    21    1
    24    24    21    2
    25    21    22   am
    26    22    23    1
    27    22    25    1
    28    25    31    2
    29    25    26    1
    30    31    30    1
    31    26    27    2
    32    30    32    1
    33    30    28    2
    34    27    28    1
    35    28    29    1
