@<TRIPOS>MOLECULE
43360_out_ligand_01.pdbqt
 32 35 0 0 0
SMALL
GASTEIGER

@<TRIPOS>ATOM
      1  C         27.1210  -23.5250  -12.1520 C.3     1  UNL1        0.1630
      2  N         25.9360  -22.8880  -12.6960 N.ar    1  UNL1       -0.2860
      3  C         25.8500  -22.5840  -14.0500 C.ar    1  UNL1        0.3300
      4  O         26.7360  -22.8260  -14.8690 O.2     1  UNL1       -0.2460
      5  N         24.6900  -21.9690  -14.4840 N.ar    1  UNL1       -0.2730
      6  C         23.6060  -21.5960  -13.7220 C.ar    1  UNL1        0.2800
      7  O         22.6350  -21.0190  -14.1980 O.2     1  UNL1       -0.2650
      8  C         23.7590  -21.9460  -12.3520 C.ar    1  UNL1        0.1660
      9  C         24.8790  -22.5580  -11.8740 C.ar    1  UNL1        0.1860
     10  N         24.8050  -22.7760  -10.5380 N.ar    1  UNL1       -0.0420
     11  C         23.6340  -22.2860  -10.1640 C.ar    1  UNL1        0.7250
     12  N         22.9480  -21.7880  -11.2600 N.ar    1  UNL1       -0.1700
     13  H         24.6520  -21.7460  -15.4660 H       1  UNL1        0.1730
     14  N         23.1020  -22.2390   -8.9090 N.pl3   1  UNL1       -0.1070
     15  H         23.7550  -22.2120   -8.1300 H       1  UNL1        0.2080
     16  N         21.9080  -22.8090   -8.5440 N.2     1  UNL1       -0.1720
     17  C         21.1820  -22.1290   -7.7140 C.2     1  UNL1        0.1500
     18  C         19.8580  -22.6040   -7.2660 C.2     1  UNL1       -0.0170
     19  C         19.0520  -21.7430   -6.5150 C.2     1  UNL1        0.0140
     20  C         17.7960  -22.1730   -6.0800 C.2     1  UNL1        0.0240
     21  C         17.3520  -23.4570   -6.3980 C.2     1  UNL1        0.0340
     22 CL         15.8050  -23.9830   -5.8600 Cl      1  UNL1       -0.0840
     23  C         18.1530  -24.3180   -7.1490 C.2     1  UNL1        0.0240
     24  C         19.4100  -23.8910   -7.5850 C.2     1  UNL1        0.0140
     25  C         21.6130  -21.2200  -11.2780 C.3     1  UNL1        0.1530
     26  C         20.5890  -22.1880  -11.8660 C.3     1  UNL1        0.0590
     27  C         19.2070  -21.9220  -11.3250 C.2     1  UNL1       -0.0570
     28  C         18.6100  -20.6690  -11.5120 C.2     1  UNL1        0.0070
     29  C         17.3210  -20.4230  -11.0340 C.2     1  UNL1        0.0010
     30  C         16.6210  -21.4260  -10.3680 C.2     1  UNL1        0.0000
     31  C         17.2070  -22.6770  -10.1790 C.2     1  UNL1        0.0010
     32  C         18.4950  -22.9250  -10.6560 C.2     1  UNL1        0.0070
@<TRIPOS>BOND
     1    13     5    1
     2     4     3    2
     3     5     3   ar
     4     5     6   ar
     5     7     6    2
     6     3     2   ar
     7     6     8   ar
     8     2     1    1
     9     2     9   ar
    10     8     9   ar
    11     8    12   ar
    12     9    10   ar
    13    26    27    1
    14    26    25    1
    15    28    27    2
    16    28    29    1
    17    27    32    1
    18    25    12    1
    19    12    11   ar
    20    29    30    2
    21    32    31    2
    22    10    11   ar
    23    30    31    1
    24    11    14    1
    25    14    16    1
    26    14    15    1
    27    16    17    2
    28    17    18    1
    29    24    18    2
    30    24    23    1
    31    18    19    1
    32    23    21    2
    33    19    20    2
    34    21    20    1
    35    21    22    1
