@<TRIPOS>MOLECULE
43385_out_ligand_01.pdbqt
 36 40 0 0 0
SMALL
GASTEIGER

@<TRIPOS>ATOM
      1  C         21.8130  -22.4790  -10.4910 C.2     1  UNL1        0.0320
      2  C         20.6080  -21.8110  -10.7650 C.2     1  UNL1        0.0180
      3  C         19.4500  -22.1200  -10.0480 C.2     1  UNL1        0.0260
      4  C         19.4990  -23.1050   -9.0580 C.2     1  UNL1        0.0750
      5  C         20.7000  -23.7570   -8.7540 C.2     1  UNL1        0.0260
      6  C         21.8570  -23.4390   -9.4680 C.2     1  UNL1        0.0180
      7  C         23.0230  -22.1230  -11.2910 C.2     1  UNL1        0.2560
      8  N         22.8330  -22.1080  -12.6600 N.am    1  UNL1       -0.3160
      9  H         21.8970  -21.9850  -13.0230 H       1  UNL1        0.1690
     10  O         24.0450  -21.7830  -10.7040 O.2     1  UNL1       -0.2670
     11  C         23.8570  -21.8730  -13.5510 C.ar    1  UNL1        0.0930
     12  C         25.1260  -22.4080  -13.7330 C.ar    1  UNL1        0.0730
     13  C         25.7910  -21.6720  -14.7570 C.ar    1  UNL1       -0.0260
     14  C         24.9940  -20.7200  -15.3310 C.ar    1  UNL1       -0.0080
     15  C         27.1180  -21.7260  -15.4250 C.3     1  UNL1        0.0410
     16  S         23.4550  -20.6490  -14.6910 S.2     1  UNL1       -0.0750
     17  C         25.6340  -19.9820  -16.4440 C.3     1  UNL1        0.0470
     18  C         26.8730  -20.8880  -16.7200 C.3     1  UNL1        0.0100
     19  C         25.6520  -23.5830  -13.0510 C.2     1  UNL1        0.2540
     20  N         26.5340  -23.2790  -12.0330 N.am    1  UNL1       -0.3610
     21  C         26.9690  -24.3170  -11.1360 C.3     1  UNL1        0.1490
     22  H         26.4730  -22.3380  -11.6700 H       1  UNL1        0.1620
     23  O         25.3580  -24.7260  -13.3850 O.2     1  UNL1       -0.2680
     24  S         18.0320  -23.5230   -8.1300 S.O2    1  UNL1        0.2480
     25  O         16.9490  -23.4980   -9.0900 O.2     1  UNL1       -0.2050
     26  O         18.3230  -24.7180   -7.3630 O.2     1  UNL1       -0.2050
     27  N         17.9130  -22.1830   -7.0150 N.pl3   1  UNL1       -0.1720
     28  C         19.2650  -21.7630   -6.5190 C.3     1  UNL1        0.1140
     29  C         19.1750  -20.8480   -5.3130 C.3     1  UNL1        0.0200
     30  C         18.4790  -21.5910   -4.1880 C.3     1  UNL1        0.0420
     31  C         17.1220  -22.0450   -4.6470 C.2     1  UNL1       -0.0360
     32  C         16.1060  -22.1880   -3.6860 C.2     1  UNL1        0.0090
     33  C         16.8640  -22.3270   -6.0020 C.2     1  UNL1        0.0310
     34  C         14.8150  -22.5400   -4.0690 C.2     1  UNL1        0.0010
     35  C         14.5300  -22.7330   -5.4140 C.2     1  UNL1        0.0020
     36  C         15.5430  -22.6120   -6.3700 C.2     1  UNL1        0.0250
@<TRIPOS>BOND
     1    18    17    1
     2    18    15    1
     3    17    14    1
     4    15    13    1
     5    14    13   ar
     6    14    16   ar
     7    13    12   ar
     8    16    11   ar
     9    12    11   ar
    10    12    19    1
    11    11     8    1
    12    23    19    2
    13    19    20   am
    14     9     8    1
    15     8     7   am
    16    20    22    1
    17    20    21    1
    18     7    10    2
    19     7     1    1
    20     2     1    2
    21     2     3    1
    22     1     6    1
    23     3     4    2
    24     6     5    2
    25    25    24    2
    26     4     5    1
    27     4    24    1
    28    24    26    2
    29    24    27    1
    30    27    28    1
    31    27    33    1
    32    28    29    1
    33    36    33    1
    34    36    35    2
    35    33    31    2
    36    35    34    1
    37    29    30    1
    38    31    30    1
    39    31    32    1
    40    34    32    2
