@<TRIPOS>MOLECULE
43424_out_ligand_01.pdbqt
 42 46 0 0 0
SMALL
GASTEIGER

@<TRIPOS>ATOM
      1  N         20.7720  -22.3430   -8.6940 N.am    1  UNL1       -0.3160
      2  C         20.8790  -21.8630  -10.0010 C.2     1  UNL1        0.2560
      3  O         19.8810  -21.4310  -10.6200 O.2     1  UNL1       -0.2670
      4  H         21.6860  -22.6460   -8.2310 H       1  UNL1        0.1690
      5  C         19.5980  -22.4810   -7.8960 C.ar    1  UNL1        0.0930
      6  S         18.2010  -23.4000   -8.4340 S.2     1  UNL1       -0.0730
      7  C         17.1860  -23.1510   -7.1110 C.ar    1  UNL1        0.0300
      8  C         17.9250  -22.3640   -6.2690 C.ar    1  UNL1       -0.0210
      9  C         15.7730  -23.5880   -6.7570 C.3     1  UNL1        0.1850
     10  C         17.1610  -22.0540   -4.9830 C.3     1  UNL1        0.0810
     11  C         19.1820  -22.0170   -6.6970 C.ar    1  UNL1        0.0730
     12  C         16.6150  -23.4130   -4.5170 C.3     1  UNL1        0.1550
     13  C         17.7230  -24.4090   -4.3390 C.3     1  UNL1        0.0490
     14  C         15.9960  -23.1670   -3.1560 C.3     1  UNL1        0.0490
     15  N         15.6110  -23.9140   -5.3870 N.3     1  UNL1        0.1060
     16  H         14.6380  -23.6680   -5.0430 H       1  UNL1        0.3180
     17  C         15.4570  -24.7850   -7.6270 C.3     1  UNL1        0.0540
     18  C         14.8410  -22.4530   -7.1090 C.3     1  UNL1        0.0540
     19  C         19.9190  -20.9220   -5.9770 C.2     1  UNL1        0.2520
     20  N         19.2890  -20.0360   -5.0640 N.am    1  UNL1       -0.3660
     21  H         18.9530  -19.0770   -5.3690 H       1  UNL1        0.1590
     22  H         19.1430  -20.2930   -4.0670 H       1  UNL1        0.1590
     23  O         21.1400  -20.7160   -6.1320 O.2     1  UNL1       -0.2680
     24  C         22.1800  -21.8430  -10.7190 C.2     1  UNL1        0.0320
     25  C         23.3900  -21.8300  -10.0990 C.2     1  UNL1        0.0180
     26  C         24.5780  -21.8040  -10.8440 C.2     1  UNL1        0.0260
     27  C         24.5440  -21.7900  -12.2140 C.2     1  UNL1        0.0800
     28  C         23.3350  -21.8020  -12.8480 C.2     1  UNL1        0.0260
     29  C         22.1460  -21.8280  -12.1050 C.2     1  UNL1        0.0180
     30  S         26.0590  -21.7580  -13.1160 S.O2    1  UNL1        0.2650
     31  O         26.5190  -23.1770  -13.4010 O.2     1  UNL1       -0.2000
     32  O         27.1210  -21.1080  -12.2820 O.2     1  UNL1       -0.2000
     33  N         25.8630  -20.9370  -14.5980 N.pl3   1  UNL1       -0.2710
     34  C         26.0710  -19.4860  -14.6620 C.3     1  UNL1        0.1420
     35  C         26.2290  -19.0390  -16.0970 C.3     1  UNL1        0.0260
     36  C         26.9260  -20.0950  -16.9480 C.3     1  UNL1        0.0420
     37  C         25.9870  -21.2680  -16.9840 C.2     1  UNL1       -0.0310
     38  C         25.6640  -21.9050  -18.1500 C.2     1  UNL1        0.0090
     39  C         25.4820  -21.6440  -15.7560 C.2     1  UNL1        0.0510
     40  C         24.7890  -22.9730  -18.0880 C.2     1  UNL1        0.0010
     41  C         24.2730  -23.3600  -16.8590 C.2     1  UNL1        0.0020
     42  C         24.6060  -22.7140  -15.6950 C.2     1  UNL1        0.0310
@<TRIPOS>BOND
     1    38    40    1
     2    38    37    2
     3    40    41    2
     4    37    36    1
     5    37    39    1
     6    36    35    1
     7    41    42    1
     8    35    34    1
     9    39    42    2
    10    39    33    1
    11    34    33    1
    12    33    30    1
    13    31    30    2
    14    30    32    2
    15    30    27    1
    16    28    27    2
    17    28    29    1
    18    27    26    1
    19    29    24    2
    20    26    25    2
    21    24    25    1
    22    24     2    1
    23     3     2    2
    24     2     1   am
    25     1     4    1
    26     1     5    1
    27     6     5   ar
    28     6     7   ar
    29     5    11   ar
    30    17     9    1
    31     7     9    1
    32     7     8   ar
    33    18     9    1
    34     9    15    1
    35    11     8   ar
    36    11    19    1
    37     8    10    1
    38    23    19    2
    39    19    20   am
    40    15    16    1
    41    15    12    1
    42    21    20    1
    43    20    22    1
    44    10    12    1
    45    12    13    1
    46    12    14    1
