@<TRIPOS>MOLECULE
43442_out_ligand_01.pdbqt
 38 42 0 0 0
SMALL
GASTEIGER

@<TRIPOS>ATOM
      1  C         19.8770  -22.3890  -10.2980 C.2     1  UNL1        0.0320
      2  C         18.5180  -22.0490  -10.3850 C.2     1  UNL1        0.0180
      3  C         17.5890  -22.6480   -9.5300 C.2     1  UNL1        0.0260
      4  C         18.0220  -23.5830   -8.5830 C.2     1  UNL1        0.0750
      5  C         19.3760  -23.9100   -8.4670 C.2     1  UNL1        0.0260
      6  C         20.3000  -23.3110   -9.3270 C.2     1  UNL1        0.0180
      7  C         20.9080  -21.7710  -11.1870 C.2     1  UNL1        0.2560
      8  N         22.0710  -22.4990  -11.3350 N.am    1  UNL1       -0.3160
      9  H         22.3140  -23.1880  -10.6360 H       1  UNL1        0.1690
     10  O         20.7010  -20.6510  -11.6420 O.2     1  UNL1       -0.2670
     11  C         23.0880  -22.1370  -12.1910 C.ar    1  UNL1        0.0930
     12  C         24.4200  -21.8100  -12.0370 C.ar    1  UNL1        0.0670
     13  C         25.0510  -21.5870  -13.3270 C.ar    1  UNL1       -0.0270
     14  C         24.1420  -21.7170  -14.3650 C.ar    1  UNL1       -0.0080
     15  C         26.4940  -21.2130  -13.5350 C.3     1  UNL1        0.0410
     16  S         22.5660  -22.0520  -13.8050 S.2     1  UNL1       -0.0750
     17  C         24.4030  -21.5590  -15.8340 C.3     1  UNL1        0.0460
     18  C         24.9490  -20.1730  -16.1760 C.3     1  UNL1        0.0050
     19  C         26.4110  -19.9580  -15.7790 C.3     1  UNL1        0.0010
     20  C         26.6730  -19.8830  -14.2720 C.3     1  UNL1        0.0050
     21  C         25.0690  -21.6310  -10.7460 C.2     1  UNL1        0.2320
     22  N         25.0990  -22.7530   -9.9650 N.am    1  UNL1       -0.2680
     23  H         24.3430  -23.4110  -10.1110 H       1  UNL1        0.1270
     24  H         25.2970  -22.5430   -8.9960 H       1  UNL1        0.1270
     25  O         25.5570  -20.5700  -10.3760 O.2     1  UNL1       -0.2740
     26  S         16.8210  -24.3180   -7.4840 S.O2    1  UNL1        0.2480
     27  O         15.7540  -24.8590   -8.3010 O.2     1  UNL1       -0.2050
     28  O         17.5820  -25.1650   -6.5920 O.2     1  UNL1       -0.2050
     29  N         16.1980  -22.9190   -6.6440 N.pl3   1  UNL1       -0.1720
     30  C         14.8340  -23.1810   -6.0740 C.3     1  UNL1        0.1140
     31  C         14.4500  -22.1750   -5.0050 C.3     1  UNL1        0.0200
     32  C         15.4680  -22.2420   -3.8820 C.3     1  UNL1        0.0420
     33  C         16.8330  -21.9430   -4.4340 C.2     1  UNL1       -0.0360
     34  C         17.7800  -21.3290   -3.5970 C.2     1  UNL1        0.0090
     35  C         17.1670  -22.2680   -5.7620 C.2     1  UNL1        0.0310
     36  C         19.0330  -20.9740   -4.0870 C.2     1  UNL1        0.0010
     37  C         19.3420  -21.2150   -5.4200 C.2     1  UNL1        0.0020
     38  C         18.4100  -21.8440   -6.2510 C.2     1  UNL1        0.0250
@<TRIPOS>BOND
     1    18    17    1
     2    18    19    1
     3    17    14    1
     4    19    20    1
     5    14    16   ar
     6    14    13   ar
     7    20    15    1
     8    16    11   ar
     9    15    13    1
    10    13    12   ar
    11    11    12   ar
    12    11     8    1
    13    12    21    1
    14    10     7    2
    15     8     7   am
    16     8     9    1
    17     7     1    1
    18    21    25    2
    19    21    22   am
    20     2     1    2
    21     2     3    1
    22     1     6    1
    23    23    22    1
    24    22    24    1
    25     3     4    2
    26     6     5    2
    27     4     5    1
    28     4    26    1
    29    27    26    2
    30    26    29    1
    31    26    28    2
    32    29    30    1
    33    29    35    1
    34    38    35    1
    35    38    37    2
    36    30    31    1
    37    35    33    2
    38    37    36    1
    39    31    32    1
    40    33    32    1
    41    33    34    1
    42    36    34    2
