@<TRIPOS>MOLECULE
43449_out_ligand_01.pdbqt
 35 38 0 0 0
SMALL
GASTEIGER

@<TRIPOS>ATOM
      1  C         18.2160  -22.4160   -5.4110 C.2     1  UNL1        0.1730
      2  N         17.8330  -21.4300   -4.6230 N.2     1  UNL1       -0.2350
      3  C         18.7340  -20.4260   -4.8330 C.2     1  UNL1        0.1370
      4  C         19.6830  -20.8080   -5.7450 C.2     1  UNL1        0.1180
      5  N         19.3230  -22.0730   -6.1830 N.pl3   1  UNL1       -0.3000
      6  C         19.9860  -22.7750   -7.2340 C.2     1  UNL1        0.0420
      7  C         19.5360  -24.0530   -7.6080 C.2     1  UNL1        0.0300
      8  C         20.2000  -24.7740   -8.6040 C.2     1  UNL1        0.0030
      9  C         21.3280  -24.2340   -9.2250 C.2     1  UNL1        0.0170
     10  C         21.7900  -22.9650   -8.8600 C.2     1  UNL1        0.0340
     11  C         21.1210  -22.2430   -7.8590 C.2     1  UNL1        0.0470
     12  C         23.0190  -22.3670   -9.4570 C.2     1  UNL1        0.2520
     13  O         23.3780  -21.2400   -9.1330 O.2     1  UNL1       -0.2680
     14  N         23.6940  -23.1370  -10.3800 N.am    1  UNL1       -0.3520
     15  H         23.2270  -23.9230  -10.8050 H       1  UNL1        0.1630
     16  C         24.8320  -22.5960  -11.0850 C.3     1  UNL1        0.1690
     17  C         24.3340  -21.9470  -12.3370 C.2     1  UNL1        0.0000
     18  C         23.0300  -21.8340  -12.7780 C.2     1  UNL1        0.0170
     19  C         22.9330  -21.1350  -14.0170 C.2     1  UNL1        0.0080
     20  C         24.1690  -20.7380  -14.4810 C.2     1  UNL1        0.0500
     21  S         25.4320  -21.2090  -13.4300 S.3     1  UNL1       -0.1050
     22  S         17.5260  -24.0140   -5.3280 S.3     1  UNL1       -0.0820
     23  C         15.8480  -23.7470   -5.9600 C.3     1  UNL1        0.1850
     24  C         15.8010  -23.9670   -7.4620 C.2     1  UNL1        0.2270
     25  O         15.7370  -25.0880   -7.9660 O.2     1  UNL1       -0.2730
     26  N         15.8610  -22.8050   -8.2040 N.am    1  UNL1       -0.3560
     27  H         15.6180  -21.9540   -7.6980 H       1  UNL1        0.1620
     28  C         15.6310  -22.8060   -9.6290 C.3     1  UNL1        0.1610
     29  C         16.8040  -22.2040  -10.3670 C.2     1  UNL1       -0.0400
     30  C         16.7470  -20.8760  -10.8200 C.2     1  UNL1        0.0120
     31  C         17.8380  -20.3050  -11.4770 C.2     1  UNL1        0.0430
     32  C         18.9920  -21.0580  -11.6730 C.2     1  UNL1        0.1160
     33  F         20.0430  -20.5100  -12.3040 F       1  UNL1       -0.2060
     34  C         19.0770  -22.3680  -11.2200 C.2     1  UNL1        0.0430
     35  C         17.9840  -22.9430  -10.5640 C.2     1  UNL1        0.0120
@<TRIPOS>BOND
     1    20    19    2
     2    20    21    1
     3    19    18    1
     4    21    17    1
     5    18    17    2
     6    17    16    1
     7    33    32    1
     8    32    31    2
     9    32    34    1
    10    31    30    1
    11    34    35    2
    12    16    14    1
    13    30    29    2
    14    15    14    1
    15    35    29    1
    16    14    12   am
    17    29    28    1
    18    28    26    1
    19    12    13    2
    20    12    10    1
    21     9    10    2
    22     9     8    1
    23    10    11    1
    24     8     7    2
    25    26    27    1
    26    26    24   am
    27    25    24    2
    28    11     6    2
    29     7     6    1
    30    24    23    1
    31     6     5    1
    32     5     4    1
    33     5     1    1
    34    23    22    1
    35     4     3    2
    36     1    22    1
    37     1     2    2
    38     3     2    1
