@<TRIPOS>MOLECULE
43441_out_ligand_01.pdbqt
 34 37 0 0 0
SMALL
GASTEIGER

@<TRIPOS>ATOM
      1  C         22.0130  -22.1860  -11.8090 C.ar    1  UNL1        0.1530
      2  N         23.1220  -22.7970  -11.4330 N.ar    1  UNL1       -0.1320
      3  N         22.8600  -23.4970  -10.2930 N.ar    1  UNL1       -0.1220
      4  C         21.6020  -23.2980   -9.9740 C.ar    1  UNL1        0.1960
      5  N         20.9940  -22.4670  -10.9020 N.ar    1  UNL1       -0.2740
      6  C         21.8570  -21.4190  -13.0750 C.3     1  UNL1        0.2040
      7  N         23.1180  -20.7920  -13.4000 N.am    1  UNL1       -0.3490
      8  C         23.7860  -21.1180  -14.5600 C.2     1  UNL1        0.2580
      9  O         23.3540  -22.0080  -15.2920 O.2     1  UNL1       -0.2670
     10  H         23.3610  -19.9550  -12.8850 H       1  UNL1        0.1630
     11  C         24.9850  -20.3340  -14.8290 C.2     1  UNL1        0.0720
     12  C         25.7710  -19.5750  -13.9770 C.2     1  UNL1        0.0250
     13  C         26.8680  -18.9530  -14.6450 C.2     1  UNL1        0.0090
     14  C         26.8930  -19.2590  -15.9870 C.2     1  UNL1        0.0500
     15  S         25.6060  -20.2900  -16.4310 S.3     1  UNL1       -0.0970
     16  C         19.6470  -22.0100  -10.9530 C.2     1  UNL1        0.0440
     17  C         19.3000  -20.9330  -11.7790 C.2     1  UNL1        0.0300
     18  C         17.9760  -20.4920  -11.8360 C.2     1  UNL1        0.0030
     19  C         16.9920  -21.1210  -11.0750 C.2     1  UNL1        0.0160
     20  C         17.3180  -22.2030  -10.2470 C.2     1  UNL1        0.0500
     21  C         18.6540  -22.6400  -10.1890 C.2     1  UNL1        0.0460
     22  C         16.2620  -22.8870   -9.4100 C.3     1  UNL1        0.4170
     23  F         15.9890  -22.2050   -8.2650 F       1  UNL1       -0.1660
     24  F         16.6310  -24.1400   -9.0230 F       1  UNL1       -0.1660
     25  F         15.0710  -23.0320  -10.0550 F       1  UNL1       -0.1660
     26  S         20.8780  -23.8530   -8.4970 S.3     1  UNL1       -0.0850
     27  C         20.7030  -22.2820   -7.5980 C.3     1  UNL1        0.1210
     28  C         19.5250  -22.3230   -6.6540 C.2     1  UNL1       -0.0480
     29  C         18.6690  -23.4350   -6.6310 C.2     1  UNL1        0.0090
     30  C         17.5870  -23.4800   -5.7500 C.2     1  UNL1        0.0190
     31  C         17.3590  -22.4140   -4.8810 C.2     1  UNL1        0.0110
     32 BR         15.8950  -22.4740   -3.6880 Br      1  UNL1       -0.0510
     33  C         18.2030  -21.3050   -4.8870 C.2     1  UNL1        0.0190
     34  C         19.2840  -21.2610   -5.7690 C.2     1  UNL1        0.0090
@<TRIPOS>BOND
     1    15    14    1
     2    15    11    1
     3    14    13    2
     4     9     8    2
     5    11     8    1
     6    11    12    2
     7    13    12    1
     8     8     7   am
     9     7     6    1
    10     7    10    1
    11     6     1    1
    12    18    17    1
    13    18    19    2
    14     1     2   ar
    15     1     5   ar
    16    17    16    2
    17     2     3   ar
    18    19    20    1
    19    16     5    1
    20    16    21    1
    21     5     4   ar
    22     3     4   ar
    23    20    21    2
    24    20    22    1
    25    25    22    1
    26     4    26    1
    27    22    24    1
    28    22    23    1
    29    26    27    1
    30    27    28    1
    31    28    29    2
    32    28    34    1
    33    29    30    1
    34    34    33    2
    35    30    31    2
    36    33    31    1
    37    31    32    1
