@<TRIPOS>MOLECULE
43450_out_ligand_01.pdbqt
 34 37 0 0 0
SMALL
GASTEIGER

@<TRIPOS>ATOM
      1  C         17.1510  -21.4300  -11.0600 C.3     1  UNL1        0.0480
      2  C         18.6440  -21.5120  -11.1980 C.2     1  UNL1       -0.0600
      3  C         19.3000  -20.7770  -12.1880 C.2     1  UNL1        0.0070
      4  C         20.6840  -20.8740  -12.3290 C.2     1  UNL1        0.0140
      5  C         21.4240  -21.7140  -11.4900 C.2     1  UNL1       -0.0080
      6  C         22.8710  -21.8000  -11.6490 C.2     1  UNL1        0.0270
      7  C         23.6160  -22.5880  -10.8570 C.2     1  UNL1        0.0240
      8  C         22.9610  -23.3770   -9.7690 C.2     1  UNL1        0.2560
      9  O         23.6590  -24.0300   -8.9960 O.2     1  UNL1       -0.2670
     10  N         21.5740  -23.3190   -9.6630 N.am    1  UNL1       -0.3040
     11  C         20.7810  -22.4770  -10.5040 C.2     1  UNL1        0.0480
     12  C         19.3880  -22.3670  -10.3700 C.2     1  UNL1        0.0370
     13  C         20.9370  -24.1610   -8.6410 C.3     1  UNL1        0.2350
     14  C         19.9920  -23.4320   -7.6750 C.2     1  UNL1        0.2400
     15  O         20.3630  -22.3940   -7.1290 O.2     1  UNL1       -0.2710
     16  N         18.7440  -24.0140   -7.5560 N.am    1  UNL1       -0.3260
     17  H         18.6060  -24.8650   -8.0900 H       1  UNL1        0.1690
     18  C         17.6530  -23.5860   -6.7760 C.2     1  UNL1        0.0350
     19  C         16.6690  -22.8320   -7.4220 C.2     1  UNL1        0.0300
     20  C         15.5500  -22.3740   -6.7250 C.2     1  UNL1        0.0090
     21  C         15.3860  -22.6620   -5.3630 C.2     1  UNL1       -0.0560
     22  C         14.1780  -22.1310   -4.6410 C.3     1  UNL1        0.0490
     23  C         16.3830  -23.4010   -4.6960 C.2     1  UNL1       -0.0540
     24  C         16.2750  -23.7240   -3.2300 C.3     1  UNL1        0.0490
     25  C         17.5000  -23.8680   -5.4180 C.2     1  UNL1        0.0370
     26  C         25.1150  -22.7610  -10.9270 C.3     1  UNL1        0.1360
     27  N         25.4750  -23.8570  -11.8310 N.pl3   1  UNL1       -0.2890
     28  H         26.2860  -24.3680  -11.4880 H       1  UNL1        0.1280
     29  C         25.6340  -23.5830  -13.1990 C.2     1  UNL1        0.0080
     30  C         26.0240  -22.3390  -13.7080 C.2     1  UNL1        0.0230
     31  C         26.0920  -22.1100  -15.0870 C.2     1  UNL1        0.0020
     32  C         25.7420  -23.1160  -15.9840 C.2     1  UNL1        0.0000
     33  C         25.3090  -24.3450  -15.5000 C.2     1  UNL1        0.0020
     34  C         25.2400  -24.5670  -14.1220 C.2     1  UNL1        0.0230
@<TRIPOS>BOND
     1    32    33    2
     2    32    31    1
     3    33    34    1
     4    31    30    2
     5    34    29    2
     6    30    29    1
     7    29    27    1
     8     4     3    1
     9     4     5    2
    10     3     2    2
    11    27    28    1
    12    27    26    1
    13     6     5    1
    14     6     7    2
    15     5    11    1
    16     2     1    1
    17     2    12    1
    18    26     7    1
    19     7     8    1
    20    11    12    2
    21    11    10    1
    22     8    10   am
    23     8     9    2
    24    10    13    1
    25    13    14    1
    26    17    16    1
    27    14    16   am
    28    14    15    2
    29    16    18    1
    30    19    18    2
    31    19    20    1
    32    18    25    1
    33    20    21    2
    34    25    23    2
    35    21    23    1
    36    21    22    1
    37    23    24    1
