@<TRIPOS>MOLECULE
43467_out_ligand_01.pdbqt
 37 41 0 0 0
SMALL
GASTEIGER

@<TRIPOS>ATOM
      1  C         21.8810  -22.7520   -9.2910 C.2     1  UNL1        0.0320
      2  C         21.9170  -21.7050  -10.2260 C.2     1  UNL1        0.0180
      3  C         23.1210  -21.3590  -10.8450 C.2     1  UNL1        0.0260
      4  C         24.2880  -22.0640  -10.5270 C.2     1  UNL1        0.0800
      5  C         24.2590  -23.1290   -9.6240 C.2     1  UNL1        0.0260
      6  C         23.0520  -23.4730   -9.0090 C.2     1  UNL1        0.0180
      7  C         20.6190  -23.1440   -8.5970 C.2     1  UNL1        0.2560
      8  N         19.9240  -22.1000   -8.0230 N.am    1  UNL1       -0.3160
      9  H         20.4140  -21.2400   -7.8160 H       1  UNL1        0.1690
     10  O         20.3410  -24.3350   -8.4980 O.2     1  UNL1       -0.2670
     11  C         18.7020  -22.2520   -7.4050 C.ar    1  UNL1        0.0930
     12  C         17.4240  -22.5490   -7.8390 C.ar    1  UNL1        0.0730
     13  C         16.5270  -22.6810   -6.7110 C.ar    1  UNL1       -0.0260
     14  C         17.1630  -22.4000   -5.5150 C.ar    1  UNL1       -0.0080
     15  C         15.0530  -22.9760   -6.7630 C.3     1  UNL1        0.0410
     16  S         18.7970  -21.9940   -5.7250 S.2     1  UNL1       -0.0750
     17  C         16.5210  -22.4270   -4.1620 C.3     1  UNL1        0.0470
     18  C         14.9920  -22.3800   -4.2910 C.3     1  UNL1        0.0050
     19  C         14.4880  -23.3370   -5.3800 C.3     1  UNL1        0.0050
     20  C         17.0260  -22.6170   -9.2420 C.2     1  UNL1        0.2540
     21  N         17.6610  -21.6900  -10.0420 N.am    1  UNL1       -0.3610
     22  C         17.2090  -21.4970  -11.3930 C.3     1  UNL1        0.1490
     23  H         18.0230  -20.8830   -9.5510 H       1  UNL1        0.1620
     24  O         16.2190  -23.4450   -9.6530 O.2     1  UNL1       -0.2680
     25  S         25.8170  -21.6010  -11.3230 S.O2    1  UNL1        0.2650
     26  O         26.6790  -22.7610  -11.2140 O.2     1  UNL1       -0.2000
     27  O         26.2210  -20.3170  -10.7880 O.2     1  UNL1       -0.2000
     28  N         25.3350  -21.3690  -12.9510 N.pl3   1  UNL1       -0.2710
     29  C         25.7150  -20.0420  -13.5290 C.3     1  UNL1        0.1420
     30  C         25.6930  -19.9910  -15.0520 C.3     1  UNL1        0.0260
     31  C         24.5860  -20.8630  -15.6150 C.3     1  UNL1        0.0420
     32  C         24.8580  -22.2740  -15.1740 C.2     1  UNL1       -0.0310
     33  C         24.6820  -23.3390  -16.0720 C.2     1  UNL1        0.0090
     34  C         25.3100  -22.5080  -13.8590 C.2     1  UNL1        0.0510
     35  C         24.9750  -24.6410  -15.6790 C.2     1  UNL1        0.0010
     36  C         25.4370  -24.8830  -14.3890 C.2     1  UNL1        0.0020
     37  C         25.5960  -23.8250  -13.4850 C.2     1  UNL1        0.0310
@<TRIPOS>BOND
     1    33    35    1
     2    33    32    2
     3    35    36    2
     4    31    32    1
     5    31    30    1
     6    32    34    1
     7    30    29    1
     8    36    37    1
     9    34    37    2
    10    34    28    1
    11    29    28    1
    12    28    25    1
    13    22    21    1
    14    25    26    2
    15    25    27    2
    16    25     4    1
    17     3     4    2
    18     3     2    1
    19     4     5    1
    20     2     1    2
    21    21    23    1
    22    21    20   am
    23    24    20    2
    24     5     6    2
    25     1     6    1
    26     1     7    1
    27    20    12    1
    28     7    10    2
    29     7     8   am
    30     8     9    1
    31     8    11    1
    32    12    11   ar
    33    12    13   ar
    34    11    16   ar
    35    15    13    1
    36    15    19    1
    37    13    14   ar
    38    16    14   ar
    39    14    17    1
    40    19    18    1
    41    18    17    1
