@<TRIPOS>MOLECULE
43466_out_ligand_01.pdbqt
 39 44 0 0 0
SMALL
GASTEIGER

@<TRIPOS>ATOM
      1  C         21.8850  -21.9620  -11.8240 C.ar    1  UNL1        0.1530
      2  N         23.0170  -22.5720  -11.5090 N.ar    1  UNL1       -0.1320
      3  N         22.7900  -23.3770  -10.4280 N.ar    1  UNL1       -0.1220
      4  C         21.5180  -23.2780  -10.1170 C.ar    1  UNL1        0.1960
      5  N         20.8750  -22.3870  -10.9630 N.ar    1  UNL1       -0.2740
      6  C         21.6970  -21.0840  -13.0150 C.3     1  UNL1        0.2030
      7  N         22.5970  -21.5250  -14.0600 N.am    1  UNL1       -0.3530
      8  C         23.8080  -20.9220  -14.2950 C.2     1  UNL1        0.2260
      9  O         24.1640  -19.9190  -13.6790 O.2     1  UNL1       -0.2730
     10  H         22.3360  -22.3680  -14.5620 H       1  UNL1        0.1620
     11  C         24.6810  -21.5960  -15.3660 C.3     1  UNL1        0.0420
     12  C         24.0280  -22.9030  -15.8750 C.3     1  UNL1        0.0240
     13  C         24.9110  -23.5620  -16.9510 C.3     1  UNL1       -0.0130
     14  C         25.0790  -22.5930  -18.1330 C.3     1  UNL1        0.0090
     15  C         26.2950  -23.8740  -16.3530 C.3     1  UNL1        0.0090
     16  C         25.7420  -21.2920  -17.6570 C.3     1  UNL1       -0.0130
     17  C         27.1210  -21.6150  -17.0590 C.3     1  UNL1        0.0090
     18  C         24.8610  -20.6420  -16.5770 C.3     1  UNL1        0.0240
     19  C         26.9670  -22.5770  -15.8710 C.3     1  UNL1       -0.0130
     20  C         26.0840  -21.9200  -14.7950 C.3     1  UNL1        0.0240
     21  C         19.5170  -21.9730  -10.9390 C.2     1  UNL1        0.0440
     22  C         19.1130  -20.8450  -11.6610 C.2     1  UNL1        0.0300
     23  C         17.7750  -20.4520  -11.6490 C.2     1  UNL1        0.0030
     24  C         16.8360  -21.1810  -10.9210 C.2     1  UNL1        0.0160
     25  C         17.2230  -22.3150  -10.1930 C.2     1  UNL1        0.0500
     26  C         18.5710  -22.7110  -10.2150 C.2     1  UNL1        0.0460
     27  C         16.1920  -23.1190   -9.4380 C.3     1  UNL1        0.4170
     28  F         15.1090  -23.4410  -10.1970 F       1  UNL1       -0.1660
     29  F         15.7100  -22.4490   -8.3570 F       1  UNL1       -0.1660
     30  F         16.6840  -24.2980   -8.9660 F       1  UNL1       -0.1660
     31  S         20.8280  -23.9740   -8.6850 S.3     1  UNL1       -0.0850
     32  C         20.7650  -22.4730   -7.6530 C.3     1  UNL1        0.1210
     33  C         19.5470  -22.4580   -6.7610 C.2     1  UNL1       -0.0480
     34  C         18.6810  -23.5630   -6.7210 C.2     1  UNL1        0.0090
     35  C         17.5610  -23.5520   -5.8880 C.2     1  UNL1        0.0190
     36  C         17.2960  -22.4350   -5.0970 C.2     1  UNL1        0.0110
     37 BR         15.7820  -22.4220   -3.9620 Br      1  UNL1       -0.0510
     38  C         18.1410  -21.3270   -5.1290 C.2     1  UNL1        0.0190
     39  C         19.2620  -21.3380   -5.9600 C.2     1  UNL1        0.0090
@<TRIPOS>BOND
     1    14    16    1
     2    14    13    1
     3    16    17    1
     4    16    18    1
     5    17    19    1
     6    13    15    1
     7    13    12    1
     8    18    11    1
     9    15    19    1
    10    12    11    1
    11    19    20    1
    12    11    20    1
    13    11     8    1
    14    10     7    1
    15     8     7   am
    16     8     9    2
    17     7     6    1
    18     6     1    1
    19     1     2   ar
    20     1     5   ar
    21    22    23    1
    22    22    21    2
    23    23    24    2
    24     2     3   ar
    25     5    21    1
    26     5     4   ar
    27    21    26    1
    28    24    25    1
    29     3     4   ar
    30    26    25    2
    31    28    27    1
    32    25    27    1
    33     4    31    1
    34    27    30    1
    35    27    29    1
    36    31    32    1
    37    32    33    1
    38    33    34    2
    39    33    39    1
    40    34    35    1
    41    39    38    2
    42    35    36    2
    43    38    36    1
    44    36    37    1
