@<TRIPOS>MOLECULE
43469_out_ligand_01.pdbqt
 39 43 0 0 0
SMALL
GASTEIGER

@<TRIPOS>ATOM
      1  C         18.7650  -21.1080  -11.5250 C.ar    1  UNL1        0.1960
      2  N         17.6100  -20.7100  -12.0100 N.ar    1  UNL1       -0.1220
      3  N         16.6290  -21.3920  -11.3560 N.ar    1  UNL1       -0.1320
      4  C         17.1930  -22.2240  -10.5000 C.ar    1  UNL1        0.1530
      5  N         18.5820  -22.1020  -10.5780 N.ar    1  UNL1       -0.2740
      6  C         16.4410  -23.2330   -9.7110 C.3     1  UNL1        0.2040
      7  N         16.5530  -22.9090   -8.3090 N.am    1  UNL1       -0.3500
      8  C         16.4650  -23.8700   -7.3290 C.2     1  UNL1        0.2520
      9  O         16.2920  -25.0660   -7.5300 O.2     1  UNL1       -0.2680
     10  H         16.7360  -21.9480   -8.0470 H       1  UNL1        0.1630
     11  C         16.5260  -23.3420   -5.9510 C.2     1  UNL1        0.0430
     12  C         15.5120  -23.7670   -5.0830 C.2     1  UNL1        0.0180
     13  C         15.4520  -23.2510   -3.7940 C.2     1  UNL1        0.0020
     14  C         16.4020  -22.3180   -3.3750 C.2     1  UNL1        0.0120
     15  C         17.4400  -21.9020   -4.2270 C.2     1  UNL1       -0.0250
     16  C         18.3990  -20.9790   -3.7810 C.2     1  UNL1        0.0120
     17  C         17.5240  -22.4230   -5.5410 C.2     1  UNL1       -0.0100
     18  C         19.4460  -20.5770   -4.6080 C.2     1  UNL1        0.0010
     19  C         19.5520  -21.0930   -5.8930 C.2     1  UNL1        0.0010
     20  C         18.6020  -22.0070   -6.3560 C.2     1  UNL1        0.0130
     21  C         19.5730  -22.8310   -9.8710 C.2     1  UNL1        0.0440
     22  C         19.4700  -24.2190   -9.7270 C.2     1  UNL1        0.0300
     23  C         20.4630  -24.9230   -9.0380 C.2     1  UNL1        0.0040
     24  C         21.5540  -24.2520   -8.4880 C.2     1  UNL1        0.0240
     25  C         21.6540  -22.8710   -8.6290 C.2     1  UNL1        0.0360
     26 CL         23.0130  -22.0350   -7.9780 Cl      1  UNL1       -0.0840
     27  C         20.6690  -22.1560   -9.3140 C.2     1  UNL1        0.0540
     28  S         20.2710  -20.3110  -11.8580 S.3     1  UNL1       -0.0800
     29  C         21.2690  -21.6850  -12.4920 C.3     1  UNL1        0.1850
     30  C         22.3830  -21.1880  -13.4020 C.2     1  UNL1        0.2330
     31  N         23.5510  -21.9040  -13.2590 N.am    1  UNL1       -0.3040
     32  H         23.5560  -22.7800  -12.7420 H       1  UNL1        0.1710
     33  O         22.1980  -20.2410  -14.1590 O.2     1  UNL1       -0.2720
     34  C         24.6890  -21.6100  -13.9560 C.ar    1  UNL1        0.1960
     35  N         25.7320  -20.8890  -13.6260 N.ar    1  UNL1       -0.1230
     36  N         26.6870  -20.8790  -14.6300 N.ar    1  UNL1       -0.1450
     37  C         26.3110  -21.5850  -15.6760 C.ar    1  UNL1        0.0970
     38  C         27.1210  -21.7810  -16.9050 C.3     1  UNL1        0.0810
     39  S         24.7700  -22.3290  -15.5000 S.2     1  UNL1       -0.0340
@<TRIPOS>BOND
     1    38    37    1
     2    37    39   ar
     3    37    36   ar
     4    39    34   ar
     5    36    35   ar
     6    33    30    2
     7    34    35   ar
     8    34    31    1
     9    30    31   am
    10    30    29    1
    11    31    32    1
    12    29    28    1
    13     2     1   ar
    14     2     3   ar
    15    28     1    1
    16     1     5   ar
    17     3     4   ar
    18     5     4   ar
    19     5    21    1
    20     4     6    1
    21    21    22    2
    22    21    27    1
    23    22    23    1
    24     6     7    1
    25    27    25    2
    26    23    24    2
    27    25    24    1
    28    25    26    1
    29     7    10    1
    30     7     8   am
    31     9     8    2
    32     8    11    1
    33    20    19    2
    34    20    17    1
    35    11    17    2
    36    11    12    1
    37    19    18    1
    38    17    15    1
    39    12    13    2
    40    18    16    2
    41    15    16    1
    42    15    14    2
    43    13    14    1
