@<TRIPOS>MOLECULE
43475_out_ligand_01.pdbqt
 33 35 0 0 0
SMALL
GASTEIGER

@<TRIPOS>ATOM
      1  C         22.9500  -23.0740  -10.8150 C.2     1  UNL1        0.0220
      2  C         21.8870  -22.4030  -11.4220 C.2     1  UNL1        0.0250
      3  C         20.6890  -22.2170  -10.7270 C.2     1  UNL1        0.0190
      4  C         20.5640  -22.6890   -9.4150 C.2     1  UNL1        0.0320
      5  C         21.6330  -23.3660   -8.8120 C.2     1  UNL1        0.0190
      6  C         22.8310  -23.5460   -9.5070 C.2     1  UNL1        0.0250
      7  C         19.3080  -22.5090   -8.6370 C.2     1  UNL1        0.2560
      8  O         18.2850  -22.2280   -9.2490 O.2     1  UNL1       -0.2670
      9  N         19.4350  -22.7200   -7.2760 N.am    1  UNL1       -0.3230
     10  H         20.3230  -23.0800   -6.9500 H       1  UNL1        0.1690
     11  C         18.4330  -22.5850   -6.2920 C.2     1  UNL1        0.0350
     12  C         18.7180  -21.7560   -5.2000 C.2     1  UNL1        0.0290
     13  C         17.7770  -21.5610   -4.1880 C.2     1  UNL1        0.0030
     14  C         16.5390  -22.1950   -4.2560 C.2     1  UNL1        0.0160
     15  C         16.2330  -23.0320   -5.3380 C.2     1  UNL1        0.0500
     16  C         17.1890  -23.2160   -6.3550 C.2     1  UNL1        0.0450
     17  C         14.8890  -23.7130   -5.4390 C.3     1  UNL1        0.4170
     18  F         14.6200  -24.4930   -4.3550 F       1  UNL1       -0.1660
     19  F         13.8530  -22.8360   -5.5410 F       1  UNL1       -0.1660
     20  F         14.7830  -24.5340   -6.5220 F       1  UNL1       -0.1660
     21  N         24.1910  -23.2050  -11.5200 N.pl3   1  UNL1       -0.1810
     22  H         24.6520  -24.0860  -11.2800 H       1  UNL1        0.1460
     23  S         25.3190  -21.9650  -11.1570 S.O2    1  UNL1        0.2460
     24  O         24.7020  -20.9720  -10.3050 O.2     1  UNL1       -0.2060
     25  O         26.5280  -22.6690  -10.7830 O.2     1  UNL1       -0.2060
     26  C         25.5650  -21.2000  -12.7520 C.2     1  UNL1        0.0810
     27  C         26.2620  -19.9870  -12.8940 C.2     1  UNL1       -0.0390
     28  C         26.4640  -19.4890  -14.1920 C.2     1  UNL1        0.0090
     29  C         26.8140  -19.2040  -11.7360 C.3     1  UNL1        0.0500
     30  C         25.9590  -20.1580  -15.3110 C.2     1  UNL1        0.0070
     31  C         25.2270  -21.3380  -15.1620 C.2     1  UNL1       -0.0600
     32  C         24.7000  -22.0630  -16.3650 C.3     1  UNL1        0.0480
     33  C         25.0440  -21.8620  -13.8780 C.2     1  UNL1        0.0320
@<TRIPOS>BOND
     1    32    31    1
     2    30    31    2
     3    30    28    1
     4    31    33    1
     5    28    27    2
     6    33    26    2
     7    27    26    1
     8    27    29    1
     9    26    23    1
    10    21    22    1
    11    21    23    1
    12    21     1    1
    13     2     1    2
    14     2     3    1
    15    23    25    2
    16    23    24    2
    17     1     6    1
    18     3     4    2
    19     6     5    2
    20     4     5    1
    21     4     7    1
    22     8     7    2
    23     7     9   am
    24     9    10    1
    25     9    11    1
    26    20    17    1
    27    16    11    2
    28    16    15    1
    29    11    12    1
    30    19    17    1
    31    17    15    1
    32    17    18    1
    33    15    14    2
    34    12    13    2
    35    14    13    1
