@<TRIPOS>MOLECULE
43477_out_ligand_01.pdbqt
 38 41 0 0 0
SMALL
GASTEIGER

@<TRIPOS>ATOM
      1  C         18.4760  -21.0800  -11.4400 C.ar    1  UNL1        0.1960
      2  N         17.2610  -20.6860  -11.7480 N.ar    1  UNL1       -0.1220
      3  N         16.3910  -21.3530  -10.9450 N.ar    1  UNL1       -0.1320
      4  C         17.0820  -22.1670  -10.1580 C.ar    1  UNL1        0.1530
      5  N         18.4410  -22.0420  -10.4380 N.ar    1  UNL1       -0.2740
      6  S         19.8990  -20.2930  -12.0430 S.3     1  UNL1       -0.0800
      7  C         20.6930  -21.6840  -12.9010 C.3     1  UNL1        0.1850
      8  C         22.1960  -21.4880  -13.0230 C.2     1  UNL1        0.2310
      9  N         22.9140  -22.0870  -12.0040 N.am    1  UNL1       -0.3270
     10  H         22.3750  -22.3980  -11.1920 H       1  UNL1        0.1690
     11  O         22.6700  -20.8670  -13.9730 O.2     1  UNL1       -0.2720
     12  C         24.3140  -22.2160  -11.8950 C.2     1  UNL1        0.0350
     13  C         25.0970  -21.4700  -11.0120 C.2     1  UNL1        0.0290
     14  C         26.4850  -21.6260  -10.9960 C.2     1  UNL1        0.0030
     15  C         27.1010  -22.5370  -11.8540 C.2     1  UNL1        0.0070
     16  C         26.3330  -23.3070  -12.7310 C.2     1  UNL1       -0.0600
     17  C         26.9780  -24.2910  -13.6620 C.3     1  UNL1        0.0480
     18  C         24.9400  -23.1290  -12.7550 C.2     1  UNL1        0.0360
     19  C         19.5220  -22.7320   -9.8220 C.2     1  UNL1        0.0430
     20  C         19.5110  -24.1320   -9.7520 C.2     1  UNL1        0.0300
     21  C         20.5610  -24.8090   -9.1320 C.2     1  UNL1        0.0030
     22  C         21.6260  -24.0990   -8.5840 C.2     1  UNL1        0.0070
     23  C         21.6600  -22.7000   -8.6590 C.2     1  UNL1       -0.0600
     24  C         22.7990  -21.9320   -8.0520 C.3     1  UNL1        0.0480
     25  C         20.5970  -22.0200   -9.2700 C.2     1  UNL1        0.0370
     26  C         16.4840  -23.1250   -9.1850 C.3     1  UNL1        0.2040
     27  N         16.6470  -22.6060   -7.8450 N.am    1  UNL1       -0.3500
     28  C         17.2010  -23.3910   -6.8630 C.2     1  UNL1        0.2560
     29  O         17.4890  -24.5710   -7.0270 O.2     1  UNL1       -0.2670
     30  H         16.5900  -21.5890   -7.7250 H       1  UNL1        0.1630
     31  C         17.4350  -22.7340   -5.5630 C.2     1  UNL1        0.0920
     32  C         18.5220  -21.8610   -5.4670 C.2     1  UNL1        0.1330
     33  F         19.3530  -21.6740   -6.5020 F       1  UNL1       -0.2050
     34  C         18.8100  -21.2040   -4.2730 C.2     1  UNL1        0.0430
     35  C         18.0070  -21.4150   -3.1530 C.2     1  UNL1        0.0050
     36  C         16.9150  -22.2830   -3.2360 C.2     1  UNL1        0.0250
     37  C         16.6240  -22.9400   -4.4390 C.2     1  UNL1        0.0520
     38 CL         15.2400  -23.9780   -4.4570 Cl      1  UNL1       -0.0830
@<TRIPOS>BOND
     1    11     8    2
     2    17    16    1
     3     8     7    1
     4     8     9   am
     5     7     6    1
     6    18    16    1
     7    18    12    2
     8    16    15    2
     9     6     1    1
    10     9    12    1
    11     9    10    1
    12    12    13    1
    13    15    14    1
    14     2     1   ar
    15     2     3   ar
    16     1     5   ar
    17    13    14    2
    18     3     4   ar
    19     5     4   ar
    20     5    19    1
    21     4    26    1
    22    19    20    2
    23    19    25    1
    24    20    21    1
    25    25    23    2
    26    26    27    1
    27    21    22    2
    28    23    22    1
    29    23    24    1
    30    27    30    1
    31    27    28   am
    32    29    28    2
    33    28    31    1
    34    33    32    1
    35    31    32    2
    36    31    37    1
    37    32    34    1
    38    38    37    1
    39    37    36    2
    40    34    35    2
    41    36    35    1
