@<TRIPOS>MOLECULE
43491_out_ligand_01.pdbqt
 36 41 0 0 0
SMALL
GASTEIGER

@<TRIPOS>ATOM
      1  C         21.6760  -21.8240  -12.2160 C.2     1  UNL1        0.0320
      2  C         22.1420  -22.7530  -11.2730 C.2     1  UNL1        0.0180
      3  C         21.2930  -23.2310  -10.2700 C.2     1  UNL1        0.0260
      4  C         19.9760  -22.7740  -10.2170 C.2     1  UNL1        0.0750
      5  C         19.4910  -21.8670  -11.1650 C.2     1  UNL1        0.0260
      6  C         20.3410  -21.3940  -12.1680 C.2     1  UNL1        0.0180
      7  C         22.6250  -21.3510  -13.2680 C.2     1  UNL1        0.2570
      8  O         22.3910  -20.2790  -13.8110 O.2     1  UNL1       -0.2670
      9  N         23.6710  -22.2140  -13.5390 N.am    1  UNL1       -0.3070
     10  H         23.6540  -23.1320  -13.1160 H       1  UNL1        0.1700
     11  C         24.6270  -21.9990  -14.5280 C.3     1  UNL1        0.1400
     12  C         24.7000  -22.3860  -15.8420 C.2     1  UNL1        0.0140
     13  C         26.0000  -22.1010  -16.2480 C.2     1  UNL1        0.0650
     14  C         23.9520  -23.0870  -16.9050 C.3     1  UNL1        0.0450
     15  N         26.7500  -21.5380  -15.3170 N.pl3   1  UNL1       -0.1700
     16  C         26.3060  -22.5580  -17.6150 C.3     1  UNL1        0.0620
     17  N         25.8520  -21.3220  -14.2970 N.pl3   1  UNL1       -0.2170
     18  C         24.8770  -22.8870  -18.1530 C.3     1  UNL1        0.0110
     19  C         26.2290  -20.4890  -13.2030 C.2     1  UNL1        0.0600
     20  C         26.0470  -20.8980  -11.8740 C.2     1  UNL1        0.0310
     21  C         26.4250  -20.0580  -10.8240 C.2     1  UNL1        0.0020
     22  C         26.9690  -18.8030  -11.0910 C.2     1  UNL1        0.0000
     23  C         27.1210  -18.3760  -12.4080 C.2     1  UNL1        0.0020
     24  C         26.7430  -19.2090  -13.4620 C.2     1  UNL1        0.0310
     25  S         18.8640  -23.3810   -8.9600 S.O2    1  UNL1        0.2480
     26  O         19.4810  -24.5410   -8.3490 O.2     1  UNL1       -0.2050
     27  O         17.5600  -23.4650   -9.5820 O.2     1  UNL1       -0.2050
     28  N         18.8910  -22.0990   -7.8360 N.pl3   1  UNL1       -0.1710
     29  C         20.2320  -21.7740   -7.2400 C.3     1  UNL1        0.1180
     30  C         19.9540  -21.1790   -5.8510 C.3     1  UNL1        0.0560
     31  C         18.5680  -21.6610   -5.5760 C.2     1  UNL1       -0.0350
     32  C         17.8660  -21.5750   -4.3830 C.2     1  UNL1        0.0090
     33  C         17.9820  -22.1860   -6.7280 C.2     1  UNL1        0.0310
     34  C         16.5430  -22.0170   -4.3620 C.2     1  UNL1        0.0010
     35  C         15.9390  -22.5110   -5.5280 C.2     1  UNL1        0.0020
     36  C         16.6550  -22.5810   -6.7260 C.2     1  UNL1        0.0250
@<TRIPOS>BOND
     1    18    16    1
     2    18    14    1
     3    16    13    1
     4    14    12    1
     5    13    12    2
     6    13    15    1
     7    12    11    1
     8    15    17    1
     9    11    17    1
    10    11     9    1
    11    17    19    1
    12     8     7    2
    13     9     7   am
    14     9    10    1
    15    24    19    2
    16    24    23    1
    17     7     1    1
    18    19    20    1
    19    23    22    2
    20     1     6    2
    21     1     2    1
    22     6     5    1
    23    20    21    2
    24     2     3    2
    25     5     4    2
    26    22    21    1
    27     3     4    1
    28     4    25    1
    29    27    25    2
    30    25    26    2
    31    25    28    1
    32    28    29    1
    33    28    33    1
    34    29    30    1
    35    33    36    1
    36    33    31    2
    37    36    35    2
    38    30    31    1
    39    31    32    1
    40    35    34    1
    41    32    34    2
