@<TRIPOS>MOLECULE
43506_out_ligand_01.pdbqt
 36 40 0 0 0
SMALL
GASTEIGER

@<TRIPOS>ATOM
      1  C         22.9050  -23.2690   -9.7320 C.2     1  UNL1        0.2580
      2  O         23.9830  -23.4060   -9.1660 O.2     1  UNL1       -0.2670
      3  N         22.7090  -23.0370  -11.0710 N.am    1  UNL1       -0.2850
      4  H         21.7950  -23.0690  -11.4940 H       1  UNL1        0.1720
      5  C         21.6570  -23.4000   -8.9230 C.2     1  UNL1        0.0320
      6  C         20.8830  -24.5710   -8.9340 C.2     1  UNL1        0.0180
      7  C         19.7120  -24.6420   -8.1750 C.2     1  UNL1        0.0260
      8  C         19.3190  -23.5470   -7.3980 C.2     1  UNL1        0.0790
      9  C         20.0640  -22.3650   -7.4080 C.2     1  UNL1        0.0260
     10  C         21.2340  -22.2950   -8.1700 C.2     1  UNL1        0.0180
     11  S         17.7950  -23.6200   -6.4720 S.O2    1  UNL1        0.2600
     12  O         17.4010  -25.0100   -6.3980 O.2     1  UNL1       -0.2000
     13  O         17.9900  -22.8370   -5.2700 O.2     1  UNL1       -0.2000
     14  N         16.6960  -22.8010   -7.4710 N.3     1  UNL1       -0.3050
     15  C         15.5110  -22.2150   -6.8120 C.3     1  UNL1        0.1630
     16  C         16.3990  -23.4460   -8.7690 C.3     1  UNL1        0.1990
     17  C         17.0020  -22.6520   -9.8750 C.2     1  UNL1        0.0710
     18  C         18.0600  -22.8740  -10.7330 C.2     1  UNL1        0.0360
     19  C         18.1360  -21.7400  -11.5760 C.2     1  UNL1        0.0270
     20  C         17.1230  -20.8990  -11.1780 C.2     1  UNL1        0.1420
     21  O         16.4280  -21.4430  -10.1460 O.2     1  UNL1       -0.3250
     22  C         23.7370  -22.8590  -11.9520 C.ar    1  UNL1        0.2740
     23  N         24.7760  -23.6530  -12.1000 N.ar    1  UNL1       -0.1030
     24  N         25.5430  -23.1040  -13.1080 N.ar    1  UNL1       -0.1190
     25  C         24.9110  -22.0150  -13.5050 C.ar    1  UNL1        0.2040
     26  O         23.7530  -21.8020  -12.8090 O.2     1  UNL1       -0.2550
     27  C         25.2530  -21.0570  -14.5480 C.2     1  UNL1        0.0220
     28  C         24.9430  -21.3460  -15.8880 C.2     1  UNL1        0.0190
     29  C         25.2580  -20.4450  -16.9090 C.2     1  UNL1        0.0400
     30  C         25.8900  -19.2440  -16.6010 C.2     1  UNL1        0.1020
     31  C         26.1840  -18.9320  -15.2710 C.2     1  UNL1        0.1030
     32  O         26.1850  -18.4150  -17.6520 O.2     1  UNL1       -0.3460
     33  C         25.8810  -19.8360  -14.2530 C.2     1  UNL1        0.0550
     34  O         26.7760  -17.7540  -14.8900 O.2     1  UNL1       -0.3460
     35  C         26.7220  -16.7800  -15.9380 C.3     1  UNL1        0.2020
     36  C         27.1210  -17.4000  -17.2680 C.3     1  UNL1        0.2020
@<TRIPOS>BOND
     1    32    36    1
     2    32    30    1
     3    36    35    1
     4    29    30    2
     5    29    28    1
     6    30    31    1
     7    35    34    1
     8    28    27    2
     9    31    34    1
    10    31    33    2
    11    27    33    1
    12    27    25    1
    13    25    24   ar
    14    25    26   ar
    15    24    23   ar
    16    26    22   ar
    17    23    22   ar
    18    22     3    1
    19    19    20    2
    20    19    18    1
    21     4     3    1
    22    20    21    1
    23     3     1   am
    24    18    17    2
    25    21    17    1
    26    17    16    1
    27     1     2    2
    28     1     5    1
    29     6     5    2
    30     6     7    1
    31     5    10    1
    32    16    14    1
    33     7     8    2
    34    10     9    2
    35    14    15    1
    36    14    11    1
    37     9     8    1
    38     8    11    1
    39    11    12    2
    40    11    13    2
