@<TRIPOS>MOLECULE
43516_out_ligand_01.pdbqt
 41 45 0 0 0
SMALL
GASTEIGER

@<TRIPOS>ATOM
      1  C         18.6160  -20.9300  -11.3420 C.ar    1  UNL1        0.1960
      2  N         17.4500  -20.5800  -11.8330 N.ar    1  UNL1       -0.1220
      3  N         16.5170  -21.4400  -11.3430 N.ar    1  UNL1       -0.1320
      4  C         17.1170  -22.3010  -10.5380 C.ar    1  UNL1        0.1530
      5  N         18.4840  -22.0470  -10.5290 N.ar    1  UNL1       -0.2740
      6  C         16.3750  -23.3260   -9.7510 C.3     1  UNL1        0.2040
      7  N         15.9820  -22.9250   -8.4130 N.am    1  UNL1       -0.3500
      8  C         16.0900  -23.8010   -7.3490 C.2     1  UNL1        0.2520
      9  O         16.1770  -25.0160   -7.4670 O.2     1  UNL1       -0.2680
     10  H         16.1420  -21.9510   -8.1860 H       1  UNL1        0.1630
     11  C         16.2160  -23.1730   -6.0070 C.2     1  UNL1        0.0430
     12  C         15.1760  -23.4640   -5.1110 C.2     1  UNL1        0.0180
     13  C         15.2340  -23.0050   -3.8000 C.2     1  UNL1        0.0020
     14  C         16.3290  -22.2520   -3.3810 C.2     1  UNL1        0.0120
     15  C         17.3690  -21.9260   -4.2680 C.2     1  UNL1       -0.0250
     16  C         18.4550  -21.1490   -3.8230 C.2     1  UNL1        0.0120
     17  C         17.3200  -22.3700   -5.6140 C.2     1  UNL1       -0.0100
     18  C         19.4850  -20.7910   -4.6910 C.2     1  UNL1        0.0010
     19  C         19.4380  -21.1900   -6.0190 C.2     1  UNL1        0.0010
     20  C         18.3660  -21.9610   -6.4740 C.2     1  UNL1        0.0130
     21  C         19.5140  -22.8010   -9.9030 C.2     1  UNL1        0.0440
     22  C         19.3040  -24.1480   -9.5830 C.2     1  UNL1        0.0300
     23  C         20.3040  -24.8780   -8.9400 C.2     1  UNL1        0.0030
     24  C         21.5160  -24.2720   -8.6160 C.2     1  UNL1        0.0160
     25  C         21.7520  -22.9280   -8.9460 C.2     1  UNL1        0.0500
     26  C         20.7360  -22.1930   -9.5840 C.2     1  UNL1        0.0460
     27  C         23.0740  -22.2860   -8.6010 C.3     1  UNL1        0.4170
     28  F         23.4660  -21.3710   -9.5300 F       1  UNL1       -0.1660
     29  F         23.0480  -21.6210   -7.4130 F       1  UNL1       -0.1660
     30  F         24.0860  -23.1890   -8.5070 F       1  UNL1       -0.1660
     31  S         20.1130  -20.2120  -11.8510 S.3     1  UNL1       -0.0800
     32  C         20.8460  -21.5650  -12.8140 C.3     1  UNL1        0.1850
     33  C         22.2600  -21.2180  -13.2510 C.2     1  UNL1        0.2330
     34  O         22.4440  -20.3360  -14.0860 O.2     1  UNL1       -0.2720
     35  N         23.2250  -21.9690  -12.6160 N.am    1  UNL1       -0.3050
     36  H         22.9470  -22.7890  -12.0810 H       1  UNL1        0.1710
     37  C         24.5850  -21.8530  -12.7520 C.2     1  UNL1        0.1720
     38  N         25.2640  -20.9560  -12.0750 N.2     1  UNL1       -0.2360
     39  C         26.6020  -21.0390  -12.4040 C.2     1  UNL1        0.1260
     40  C         26.9230  -21.9970  -13.3410 C.2     1  UNL1        0.0720
     41  S         25.4980  -22.8120  -13.8290 S.3     1  UNL1       -0.0620
@<TRIPOS>BOND
     1    34    33    2
     2    41    40    1
     3    41    37    1
     4    40    39    2
     5    33    32    1
     6    33    35   am
     7    32    31    1
     8    37    35    1
     9    37    38    2
    10    35    36    1
    11    39    38    1
    12    31     1    1
    13     2     3   ar
    14     2     1   ar
    15     3     4   ar
    16     1     5   ar
    17     4     5   ar
    18     4     6    1
    19     5    21    1
    20    21    26    2
    21    21    22    1
    22     6     7    1
    23    26    25    1
    24    22    23    2
    25    28    27    1
    26    25    24    2
    27    25    27    1
    28    23    24    1
    29    27    30    1
    30    27    29    1
    31     7    10    1
    32     7     8   am
    33     9     8    2
    34     8    11    1
    35    20    19    2
    36    20    17    1
    37    19    18    1
    38    11    17    2
    39    11    12    1
    40    17    15    1
    41    12    13    2
    42    18    16    2
    43    15    16    1
    44    15    14    2
    45    13    14    1
