@<TRIPOS>MOLECULE
43522_out_ligand_01.pdbqt
 36 40 0 0 0
SMALL
GASTEIGER

@<TRIPOS>ATOM
      1  C         21.6120  -23.1650   -9.9630 C.2     1  UNL1        0.0320
      2  C         22.7690  -23.5580   -9.2750 C.2     1  UNL1        0.0180
      3  C         24.0190  -23.0800   -9.6790 C.2     1  UNL1        0.0260
      4  C         24.1050  -22.1920  -10.7580 C.2     1  UNL1        0.0790
      5  C         22.9570  -21.8040  -11.4550 C.2     1  UNL1        0.0260
      6  C         21.7100  -22.2790  -11.0450 C.2     1  UNL1        0.0180
      7  C         20.2590  -23.6460   -9.5640 C.2     1  UNL1        0.2560
      8  O         20.1300  -24.8280   -9.2720 O.2     1  UNL1       -0.2670
      9  N         19.2820  -22.6730   -9.5390 N.am    1  UNL1       -0.3210
     10  H         19.5600  -21.7110   -9.7020 H       1  UNL1        0.1690
     11  C         17.9140  -22.8250   -9.2190 C.2     1  UNL1        0.0690
     12  C         16.8750  -22.6620  -10.1360 C.2     1  UNL1        0.0320
     13  C         15.5450  -22.8360   -9.7330 C.2     1  UNL1        0.0020
     14  C         15.2410  -23.1750   -8.4150 C.2     1  UNL1        0.0030
     15  C         16.2680  -23.3360   -7.4880 C.2     1  UNL1        0.0390
     16  C         17.5920  -23.1430   -7.8880 C.2     1  UNL1        0.1020
     17  O         18.6200  -23.3320   -6.9870 O.2     1  UNL1       -0.3090
     18  C         18.5260  -22.6810   -5.7740 C.2     1  UNL1        0.0760
     19  C         19.0110  -21.3720   -5.7480 C.2     1  UNL1        0.0370
     20  C         18.9320  -20.6180   -4.5770 C.2     1  UNL1        0.0030
     21  C         18.3570  -21.1680   -3.4330 C.2     1  UNL1        0.0000
     22  C         17.8560  -22.4690   -3.4600 C.2     1  UNL1        0.0030
     23  C         17.9340  -23.2270   -4.6310 C.2     1  UNL1        0.0370
     24  S         25.7030  -21.6130  -11.3030 S.O2    1  UNL1        0.2610
     25  O         26.6270  -22.7160  -11.1510 O.2     1  UNL1       -0.2000
     26  O         25.9420  -20.3430  -10.6500 O.2     1  UNL1       -0.2000
     27  N         25.4820  -21.3240  -12.9550 N.3     1  UNL1       -0.3020
     28  C         26.2160  -20.1900  -13.5590 C.3     1  UNL1        0.1400
     29  C         25.4860  -19.7370  -14.8230 C.3     1  UNL1        0.0600
     30  C         25.2650  -20.8830  -15.7780 C.2     1  UNL1       -0.0490
     31  C         25.0500  -20.6300  -17.1390 C.2     1  UNL1        0.0080
     32  C         25.2120  -22.2040  -15.2950 C.2     1  UNL1       -0.0330
     33  C         24.8120  -21.6820  -18.0230 C.2     1  UNL1        0.0010
     34  C         24.7760  -22.9930  -17.5520 C.2     1  UNL1        0.0010
     35  C         24.9750  -23.2530  -16.1970 C.2     1  UNL1        0.0090
     36  C         25.4400  -22.5180  -13.8300 C.3     1  UNL1        0.1740
@<TRIPOS>BOND
     1    33    34    2
     2    33    31    1
     3    34    35    1
     4    31    30    2
     5    35    32    2
     6    30    32    1
     7    30    29    1
     8    32    36    1
     9    29    28    1
    10    36    27    1
    11    28    27    1
    12    27    24    1
    13     5     6    1
    14     5     4    2
    15    24    25    2
    16    24     4    1
    17    24    26    2
    18     6     1    2
    19     4     3    1
    20    12    13    1
    21    12    11    2
    22     1     7    1
    23     1     2    1
    24    13    14    2
    25    10     9    1
    26     3     2    2
    27     7     9   am
    28     7     8    2
    29     9    11    1
    30    11    16    1
    31    14    15    1
    32    16    15    2
    33    16    17    1
    34    17    18    1
    35    18    19    2
    36    18    23    1
    37    19    20    1
    38    23    22    2
    39    20    21    2
    40    22    21    1
