@<TRIPOS>MOLECULE
43556_out_ligand_01.pdbqt
 38 42 0 0 0
SMALL
GASTEIGER

@<TRIPOS>ATOM
      1  C         17.0730  -21.9400  -10.3370 C.ar    1  UNL1        0.1530
      2  N         16.5560  -21.0310  -11.1450 N.ar    1  UNL1       -0.1320
      3  N         17.5770  -20.3480  -11.7410 N.ar    1  UNL1       -0.1220
      4  C         18.7070  -20.8420  -11.2910 C.ar    1  UNL1        0.1960
      5  N         18.4620  -21.8600  -10.3850 N.ar    1  UNL1       -0.2740
      6  C         16.2750  -22.9800   -9.6320 C.3     1  UNL1        0.2040
      7  N         16.3390  -22.7600   -8.2050 N.am    1  UNL1       -0.3500
      8  C         16.3490  -23.8150   -7.3210 C.2     1  UNL1        0.2520
      9  O         16.2410  -24.9850   -7.6610 O.2     1  UNL1       -0.2680
     10  H         16.2570  -21.8240   -7.8340 H       1  UNL1        0.1630
     11  C         16.3990  -23.4420   -5.8820 C.2     1  UNL1        0.0430
     12  C         15.4190  -24.0300   -5.0690 C.2     1  UNL1        0.0180
     13  C         15.3220  -23.6740   -3.7300 C.2     1  UNL1        0.0020
     14  C         16.2020  -22.7330   -3.2000 C.2     1  UNL1        0.0120
     15  C         17.2100  -22.1550   -3.9890 C.2     1  UNL1       -0.0250
     16  C         18.0940  -21.2220   -3.4230 C.2     1  UNL1        0.0120
     17  C         17.3420  -22.5200   -5.3520 C.2     1  UNL1       -0.0100
     18  C         19.1210  -20.6550   -4.1770 C.2     1  UNL1        0.0010
     19  C         19.2900  -21.0270   -5.5020 C.2     1  UNL1        0.0010
     20  C         18.4210  -21.9520   -6.0800 C.2     1  UNL1        0.0130
     21  C         19.3960  -22.6970   -9.7130 C.2     1  UNL1        0.0430
     22  C         20.2530  -22.1560   -8.7450 C.2     1  UNL1        0.0300
     23  C         21.1800  -22.9750   -8.0940 C.2     1  UNL1        0.0020
     24  C         21.2520  -24.3310   -8.4040 C.2     1  UNL1        0.0000
     25  C         20.4000  -24.8740   -9.3660 C.2     1  UNL1        0.0020
     26  C         19.4700  -24.0600  -10.0230 C.2     1  UNL1        0.0300
     27  S         20.2730  -20.1860  -11.6540 S.3     1  UNL1       -0.0850
     28  C         20.8770  -21.4070  -12.8570 C.3     1  UNL1        0.1210
     29  C         22.3100  -21.7870  -12.5720 C.2     1  UNL1       -0.0480
     30  C         22.6360  -22.5140  -11.4160 C.2     1  UNL1        0.0090
     31  C         23.9580  -22.8880  -11.1630 C.2     1  UNL1        0.0170
     32  C         24.9830  -22.5410  -12.0550 C.2     1  UNL1        0.0470
     33  C         24.6550  -21.8190  -13.2140 C.2     1  UNL1        0.0170
     34  C         23.3310  -21.4510  -13.4710 C.2     1  UNL1        0.0090
     35  C         26.4150  -22.9440  -11.7990 C.3     1  UNL1        0.4170
     36  F         26.5160  -24.0710  -11.0380 F       1  UNL1       -0.1660
     37  F         27.1210  -23.2010  -12.9360 F       1  UNL1       -0.1660
     38  F         27.1140  -21.9810  -11.1360 F       1  UNL1       -0.1660
@<TRIPOS>BOND
     1    34    33    1
     2    34    29    2
     3    33    32    2
     4    37    35    1
     5    28    29    1
     6    28    27    1
     7    29    30    1
     8    32    35    1
     9    32    31    1
    10    35    38    1
    11    35    36    1
    12     3     4   ar
    13     3     2   ar
    14    27     4    1
    15    30    31    2
    16     4     5   ar
    17     2     1   ar
    18     5     1   ar
    19     5    21    1
    20     1     6    1
    21    26    21    2
    22    26    25    1
    23    21    22    1
    24     6     7    1
    25    25    24    2
    26    22    23    2
    27    24    23    1
    28     7    10    1
    29     7     8   am
    30     9     8    2
    31     8    11    1
    32    20    19    2
    33    20    17    1
    34    11    17    2
    35    11    12    1
    36    19    18    1
    37    17    15    1
    38    12    13    2
    39    18    16    2
    40    15    16    1
    41    15    14    2
    42    13    14    1
