@<TRIPOS>MOLECULE
43558_out_ligand_01.pdbqt
 31 33 0 0 0
SMALL
GASTEIGER

@<TRIPOS>ATOM
      1  C         20.2860  -22.6930   -7.5100 C.2     1  UNL1        0.0340
      2  C         20.4700  -21.4890   -6.8150 C.2     1  UNL1        0.0200
      3  C         19.5430  -21.0990   -5.8450 C.2     1  UNL1        0.0450
      4  C         18.4350  -21.9010   -5.5740 C.2     1  UNL1        0.1390
      5  F         17.5820  -21.4900   -4.6280 F       1  UNL1       -0.2040
      6  C         18.2460  -23.0920   -6.2640 C.2     1  UNL1        0.1180
      7  C         19.1620  -23.4870   -7.2460 C.2     1  UNL1        0.0450
      8  S         16.8140  -24.0720   -5.9580 S.O2    1  UNL1        0.2610
      9  O         16.5850  -24.0710   -4.5290 O.2     1  UNL1       -0.2000
     10  O         16.8990  -25.3100   -6.6970 O.2     1  UNL1       -0.2000
     11  N         15.5850  -23.1310   -6.5990 N.3     1  UNL1       -0.3150
     12  H         14.6560  -23.5440   -6.5060 H       1  UNL1        0.1720
     13  C         15.8570  -22.2410   -7.7340 C.3     1  UNL1        0.1370
     14  C         15.8790  -23.0240   -9.0480 C.3     1  UNL1        0.0580
     15  C         16.8660  -22.4320  -10.0210 C.2     1  UNL1       -0.0570
     16  C         16.6520  -21.1650  -10.5770 C.2     1  UNL1        0.0070
     17  C         17.5890  -20.6130  -11.4540 C.2     1  UNL1        0.0010
     18  C         18.7440  -21.3220  -11.7810 C.2     1  UNL1        0.0000
     19  C         18.9650  -22.5820  -11.2310 C.2     1  UNL1        0.0010
     20  C         18.0320  -23.1360  -10.3550 C.2     1  UNL1        0.0070
     21  C         21.2400  -23.1380   -8.5650 C.2     1  UNL1        0.2560
     22  O         21.3140  -24.3370   -8.8030 O.2     1  UNL1       -0.2670
     23  N         21.9820  -22.1250   -9.1470 N.am    1  UNL1       -0.3230
     24  H         21.8990  -21.2010   -8.7430 H       1  UNL1        0.1690
     25  C         22.9160  -22.2480  -10.1980 C.2     1  UNL1        0.0360
     26  C         24.1850  -22.8160  -10.0520 C.2     1  UNL1        0.0290
     27  C         25.0530  -22.9130  -11.1450 C.2     1  UNL1        0.0040
     28  C         24.6580  -22.4480  -12.3970 C.2     1  UNL1        0.0240
     29  C         23.3940  -21.8850  -12.5490 C.2     1  UNL1        0.0360
     30 CL         22.8970  -21.3100  -14.0930 Cl      1  UNL1       -0.0840
     31  C         22.5250  -21.7850  -11.4600 C.2     1  UNL1        0.0530
@<TRIPOS>BOND
     1    30    29    1
     2    29    28    2
     3    29    31    1
     4    28    27    1
     5    18    17    2
     6    18    19    1
     7    31    25    2
     8    17    16    1
     9    19    20    2
    10    27    26    2
    11    16    15    2
    12    20    15    1
    13    25    26    1
    14    25    23    1
    15    15    14    1
    16    23    24    1
    17    23    21   am
    18    14    13    1
    19    22    21    2
    20    21     1    1
    21    13    11    1
    22     1     7    2
    23     1     2    1
    24     7     6    1
    25     2     3    2
    26    10     8    2
    27    11    12    1
    28    11     8    1
    29     6     8    1
    30     6     4    2
    31     8     9    2
    32     3     4    1
    33     4     5    1
