@<TRIPOS>MOLECULE
43563_out_ligand_01.pdbqt
 36 39 0 0 0
SMALL
GASTEIGER

@<TRIPOS>ATOM
      1  C         21.1780  -22.9060   -9.4070 C.2     1  UNL1        0.0240
      2  C         21.5150  -22.5670   -8.0990 C.2     1  UNL1        0.0270
      3  C         20.5140  -22.1720   -7.2130 C.2     1  UNL1        0.0400
      4  C         19.1760  -22.1330   -7.6270 C.2     1  UNL1        0.0920
      5  C         18.8360  -22.4590   -8.9360 C.2     1  UNL1        0.0680
      6  C         19.8530  -22.8330   -9.8320 C.2     1  UNL1        0.0440
      7  C         17.4540  -22.4220   -9.4600 C.2     1  UNL1        0.2590
      8  O         17.2700  -22.2530  -10.6670 O.2     1  UNL1       -0.2670
      9  N         16.3750  -22.7070   -8.6660 N.am    1  UNL1       -0.3200
     10  C         16.3070  -22.9410   -7.2880 C.2     1  UNL1        0.0690
     11  C         15.1820  -23.6310   -6.8120 C.2     1  UNL1        0.0390
     12  C         15.0170  -23.8920   -5.4430 C.2     1  UNL1       -0.0600
     13  C         13.8340  -24.6740   -4.9550 C.3     1  UNL1        0.0480
     14  C         15.9950  -23.4540   -4.5450 C.2     1  UNL1        0.0090
     15  C         17.0970  -22.7360   -5.0080 C.2     1  UNL1        0.0400
     16  C         17.2550  -22.4850   -6.3740 C.2     1  UNL1        0.1020
     17  O         18.2860  -21.6480   -6.7100 O.2     1  UNL1       -0.3070
     18  H         15.5370  -22.8680   -9.2130 H       1  UNL1        0.1690
     19  N         22.1950  -23.2560  -10.3560 N.pl3   1  UNL1       -0.1810
     20  H         22.4650  -24.2360  -10.2450 H       1  UNL1        0.1460
     21  S         23.6370  -22.3490  -10.1750 S.O2    1  UNL1        0.2460
     22  O         24.6730  -23.3210   -9.8940 O.2     1  UNL1       -0.2060
     23  O         23.4110  -21.2150   -9.3070 O.2     1  UNL1       -0.2060
     24  C         23.8730  -21.7480  -11.8410 C.2     1  UNL1        0.0810
     25  C         22.7650  -21.7570  -12.6990 C.2     1  UNL1        0.0270
     26  C         22.8870  -21.3170  -14.0200 C.2     1  UNL1        0.0310
     27  C         24.1130  -20.8730  -14.5050 C.2     1  UNL1        0.0350
     28  C         25.2220  -20.8750  -13.6440 C.2     1  UNL1        0.0370
     29  C         25.1230  -21.3020  -12.3040 C.2     1  UNL1       -0.0370
     30  C         26.3660  -21.2940  -11.4600 C.3     1  UNL1        0.0500
     31  N         24.3250  -20.4210  -15.8240 N.am    1  UNL1       -0.3270
     32  C         24.8020  -21.1510  -16.9020 C.2     1  UNL1        0.2210
     33  O         25.1050  -22.3370  -16.9000 O.2     1  UNL1       -0.2730
     34  H         24.0930  -19.4510  -16.0030 H       1  UNL1        0.1690
     35  C         24.9020  -20.2880  -18.1520 C.3     1  UNL1        0.0980
     36  C         25.9000  -19.1550  -18.0000 C.3     1  UNL1        0.0140
@<TRIPOS>BOND
     1    35    36    1
     2    35    32    1
     3    32    33    2
     4    32    31   am
     5    34    31    1
     6    31    27    1
     7    27    26    2
     8    27    28    1
     9    26    25    1
    10    28    29    2
    11    25    24    2
    12    29    24    1
    13    29    30    1
    14    24    21    1
    15     8     7    2
    16    19    20    1
    17    19    21    1
    18    19     1    1
    19    21    22    2
    20    21    23    2
    21     6     1    2
    22     6     5    1
    23     7     5    1
    24     7     9   am
    25     1     2    1
    26    18     9    1
    27     5     4    2
    28     9    10    1
    29     2     3    2
    30     4     3    1
    31     4    17    1
    32    10    11    2
    33    10    16    1
    34    11    12    1
    35    17    16    1
    36    16    15    2
    37    12    13    1
    38    12    14    2
    39    15    14    1
