@<TRIPOS>MOLECULE
43575_out_ligand_01.pdbqt
 38 42 0 0 0
SMALL
GASTEIGER

@<TRIPOS>ATOM
      1  C         19.8820  -22.4090  -10.2300 C.2     1  UNL1        0.0320
      2  C         18.5330  -22.0360  -10.3280 C.2     1  UNL1        0.0180
      3  C         17.5780  -22.6330   -9.4980 C.2     1  UNL1        0.0260
      4  C         17.9780  -23.5940   -8.5640 C.2     1  UNL1        0.0750
      5  C         19.3220  -23.9520   -8.4360 C.2     1  UNL1        0.0260
      6  C         20.2700  -23.3610   -9.2730 C.2     1  UNL1        0.0180
      7  C         20.9390  -21.7910  -11.0840 C.2     1  UNL1        0.2560
      8  N         22.0520  -22.5770  -11.3100 N.am    1  UNL1       -0.3160
      9  H         22.2740  -23.3190  -10.6580 H       1  UNL1        0.1690
     10  O         20.8020  -20.6270  -11.4460 O.2     1  UNL1       -0.2670
     11  C         23.0640  -22.2090  -12.1700 C.ar    1  UNL1        0.0930
     12  C         24.4430  -22.2860  -12.1270 C.ar    1  UNL1        0.0730
     13  C         25.0140  -21.8330  -13.3780 C.ar    1  UNL1       -0.0260
     14  C         24.0420  -21.3650  -14.2430 C.ar    1  UNL1       -0.0080
     15  C         26.4770  -21.7550  -13.7170 C.3     1  UNL1        0.0410
     16  S         22.4780  -21.4690  -13.5870 S.2     1  UNL1       -0.0750
     17  C         24.2880  -20.8080  -15.6130 C.3     1  UNL1        0.0510
     18  C         25.7680  -20.4020  -15.7940 C.3     1  UNL1       -0.0140
     19  C         26.7090  -21.4770  -15.2120 C.3     1  UNL1        0.0090
     20  C         26.0500  -19.0190  -15.1980 C.3     1  UNL1        0.0100
     21  C         25.2060  -22.6780  -10.9450 C.2     1  UNL1        0.2540
     22  N         26.1140  -23.6910  -11.1850 N.am    1  UNL1       -0.3610
     23  C         26.7640  -24.3350  -10.0740 C.3     1  UNL1        0.1490
     24  H         25.9060  -24.2610  -11.9940 H       1  UNL1        0.1620
     25  O         25.0530  -22.1330   -9.8580 O.2     1  UNL1       -0.2680
     26  S         16.7490  -24.3170   -7.4860 S.O2    1  UNL1        0.2480
     27  O         17.4810  -25.1980   -6.6010 O.2     1  UNL1       -0.2050
     28  O         15.6760  -24.8200   -8.3210 O.2     1  UNL1       -0.2050
     29  N         16.1520  -22.9200   -6.6260 N.pl3   1  UNL1       -0.1720
     30  C         14.7980  -23.1780   -6.0300 C.3     1  UNL1        0.1140
     31  C         14.4330  -22.1600   -4.9660 C.3     1  UNL1        0.0200
     32  C         15.4620  -22.2240   -3.8540 C.3     1  UNL1        0.0420
     33  C         16.8260  -21.9530   -4.4210 C.2     1  UNL1       -0.0360
     34  C         17.7940  -21.3560   -3.5940 C.2     1  UNL1        0.0090
     35  C         17.1410  -22.2860   -5.7530 C.2     1  UNL1        0.0310
     36  C         19.0480  -21.0240   -4.0990 C.2     1  UNL1        0.0010
     37  C         19.3360  -21.2680   -5.4350 C.2     1  UNL1        0.0020
     38  C         18.3840  -21.8790   -6.2570 C.2     1  UNL1        0.0250
@<TRIPOS>BOND
     1    18    17    1
     2    18    19    1
     3    18    20    1
     4    17    14    1
     5    19    15    1
     6    14    16   ar
     7    14    13   ar
     8    15    13    1
     9    16    11   ar
    10    13    12   ar
    11    11    12   ar
    12    11     8    1
    13    12    21    1
    14    24    22    1
    15    10     7    2
    16     8     7   am
    17     8     9    1
    18    22    21   am
    19    22    23    1
    20     7     1    1
    21    21    25    2
    22     2     1    2
    23     2     3    1
    24     1     6    1
    25     3     4    2
    26     6     5    2
    27     4     5    1
    28     4    26    1
    29    28    26    2
    30    26    29    1
    31    26    27    2
    32    29    30    1
    33    29    35    1
    34    38    35    1
    35    38    37    2
    36    30    31    1
    37    35    33    2
    38    37    36    1
    39    31    32    1
    40    33    32    1
    41    33    34    1
    42    36    34    2
