@<TRIPOS>MOLECULE
43589_out_ligand_01.pdbqt
 33 36 0 0 0
SMALL
GASTEIGER

@<TRIPOS>ATOM
      1  C         27.1200  -24.5920  -14.2480 C.3     1  UNL1        0.1630
      2  N         26.0460  -23.6280  -14.3840 N.ar    1  UNL1       -0.2860
      3  C         25.7360  -23.0800  -15.6240 C.ar    1  UNL1        0.3300
      4  O         26.3220  -23.3600  -16.6700 O.2     1  UNL1       -0.2460
      5  N         24.6980  -22.1660  -15.6660 N.ar    1  UNL1       -0.2730
      6  C         23.9180  -21.7380  -14.6140 C.ar    1  UNL1        0.2800
      7  O         23.0020  -20.9380  -14.7640 O.2     1  UNL1       -0.2650
      8  C         24.3000  -22.3300  -13.3780 C.ar    1  UNL1        0.1660
      9  C         25.3130  -23.2370  -13.2840 C.ar    1  UNL1        0.1860
     10  N         25.4750  -23.6840  -12.0150 N.ar    1  UNL1       -0.0420
     11  C         24.5620  -23.0500  -11.2970 C.ar    1  UNL1        0.7250
     12  N         23.8230  -22.1940  -12.1010 N.ar    1  UNL1       -0.1710
     13  H         24.4820  -21.7870  -16.5740 H       1  UNL1        0.1730
     14  N         24.3080  -23.1800   -9.9630 N.pl3   1  UNL1       -0.1070
     15  H         25.0860  -23.4280   -9.3590 H       1  UNL1        0.2080
     16  N         23.1100  -23.5830   -9.4290 N.2     1  UNL1       -0.1720
     17  C         22.4510  -22.6850   -8.7660 C.2     1  UNL1        0.1500
     18  C         21.1310  -22.9700   -8.1670 C.2     1  UNL1       -0.0170
     19  C         20.5410  -24.2150   -8.4020 C.2     1  UNL1        0.0140
     20  C         19.2930  -24.5070   -7.8470 C.2     1  UNL1        0.0200
     21  C         18.6450  -23.5540   -7.0600 C.2     1  UNL1        0.0110
     22 BR         16.9560  -23.9520   -6.3080 Br      1  UNL1       -0.0510
     23  C         19.2320  -22.3120   -6.8210 C.2     1  UNL1        0.0200
     24  C         20.4790  -22.0170   -7.3770 C.2     1  UNL1        0.0140
     25  C         22.7360  -21.3220  -11.6970 C.3     1  UNL1        0.1480
     26  C         21.3700  -21.9390  -11.9840 C.3     1  UNL1        0.0250
     27  C         20.2980  -20.8580  -12.1160 C.3     1  UNL1        0.0400
     28  C         19.0000  -21.2860  -11.4810 C.2     1  UNL1       -0.0580
     29  C         18.8460  -22.5850  -10.9800 C.2     1  UNL1        0.0070
     30  C         17.6350  -22.9840  -10.4110 C.2     1  UNL1        0.0010
     31  C         16.5680  -22.0890  -10.3400 C.2     1  UNL1        0.0000
     32  C         16.7100  -20.7970  -10.8410 C.2     1  UNL1        0.0010
     33  C         17.9180  -20.3970  -11.4110 C.2     1  UNL1        0.0070
@<TRIPOS>BOND
     1     4     3    2
     2    13     5    1
     3     5     3   ar
     4     5     6   ar
     5     3     2   ar
     6     7     6    2
     7     6     8   ar
     8     2     1    1
     9     2     9   ar
    10     8     9   ar
    11     8    12   ar
    12     9    10   ar
    13    27    26    1
    14    27    28    1
    15    12    25    1
    16    12    11   ar
    17    10    11   ar
    18    26    25    1
    19    28    33    2
    20    28    29    1
    21    33    32    1
    22    11    14    1
    23    29    30    2
    24    32    31    2
    25    30    31    1
    26    14    16    1
    27    14    15    1
    28    16    17    2
    29    17    18    1
    30    19    18    2
    31    19    20    1
    32    18    24    1
    33    20    21    2
    34    24    23    2
    35    21    23    1
    36    21    22    1
