@<TRIPOS>MOLECULE
43601_out_ligand_01.pdbqt
 32 35 0 0 0
SMALL
GASTEIGER

@<TRIPOS>ATOM
      1  C         27.1210  -23.5230  -12.1100 C.3     1  UNL1        0.1630
      2  N         25.9270  -22.8930  -12.6400 N.ar    1  UNL1       -0.2860
      3  C         25.8290  -22.5800  -13.9920 C.ar    1  UNL1        0.3300
      4  O         26.7100  -22.8090  -14.8200 O.2     1  UNL1       -0.2460
      5  N         24.6590  -21.9730  -14.4130 N.ar    1  UNL1       -0.2730
      6  C         23.5780  -21.6150  -13.6400 C.ar    1  UNL1        0.2800
      7  O         22.6000  -21.0420  -14.1050 O.2     1  UNL1       -0.2650
      8  C         23.7460  -21.9720  -12.2730 C.ar    1  UNL1        0.1660
      9  C         24.8740  -22.5780  -11.8090 C.ar    1  UNL1        0.1860
     10  N         24.8120  -22.8060  -10.4730 N.ar    1  UNL1       -0.0420
     11  C         23.6400  -22.3270  -10.0870 C.ar    1  UNL1        0.7250
     12  N         22.9420  -21.8280  -11.1750 N.ar    1  UNL1       -0.1700
     13  H         24.6120  -21.7420  -15.3930 H       1  UNL1        0.1730
     14  N         23.1170  -22.2940   -8.8280 N.pl3   1  UNL1       -0.1070
     15  H         23.7770  -22.3090   -8.0520 H       1  UNL1        0.2080
     16  N         21.9090  -22.8340   -8.4680 N.2     1  UNL1       -0.1720
     17  C         21.1790  -22.1160   -7.6720 C.2     1  UNL1        0.1500
     18  C         19.8400  -22.5570   -7.2340 C.2     1  UNL1       -0.0170
     19  C         19.3680  -23.8380   -7.5370 C.2     1  UNL1        0.0140
     20  C         18.0980  -24.2310   -7.1100 C.2     1  UNL1        0.0200
     21  C         17.3070  -23.3410   -6.3830 C.2     1  UNL1        0.0110
     22 BR         15.5870  -23.8730   -5.8040 Br      1  UNL1       -0.0510
     23  C         17.7730  -22.0610   -6.0790 C.2     1  UNL1        0.0200
     24  C         19.0440  -21.6660   -6.5060 C.2     1  UNL1        0.0140
     25  C         21.6010  -21.2710  -11.1780 C.3     1  UNL1        0.1530
     26  C         20.5920  -22.2190  -11.8220 C.3     1  UNL1        0.0590
     27  C         19.1930  -21.9470  -11.3310 C.2     1  UNL1       -0.0570
     28  C         18.4790  -22.9450  -10.6520 C.2     1  UNL1        0.0070
     29  C         17.1930  -22.6930  -10.1760 C.2     1  UNL1        0.0010
     30  C         16.6090  -21.4430  -10.3710 C.2     1  UNL1        0.0000
     31  C         17.3120  -20.4430  -11.0410 C.2     1  UNL1        0.0010
     32  C         18.6000  -20.6930  -11.5200 C.2     1  UNL1        0.0070
@<TRIPOS>BOND
     1    13     5    1
     2     4     3    2
     3     5     3   ar
     4     5     6   ar
     5     7     6    2
     6     3     2   ar
     7     6     8   ar
     8     2     1    1
     9     2     9   ar
    10     8     9   ar
    11     8    12   ar
    12    26    27    1
    13    26    25    1
    14     9    10   ar
    15    32    27    2
    16    32    31    1
    17    27    28    1
    18    25    12    1
    19    12    11   ar
    20    31    30    2
    21    28    29    2
    22    10    11   ar
    23    30    29    1
    24    11    14    1
    25    14    16    1
    26    14    15    1
    27    16    17    2
    28    17    18    1
    29    19    18    2
    30    19    20    1
    31    18    24    1
    32    20    21    2
    33    24    23    2
    34    21    23    1
    35    21    22    1
