@<TRIPOS>MOLECULE
43620_out_ligand_01.pdbqt
 36 39 0 0 0
SMALL
GASTEIGER

@<TRIPOS>ATOM
      1  N         20.4860  -23.3110   -9.4820 N.am    1  UNL1       -0.3040
      2  C         21.8530  -23.2880   -9.7420 C.2     1  UNL1        0.2560
      3  O         22.6510  -24.0310   -9.1740 O.2     1  UNL1       -0.2670
      4  C         22.3540  -22.3350  -10.7790 C.2     1  UNL1        0.0240
      5  C         21.4830  -21.5870  -11.4730 C.2     1  UNL1        0.0270
      6  C         20.0490  -21.6610  -11.2190 C.2     1  UNL1       -0.0080
      7  C         19.1690  -20.8760  -11.9750 C.2     1  UNL1        0.0160
      8  C         17.7940  -20.9330  -11.7440 C.2     1  UNL1        0.0380
      9  C         17.2900  -21.7770  -10.7590 C.2     1  UNL1        0.0700
     10  C         18.1730  -22.5620  -10.0050 C.2     1  UNL1        0.0670
     11  C         19.5580  -22.5140  -10.2220 C.2     1  UNL1        0.0510
     12  C         20.0130  -24.2010   -8.4130 C.3     1  UNL1        0.2350
     13  C         19.2950  -23.5060   -7.2440 C.2     1  UNL1        0.2400
     14  N         18.2510  -24.2360   -6.7080 N.am    1  UNL1       -0.3260
     15  H         18.0660  -25.1270   -7.1520 H       1  UNL1        0.1690
     16  O         19.7050  -22.4220   -6.8350 O.2     1  UNL1       -0.2710
     17  C         17.4050  -23.8910   -5.6370 C.2     1  UNL1        0.0370
     18  C         17.7980  -23.8940   -4.2990 C.2     1  UNL1        0.0290
     19  C         16.8910  -23.5350   -3.2980 C.2     1  UNL1        0.0050
     20  C         15.5840  -23.1710   -3.6230 C.2     1  UNL1        0.0370
     21  C         15.1760  -23.1650   -4.9550 C.2     1  UNL1        0.0700
     22  C         16.0910  -23.5240   -5.9530 C.2     1  UNL1        0.0660
     23  O         13.9320  -22.8310   -5.4160 O.2     1  UNL1       -0.3560
     24  C         13.6880  -21.4510   -5.6620 C.3     1  UNL1        0.2100
     25  C         23.8540  -22.3410  -10.9490 C.3     1  UNL1        0.1360
     26  N         24.2890  -23.5040  -11.7280 N.pl3   1  UNL1       -0.2890
     27  H         23.6100  -24.2610  -11.6750 H       1  UNL1        0.1280
     28  C         24.6880  -23.3250  -13.0600 C.2     1  UNL1        0.0080
     29  C         25.2670  -24.3260  -13.8480 C.2     1  UNL1        0.0240
     30  C         25.5790  -24.1000  -15.1950 C.2     1  UNL1        0.0080
     31  C         25.2990  -22.8700  -15.7960 C.2     1  UNL1       -0.0620
     32  C         25.5990  -22.6430  -17.2470 C.3     1  UNL1        0.0480
     33  C         24.6690  -21.8840  -15.0370 C.2     1  UNL1        0.0080
     34  C         24.3620  -22.1150  -13.6910 C.2     1  UNL1        0.0240
     35  O         15.9720  -21.9320  -10.4320 O.2     1  UNL1       -0.3560
     36  C         15.6530  -22.9500   -9.4910 C.3     1  UNL1        0.2100
@<TRIPOS>BOND
     1    32    31    1
     2    31    30    2
     3    31    33    1
     4    30    29    1
     5    33    34    2
     6    29    28    2
     7    34    28    1
     8    28    26    1
     9     7     8    1
    10     7     6    2
    11     8     9    2
    12    26    27    1
    13    26    25    1
    14     5     6    1
    15     5     4    2
    16     6    11    1
    17    25     4    1
    18     4     2    1
    19     9    35    1
    20     9    10    1
    21    35    36    1
    22    11    10    2
    23    11     1    1
    24     2     1   am
    25     2     3    2
    26     1    12    1
    27    12    13    1
    28    13    16    2
    29    13    14   am
    30    15    14    1
    31    14    17    1
    32    22    17    2
    33    22    21    1
    34    24    23    1
    35    17    18    1
    36    23    21    1
    37    21    20    2
    38    18    19    2
    39    20    19    1
