@<TRIPOS>MOLECULE
43678_out_ligand_01.pdbqt
 37 41 0 0 0
SMALL
GASTEIGER

@<TRIPOS>ATOM
      1  C         21.1440  -22.1350  -11.3930 C.2     1  UNL1        0.0320
      2  C         21.4880  -23.1160  -10.4490 C.2     1  UNL1        0.0180
      3  C         20.5540  -23.5520   -9.5060 C.2     1  UNL1        0.0260
      4  C         19.2720  -23.0000   -9.5120 C.2     1  UNL1        0.0750
      5  C         18.9050  -22.0410  -10.4630 C.2     1  UNL1        0.0260
      6  C         19.8430  -21.6100  -11.4050 C.2     1  UNL1        0.0180
      7  C         22.1830  -21.7080  -12.3800 C.2     1  UNL1        0.2560
      8  N         23.3690  -22.4040  -12.3120 N.am    1  UNL1       -0.3200
      9  H         23.4000  -23.2330  -11.7210 H       1  UNL1        0.1690
     10  O         21.8890  -20.8330  -13.1820 O.2     1  UNL1       -0.2670
     11  C         24.5230  -22.2030  -13.0670 C.ar    1  UNL1        0.0880
     12  C         24.8310  -22.3500  -14.4590 C.ar    1  UNL1        0.0280
     13  C         24.1610  -22.7190  -15.6450 C.2     1  UNL1        0.0170
     14  C         26.1740  -21.9940  -14.5830 C.ar    1  UNL1        0.0890
     15  C         24.8570  -22.7350  -16.8650 C.2     1  UNL1        0.0010
     16  C         26.2020  -22.3820  -16.9300 C.2     1  UNL1        0.0030
     17  C         26.8930  -21.9990  -15.7790 C.2     1  UNL1        0.0380
     18  O         26.6920  -21.6310  -13.3830 O.2     1  UNL1       -0.3020
     19  C         25.6890  -21.7440  -12.4660 C.ar    1  UNL1        0.1710
     20  C         25.9540  -21.4000  -11.0890 C.2     1  UNL1        0.2750
     21  N         26.2570  -22.4480  -10.2670 N.am    1  UNL1       -0.3640
     22  H         26.4560  -22.2700   -9.2940 H       1  UNL1        0.1590
     23  H         26.2870  -23.3940  -10.6260 H       1  UNL1        0.1590
     24  O         25.9220  -20.2510  -10.6540 O.2     1  UNL1       -0.2660
     25  S         18.0540  -23.5390   -8.3220 S.O2    1  UNL1        0.2480
     26  O         16.8130  -23.6310   -9.0620 O.2     1  UNL1       -0.2050
     27  O         18.5980  -24.6920   -7.6310 O.2     1  UNL1       -0.2050
     28  N         18.0220  -22.2060   -7.1960 N.pl3   1  UNL1       -0.1720
     29  C         19.4060  -21.8420   -6.7430 C.3     1  UNL1        0.1140
     30  C         19.3790  -20.8690   -5.5800 C.3     1  UNL1        0.0200
     31  C         18.6900  -21.5350   -4.4050 C.3     1  UNL1        0.0420
     32  C         17.3140  -21.9850   -4.8070 C.2     1  UNL1       -0.0360
     33  C         16.3300  -22.0860   -3.8070 C.2     1  UNL1        0.0090
     34  C         17.0070  -22.3150   -6.1420 C.2     1  UNL1        0.0310
     35  C         15.0240  -22.4390   -4.1310 C.2     1  UNL1        0.0010
     36  C         14.6900  -22.6750   -5.4580 C.2     1  UNL1        0.0020
     37  C         15.6700  -22.5960   -6.4520 C.2     1  UNL1        0.0250
@<TRIPOS>BOND
     1    16    15    2
     2    16    17    1
     3    15    13    1
     4    17    14    2
     5    13    12    2
     6    14    12   ar
     7    14    18   ar
     8    12    11   ar
     9    18    19   ar
    10    10     7    2
    11    11    19   ar
    12    11     8    1
    13    19    20    1
    14     7     8   am
    15     7     1    1
    16     8     9    1
    17     6     1    2
    18     6     5    1
    19     1     2    1
    20    20    24    2
    21    20    21   am
    22    23    21    1
    23     5     4    2
    24     2     3    2
    25    21    22    1
    26     4     3    1
    27     4    25    1
    28    26    25    2
    29    25    27    2
    30    25    28    1
    31    28    29    1
    32    28    34    1
    33    29    30    1
    34    37    34    1
    35    37    36    2
    36    34    32    2
    37    30    31    1
    38    36    35    1
    39    32    31    1
    40    32    33    1
    41    35    33    2
