@<TRIPOS>MOLECULE
4368_out_ligand_01.pdbqt
 29 32 0 0 0
SMALL
GASTEIGER

@<TRIPOS>ATOM
      1  C         22.1020  -23.2010  -10.0640 C.2     1  UNL1        0.0320
      2  C         21.6710  -24.0770   -9.0560 C.2     1  UNL1        0.0180
      3  C         20.3640  -23.9950   -8.5700 C.2     1  UNL1        0.0260
      4  C         19.4870  -23.0390   -9.0950 C.2     1  UNL1        0.0800
      5  C         19.8950  -22.1800  -10.1190 C.2     1  UNL1        0.0260
      6  C         21.2030  -22.2640  -10.6010 C.2     1  UNL1        0.0180
      7  S         17.8130  -22.9730   -8.4780 S.O2    1  UNL1        0.2650
      8  O         17.1420  -21.8740   -9.1420 O.2     1  UNL1       -0.2000
      9  O         17.3100  -24.3280   -8.5850 O.2     1  UNL1       -0.2000
     10  N         18.0360  -22.5470   -6.8350 N.pl3   1  UNL1       -0.2710
     11  C         19.1640  -21.5960   -6.5850 C.3     1  UNL1        0.1420
     12  C         19.0970  -20.8860   -5.2380 C.3     1  UNL1        0.0260
     13  C         18.5160  -21.7930   -4.1690 C.3     1  UNL1        0.0420
     14  C         17.1230  -22.1560   -4.5990 C.2     1  UNL1       -0.0310
     15  C         16.0780  -22.1750   -3.6620 C.2     1  UNL1        0.0090
     16  C         16.8790  -22.4540   -5.9560 C.2     1  UNL1        0.0510
     17  C         14.7800  -22.4660   -4.0670 C.2     1  UNL1        0.0010
     18  C         14.5240  -22.7440   -5.4070 C.2     1  UNL1        0.0020
     19  C         15.5660  -22.7450   -6.3410 C.2     1  UNL1        0.0310
     20  C         23.4860  -23.2510  -10.6240 C.2     1  UNL1        0.2580
     21  N         23.5600  -23.3250  -11.9930 N.am    1  UNL1       -0.2850
     22  H         22.7420  -23.4310  -12.5720 H       1  UNL1        0.1720
     23  O         24.4290  -23.2580   -9.8410 O.2     1  UNL1       -0.2670
     24  C         24.7420  -23.3550  -12.6740 C.ar    1  UNL1        0.2740
     25  N         25.5920  -22.3580  -12.7890 N.ar    1  UNL1       -0.1030
     26  N         26.6460  -22.8270  -13.5470 N.ar    1  UNL1       -0.1260
     27  C         26.3590  -24.0800  -13.8330 C.ar    1  UNL1        0.1670
     28  C         27.1190  -25.0700  -14.6120 C.3     1  UNL1        0.1020
     29  O         25.1630  -24.4850  -13.3110 O.2     1  UNL1       -0.2600
@<TRIPOS>BOND
     1    28    27    1
     2    27    26   ar
     3    27    29   ar
     4    26    25   ar
     5    29    24   ar
     6    25    24   ar
     7    24    21    1
     8    22    21    1
     9    21    20   am
    10    20     1    1
    11    20    23    2
    12     6     5    1
    13     6     1    2
    14     5     4    2
    15     1     2    1
    16     8     7    2
    17     4     3    1
    18     4     7    1
    19     2     3    2
    20     9     7    2
    21     7    10    1
    22    10    11    1
    23    10    16    1
    24    11    12    1
    25    19    16    1
    26    19    18    2
    27    16    14    2
    28    18    17    1
    29    12    13    1
    30    14    13    1
    31    14    15    1
    32    17    15    2
