@<TRIPOS>MOLECULE
43693_out_ligand_01.pdbqt
 36 39 0 0 0
SMALL
GASTEIGER

@<TRIPOS>ATOM
      1  N         21.8260  -22.6130  -11.3470 N.am    1  UNL1       -0.3160
      2  C         20.7870  -21.7610  -11.0290 C.2     1  UNL1        0.2560
      3  O         20.6050  -20.6400  -11.4930 O.2     1  UNL1       -0.2670
      4  H         21.6800  -23.6110  -11.2720 H       1  UNL1        0.1690
      5  C         19.7640  -22.3370  -10.1110 C.2     1  UNL1        0.0320
      6  C         18.3990  -22.0590  -10.2710 C.2     1  UNL1        0.0180
      7  C         17.4640  -22.6310   -9.4060 C.2     1  UNL1        0.0260
      8  C         17.8980  -23.4920   -8.3920 C.2     1  UNL1        0.0750
      9  C         19.2550  -23.7760   -8.2230 C.2     1  UNL1        0.0260
     10  C         20.1870  -23.2030   -9.0920 C.2     1  UNL1        0.0180
     11  S         16.6850  -24.2210   -7.3100 S.O2    1  UNL1        0.2470
     12  O         17.4160  -25.0870   -6.4080 O.2     1  UNL1       -0.2050
     13  O         15.6070  -24.7310   -8.1340 O.2     1  UNL1       -0.2050
     14  N         16.1050  -22.8530   -6.4510 N.pl3   1  UNL1       -0.1760
     15  C         14.7020  -22.9580   -5.9770 C.3     1  UNL1        0.1360
     16  C         17.0140  -22.3530   -5.4510 C.2     1  UNL1        0.0250
     17  C         16.8470  -22.6170   -4.0880 C.2     1  UNL1        0.0240
     18  C         17.7100  -22.0420   -3.1540 C.2     1  UNL1        0.0020
     19  C         18.7270  -21.1850   -3.5780 C.2     1  UNL1        0.0000
     20  C         18.8780  -20.8980   -4.9330 C.2     1  UNL1        0.0020
     21  C         18.0150  -21.4730   -5.8680 C.2     1  UNL1        0.0240
     22  C         22.9210  -22.2130  -12.0790 C.ar    1  UNL1        0.0930
     23  S         22.4970  -21.6520  -13.6310 S.2     1  UNL1       -0.0730
     24  C         24.1040  -21.2220  -13.9700 C.ar    1  UNL1        0.0200
     25  C         24.9660  -21.5490  -12.9400 C.ar    1  UNL1       -0.0240
     26  C         24.5110  -20.5650  -15.2580 C.3     1  UNL1        0.3180
     27  C         26.4420  -21.3220  -13.1030 C.3     1  UNL1        0.0710
     28  C         24.2810  -22.1810  -11.8370 C.ar    1  UNL1        0.0670
     29  C         26.7370  -20.3580  -14.2760 C.3     1  UNL1        0.2770
     30  N         25.9670  -20.7090  -15.4890 N.3     1  UNL1        0.0890
     31  C         26.3830  -19.8910  -16.6260 C.3     1  UNL1        0.3100
     32  C         24.9190  -22.7860  -10.6780 C.2     1  UNL1        0.2320
     33  N         24.1860  -22.7220   -9.5240 N.am    1  UNL1       -0.2680
     34  H         23.1820  -22.6810   -9.6370 H       1  UNL1        0.1270
     35  H         24.5170  -23.3640   -8.8180 H       1  UNL1        0.1270
     36  O         26.0240  -23.3130  -10.7080 O.2     1  UNL1       -0.2740
@<TRIPOS>BOND
     1    31    30    1
     2    30    26    1
     3    30    29    1
     4    26    24    1
     5    29    27    1
     6    24    23   ar
     7    24    25   ar
     8    23    22   ar
     9    27    25    1
    10    25    28   ar
    11    22    28   ar
    12    22     1    1
    13    28    32    1
    14     3     2    2
    15     1     4    1
    16     1     2   am
    17     2     5    1
    18    36    32    2
    19    32    33   am
    20     6     5    2
    21     6     7    1
    22     5    10    1
    23    34    33    1
    24    33    35    1
    25     7     8    2
    26    10     9    2
    27     8     9    1
    28     8    11    1
    29    13    11    2
    30    11    14    1
    31    11    12    2
    32    14    15    1
    33    14    16    1
    34    21    16    2
    35    21    20    1
    36    16    17    1
    37    20    19    2
    38    17    18    2
    39    19    18    1
