@<TRIPOS>MOLECULE
43691_out_ligand_01.pdbqt
 34 36 0 0 0
SMALL
GASTEIGER

@<TRIPOS>ATOM
      1  C         24.1630  -21.9360  -10.4510 C.ar    1  UNL1        0.2310
      2  N         23.9560  -23.2000  -10.1350 N.ar    1  UNL1       -0.1140
      3  N         23.1460  -23.2060   -9.0210 N.ar    1  UNL1       -0.1240
      4  C         22.8980  -21.9450   -8.7360 C.ar    1  UNL1        0.1870
      5  O         23.5070  -21.0750   -9.6090 O.2     1  UNL1       -0.2670
      6  C         22.0950  -21.3780   -7.6240 C.3     1  UNL1        0.2110
      7  N         20.8850  -22.1430   -7.3900 N.am    1  UNL1       -0.3490
      8  C         19.9620  -21.7130   -6.4700 C.2     1  UNL1        0.2520
      9  O         20.0950  -20.6990   -5.8010 O.2     1  UNL1       -0.2680
     10  H         20.6730  -22.9220   -8.0040 H       1  UNL1        0.1630
     11  C         18.7470  -22.5630   -6.3250 C.2     1  UNL1        0.0400
     12  C         18.4980  -23.5220   -7.3260 C.2     1  UNL1        0.0180
     13  C         17.4090  -24.3890   -7.2290 C.2     1  UNL1        0.0030
     14  C         16.5790  -24.3210   -6.1140 C.2     1  UNL1        0.0370
     15  C         16.8370  -23.3720   -5.1090 C.2     1  UNL1        0.1090
     16  C         17.9010  -22.4490   -5.2010 C.2     1  UNL1       -0.0130
     17  C         18.1390  -21.3980   -4.1480 C.3     1  UNL1        0.0520
     18  N         15.9440  -23.3890   -3.9540 N.pl3   1  UNL1       -0.1150
     19  O         16.0790  -24.3240   -3.1530 O.2     1  UNL1       -0.5320
     20  O         15.1340  -22.4600   -3.8410 O.2     1  UNL1       -0.5320
     21  S         25.1620  -21.4020  -11.7630 S.3     1  UNL1       -0.0730
     22  C         24.2170  -22.0150  -13.1880 C.3     1  UNL1        0.1860
     23  C         22.7670  -21.5560  -13.1220 C.2     1  UNL1        0.2310
     24  N         22.0430  -22.1720  -12.1150 N.am    1  UNL1       -0.3270
     25  H         22.4770  -22.9780  -11.6660 H       1  UNL1        0.1690
     26  O         22.3380  -20.7230  -13.9170 O.2     1  UNL1       -0.2720
     27  C         20.7070  -21.9210  -11.7420 C.2     1  UNL1        0.0340
     28  C         19.9820  -20.7970  -12.1400 C.2     1  UNL1        0.0300
     29  C         18.6640  -20.6120  -11.7070 C.2     1  UNL1        0.0090
     30  C         18.0450  -21.5500  -10.8730 C.2     1  UNL1       -0.0580
     31  C         18.7720  -22.6800  -10.4790 C.2     1  UNL1        0.0090
     32  C         20.0940  -22.8590  -10.9040 C.2     1  UNL1        0.0300
     33  C         16.6260  -21.3430  -10.4090 C.3     1  UNL1        0.0340
     34  C         15.9980  -22.6210   -9.8690 C.3     1  UNL1        0.0100
@<TRIPOS>BOND
     1    26    23    2
     2    22    23    1
     3    22    21    1
     4    23    24   am
     5    28    27    2
     6    28    29    1
     7    24    27    1
     8    24    25    1
     9    21     1    1
    10    27    32    1
    11    29    30    2
    12    32    31    2
    13    30    31    1
    14    30    33    1
    15     1     2   ar
    16     1     5   ar
    17    33    34    1
    18     2     3   ar
    19     5     4   ar
    20     3     4   ar
    21     4     6    1
    22    10     7    1
    23     6     7    1
    24     7     8   am
    25    12    13    1
    26    12    11    2
    27    13    14    2
    28     8    11    1
    29     8     9    2
    30    11    16    1
    31    14    15    1
    32    16    15    2
    33    16    17    1
    34    15    18    1
    35    18    20    2
    36    18    19    2
