@<TRIPOS>MOLECULE
43702_out_ligand_01.pdbqt
 38 42 0 0 0
SMALL
GASTEIGER

@<TRIPOS>ATOM
      1  N         17.3480  -23.3670   -9.7510 N.pl3   1  UNL1       -0.3530
      2  C         18.3270  -24.1580   -9.2040 C.2     1  UNL1        0.1100
      3  C         19.5410  -23.6340   -9.5730 C.2     1  UNL1        0.0290
      4  C         19.3050  -22.4870  -10.3810 C.2     1  UNL1        0.0090
      5  C         20.1350  -21.5590  -11.0450 C.2     1  UNL1        0.0150
      6  C         19.5620  -20.5440  -11.8170 C.2     1  UNL1        0.0010
      7  C         18.1790  -20.4380  -11.9280 C.2     1  UNL1        0.0020
      8  C         17.3320  -21.3360  -11.2720 C.2     1  UNL1        0.0300
      9  C         17.9170  -22.3570  -10.5040 C.2     1  UNL1        0.0450
     10  S         21.1000  -24.2860   -9.1400 S.3     1  UNL1       -0.1180
     11  C         21.8960  -22.8110   -8.4400 C.3     1  UNL1        0.1820
     12  C         22.8960  -22.2170   -9.4190 C.2     1  UNL1        0.2310
     13  O         23.3430  -21.0850   -9.2500 O.2     1  UNL1       -0.2720
     14  N         23.2210  -23.0770  -10.4550 N.am    1  UNL1       -0.3260
     15  H         22.6770  -23.9300  -10.5210 H       1  UNL1        0.1690
     16  C         24.1060  -22.8420  -11.5280 C.2     1  UNL1        0.0370
     17  C         25.4590  -23.1890  -11.5140 C.2     1  UNL1        0.0320
     18  C         26.2740  -22.9150  -12.6180 C.2     1  UNL1        0.0420
     19  C         25.7400  -22.2890  -13.7400 C.2     1  UNL1        0.1020
     20  C         24.3820  -21.9650  -13.7740 C.2     1  UNL1        0.1040
     21  O         26.6030  -22.0310  -14.7730 O.2     1  UNL1       -0.3460
     22  C         23.5730  -22.2280  -12.6700 C.2     1  UNL1        0.0690
     23  O         23.7780  -21.3770  -14.8560 O.2     1  UNL1       -0.3460
     24  C         24.6000  -21.4680  -16.0250 C.3     1  UNL1        0.2020
     25  C         26.0380  -21.0970  -15.7010 C.3     1  UNL1        0.2020
     26  C         15.9210  -23.5750   -9.5460 C.3     1  UNL1        0.1480
     27  C         15.6030  -24.0590   -8.1300 C.3     1  UNL1        0.1430
     28  N         16.1630  -23.2160   -7.0890 N.am    1  UNL1       -0.3550
     29  C         17.0550  -23.7220   -6.1670 C.2     1  UNL1        0.2520
     30  O         17.3860  -24.9000   -6.1210 O.2     1  UNL1       -0.2680
     31  H         16.1350  -22.2110   -7.2220 H       1  UNL1        0.1620
     32  C         17.6840  -22.7210   -5.2700 C.2     1  UNL1        0.0370
     33  C         18.6150  -21.8520   -5.8590 C.2     1  UNL1        0.0170
     34  C         19.2220  -20.8540   -5.1000 C.2     1  UNL1        0.0010
     35  C         18.9060  -20.7240   -3.7510 C.2     1  UNL1        0.0010
     36  C         17.9980  -21.6010   -3.1530 C.2     1  UNL1        0.0070
     37  C         17.3870  -22.6250   -3.8970 C.2     1  UNL1       -0.0460
     38  C         16.4490  -23.5660   -3.1970 C.3     1  UNL1        0.0490
@<TRIPOS>BOND
     1    24    25    1
     2    24    23    1
     3    25    21    1
     4    23    20    1
     5    21    19    1
     6    20    19    2
     7    20    22    1
     8    19    18    1
     9    22    16    2
    10    18    17    2
    11     7     6    2
    12     7     8    1
    13     6     5    1
    14    16    17    1
    15    16    14    1
    16     8     9    2
    17     5     4    2
    18    15    14    1
    19     9     4    1
    20     9     1    1
    21    14    12   am
    22     4     3    1
    23     1    26    1
    24     1     2    1
    25     3     2    2
    26     3    10    1
    27    26    27    1
    28    12    13    2
    29    12    11    1
    30    10    11    1
    31    27    28    1
    32    31    28    1
    33    28    29   am
    34    29    30    2
    35    29    32    1
    36    33    32    2
    37    33    34    1
    38    32    37    1
    39    34    35    2
    40    37    38    1
    41    37    36    2
    42    35    36    1
