@<TRIPOS>MOLECULE
43719_out_ligand_01.pdbqt
 36 40 0 0 0
SMALL
GASTEIGER

@<TRIPOS>ATOM
      1  C         20.2190  -22.5400   -8.6010 C.ar    1  UNL1        0.1380
      2  N         19.3450  -22.7860   -7.6570 N.ar    1  UNL1       -0.2090
      3  C         18.0190  -22.6210   -7.9310 C.ar    1  UNL1        0.1810
      4  C         16.8430  -22.7840   -7.2160 C.ar    1  UNL1        0.1320
      5  N         15.7680  -22.4930   -8.0270 N.ar    1  UNL1       -0.1550
      6  N         16.2260  -22.1430   -9.2210 N.ar    1  UNL1        0.0120
      7  N         17.5690  -22.2130   -9.1690 N.ar    1  UNL1       -0.2170
      8  C         18.4280  -21.9150  -10.2290 C.ar    1  UNL1        0.0700
      9  C         17.9510  -21.4890  -11.4700 C.2     1  UNL1        0.0320
     10  C         18.8700  -21.1860  -12.4740 C.2     1  UNL1        0.0020
     11  C         20.2410  -21.3020  -12.2290 C.2     1  UNL1        0.0010
     12  C         20.7070  -21.7320  -10.9800 C.2     1  UNL1        0.0170
     13  C         19.7970  -22.0540   -9.9690 C.ar    1  UNL1        0.0380
     14  N         21.5630  -22.7410   -8.3460 N.pl3   1  UNL1       -0.3740
     15  H         22.1260  -21.9140   -8.1830 H       1  UNL1        0.1610
     16  C         22.3290  -23.8090   -8.9810 C.3     1  UNL1        0.1260
     17  C         23.8110  -23.4440   -9.1390 C.3     1  UNL1        0.0580
     18  C         24.1090  -22.7170  -10.4330 C.2     1  UNL1       -0.0570
     19  C         23.6040  -23.1950  -11.6500 C.2     1  UNL1        0.0090
     20  C         23.9090  -22.5440  -12.8460 C.2     1  UNL1        0.0250
     21  C         24.7200  -21.4060  -12.8220 C.2     1  UNL1        0.0740
     22  C         25.2400  -20.9230  -11.6200 C.2     1  UNL1        0.0250
     23  C         24.9290  -21.5770  -10.4270 C.2     1  UNL1        0.0090
     24  S         25.1190  -20.5930  -14.3460 S.O2    1  UNL1        0.2390
     25  O         25.4940  -19.2280  -14.0510 O.2     1  UNL1       -0.2060
     26  O         25.9530  -21.4740  -15.1280 O.2     1  UNL1       -0.2060
     27  N         23.6110  -20.5030  -15.0870 N.3     1  UNL1       -0.2250
     28  H         23.2050  -21.4400  -15.1260 H       1  UNL1        0.1360
     29  H         23.6380  -20.0620  -16.0060 H       1  UNL1        0.1360
     30  C         16.6870  -23.2120   -5.8310 C.2     1  UNL1        0.0010
     31  C         15.4780  -22.9510   -5.1620 C.2     1  UNL1        0.0140
     32  C         15.2880  -23.3430   -3.8320 C.2     1  UNL1        0.0040
     33  C         16.3080  -24.0010   -3.1530 C.2     1  UNL1        0.0420
     34  C         17.5060  -24.2580   -3.8090 C.2     1  UNL1        0.1170
     35  F         18.4900  -24.8870   -3.1530 F       1  UNL1       -0.2060
     36  C         17.7050  -23.8700   -5.1300 C.2     1  UNL1        0.0560
@<TRIPOS>BOND
     1    29    27    1
     2    26    24    2
     3    28    27    1
     4    27    24    1
     5    24    25    2
     6    24    21    1
     7    20    21    2
     8    20    19    1
     9    21    22    1
    10    10    11    2
    11    10     9    1
    12    11    12    1
    13    19    18    2
    14    22    23    2
    15     9     8    2
    16    12    13    2
    17    18    23    1
    18    18    17    1
    19     8    13   ar
    20     8     7   ar
    21    13     1   ar
    22     6     7   ar
    23     6     5   ar
    24     7     3   ar
    25    17    16    1
    26    16    14    1
    27     1    14    1
    28     1     2   ar
    29    14    15    1
    30     5     4   ar
    31     3     2   ar
    32     3     4   ar
    33     4    30    1
    34    30    31    2
    35    30    36    1
    36    31    32    1
    37    36    34    2
    38    32    33    2
    39    34    33    1
    40    34    35    1
