@<TRIPOS>MOLECULE
43711_out_ligand_01.pdbqt
 40 43 0 0 0
SMALL
GASTEIGER

@<TRIPOS>ATOM
      1  C         21.5290  -23.1720   -9.4950 C.ar    1  UNL1        0.1960
      2  N         22.8210  -23.2870   -9.6950 N.ar    1  UNL1       -0.1220
      3  N         23.1040  -22.7260  -10.9070 N.ar    1  UNL1       -0.1320
      4  C         21.9740  -22.2980  -11.4430 C.ar    1  UNL1        0.1530
      5  N         20.9250  -22.5280  -10.5610 N.ar    1  UNL1       -0.2740
      6  S         20.7980  -23.6050   -7.9830 S.3     1  UNL1       -0.0800
      7  C         20.6720  -21.9910   -7.1690 C.3     1  UNL1        0.1850
      8  C         19.4620  -21.7700   -6.2680 C.2     1  UNL1        0.2310
      9  N         18.5630  -22.8110   -6.1920 N.am    1  UNL1       -0.3270
     10  H         18.8720  -23.6990   -6.5800 H       1  UNL1        0.1690
     11  O         19.3460  -20.6830   -5.7030 O.2     1  UNL1       -0.2720
     12  C         17.3400  -22.8540   -5.4900 C.2     1  UNL1        0.0350
     13  C         17.3220  -23.5780   -4.2920 C.2     1  UNL1        0.0290
     14  C         16.1520  -23.6710   -3.5360 C.2     1  UNL1        0.0030
     15  C         14.9860  -23.0470   -3.9740 C.2     1  UNL1        0.0070
     16  C         14.9810  -22.3350   -5.1780 C.2     1  UNL1       -0.0600
     17  C         13.7370  -21.6320   -5.6380 C.3     1  UNL1        0.0480
     18  C         16.1660  -22.2340   -5.9250 C.2     1  UNL1        0.0360
     19  C         19.5660  -22.1490  -10.7050 C.2     1  UNL1        0.0440
     20  C         19.2350  -21.0240  -11.4720 C.2     1  UNL1        0.0300
     21  C         17.9010  -20.6350  -11.5940 C.2     1  UNL1        0.0030
     22  C         16.8960  -21.3650  -10.9600 C.2     1  UNL1        0.0160
     23  C         17.2100  -22.4990  -10.1970 C.2     1  UNL1        0.0500
     24  C         18.5560  -22.8800  -10.0650 C.2     1  UNL1        0.0460
     25  C         16.1210  -23.2810   -9.5010 C.3     1  UNL1        0.4170
     26  F         16.5850  -24.0570   -8.4830 F       1  UNL1       -0.1660
     27  F         15.1800  -22.4640   -8.9500 F       1  UNL1       -0.1660
     28  F         15.4460  -24.1200  -10.3340 F       1  UNL1       -0.1660
     29  C         21.8450  -21.8010  -12.8400 C.3     1  UNL1        0.2040
     30  N         23.1490  -21.8510  -13.4650 N.am    1  UNL1       -0.3500
     31  C         23.4990  -20.9480  -14.4450 C.2     1  UNL1        0.2550
     32  O         22.7950  -19.9810  -14.7230 O.2     1  UNL1       -0.2680
     33  H         23.6450  -22.7360  -13.4180 H       1  UNL1        0.1630
     34  C         24.7680  -21.1880  -15.1870 C.2     1  UNL1        0.0700
     35  C         24.8830  -22.3630  -15.9460 C.2     1  UNL1        0.0200
     36  C         26.0540  -22.6350  -16.6600 C.2     1  UNL1        0.0010
     37  C         27.1210  -21.7380  -16.6220 C.2     1  UNL1        0.0030
     38  C         27.0170  -20.5700  -15.8700 C.2     1  UNL1        0.0430
     39  C         25.8470  -20.3010  -15.1600 C.2     1  UNL1        0.1320
     40  F         25.7940  -19.1650  -14.4480 F       1  UNL1       -0.2050
@<TRIPOS>BOND
     1    36    37    2
     2    36    35    1
     3    37    38    1
     4    35    34    2
     5    38    39    2
     6    34    39    1
     7    34    31    1
     8    39    40    1
     9    32    31    2
    10    31    30   am
    11    30    33    1
    12    30    29    1
    13    29     4    1
    14    21    20    1
    15    21    22    2
    16    20    19    2
    17     4     3   ar
    18     4     5   ar
    19    22    23    1
    20     3     2   ar
    21    19     5    1
    22    19    24    1
    23     5     1   ar
    24    28    25    1
    25    23    24    2
    26    23    25    1
    27     2     1   ar
    28    25    27    1
    29    25    26    1
    30     1     6    1
    31     6     7    1
    32     7     8    1
    33    10     9    1
    34     8     9   am
    35     8    11    2
    36     9    12    1
    37    18    12    2
    38    18    16    1
    39    17    16    1
    40    12    13    1
    41    16    15    2
    42    13    14    2
    43    15    14    1
