@<TRIPOS>MOLECULE
43723_out_ligand_01.pdbqt
 35 38 0 0 0
SMALL
GASTEIGER

@<TRIPOS>ATOM
      1  C         19.8710  -22.3800  -10.2070 C.2     1  UNL1        0.0320
      2  C         20.3200  -23.3180   -9.2640 C.2     1  UNL1        0.0180
      3  C         19.4150  -23.9440   -8.4040 C.2     1  UNL1        0.0260
      4  C         18.0570  -23.6250   -8.4900 C.2     1  UNL1        0.0750
      5  C         17.5990  -22.6720   -9.4060 C.2     1  UNL1        0.0260
      6  C         18.5080  -22.0460  -10.2640 C.2     1  UNL1        0.0180
      7  C         20.8750  -21.7360  -11.1050 C.2     1  UNL1        0.2560
      8  N         22.0460  -22.4480  -11.2760 N.am    1  UNL1       -0.3160
      9  H         22.3110  -23.1310  -10.5780 H       1  UNL1        0.1690
     10  O         20.6450  -20.6140  -11.5420 O.2     1  UNL1       -0.2670
     11  C         23.0470  -22.0480  -12.1340 C.ar    1  UNL1        0.0930
     12  S         22.4500  -21.5550  -13.6440 S.2     1  UNL1       -0.0760
     13  C         24.0240  -21.3490  -14.2750 C.ar    1  UNL1       -0.0120
     14  C         24.1970  -20.9420  -15.7020 C.3     1  UNL1        0.0570
     15  C         25.0010  -21.5610  -13.3110 C.ar    1  UNL1       -0.0310
     16  C         24.4190  -21.9450  -12.0350 C.ar    1  UNL1        0.0670
     17  C         26.4710  -21.3770  -13.5350 C.3     1  UNL1        0.0500
     18  C         25.1610  -22.1200  -10.7930 C.2     1  UNL1        0.2320
     19  N         24.9400  -23.3110  -10.1600 N.am    1  UNL1       -0.2680
     20  H         25.2550  -23.3040   -9.1980 H       1  UNL1        0.1270
     21  H         24.0390  -23.7410  -10.3170 H       1  UNL1        0.1270
     22  O         25.9340  -21.2830  -10.3420 O.2     1  UNL1       -0.2740
     23  S         16.8780  -24.4010   -7.3940 S.O2    1  UNL1        0.2480
     24  O         15.8060  -24.9330   -8.2120 O.2     1  UNL1       -0.2050
     25  O         17.6640  -25.2640   -6.5380 O.2     1  UNL1       -0.2050
     26  N         16.2500  -23.0350   -6.5070 N.pl3   1  UNL1       -0.1720
     27  C         14.9630  -23.3790   -5.8140 C.3     1  UNL1        0.1140
     28  C         14.5610  -22.3190   -4.8060 C.3     1  UNL1        0.0200
     29  C         15.6360  -22.2280   -3.7420 C.3     1  UNL1        0.0420
     30  C         16.9610  -21.9230   -4.3810 C.2     1  UNL1       -0.0360
     31  C         17.9260  -21.2330   -3.6250 C.2     1  UNL1        0.0090
     32  C         17.2460  -22.3180   -5.7040 C.2     1  UNL1        0.0310
     33  C         19.1420  -20.8670   -4.1930 C.2     1  UNL1        0.0010
     34  C         19.3950  -21.1720   -5.5240 C.2     1  UNL1        0.0020
     35  C         18.4460  -21.8740   -6.2750 C.2     1  UNL1        0.0250
@<TRIPOS>BOND
     1    14    13    1
     2    13    12   ar
     3    13    15   ar
     4    12    11   ar
     5    17    15    1
     6    15    16   ar
     7    11    16   ar
     8    11     8    1
     9    16    18    1
    10    10     7    2
    11     8     7   am
    12     8     9    1
    13     7     1    1
    14    18    22    2
    15    18    19   am
    16    21    19    1
    17     6     1    2
    18     6     5    1
    19     1     2    1
    20    19    20    1
    21     5     4    2
    22     2     3    2
    23     4     3    1
    24     4    23    1
    25    24    23    2
    26    23    25    2
    27    23    26    1
    28    26    27    1
    29    26    32    1
    30    35    32    1
    31    35    34    2
    32    27    28    1
    33    32    30    2
    34    34    33    1
    35    28    29    1
    36    30    29    1
    37    30    31    1
    38    33    31    2
