@<TRIPOS>MOLECULE
43728_out_ligand_01.pdbqt
 36 40 0 0 0
SMALL
GASTEIGER

@<TRIPOS>ATOM
      1  C         20.6910  -22.0340  -11.4240 C.2     1  UNL1        0.0320
      2  C         20.7570  -23.0140  -10.4200 C.2     1  UNL1        0.0180
      3  C         19.6460  -23.2830   -9.6180 C.2     1  UNL1        0.0260
      4  C         18.4640  -22.5690   -9.8250 C.2     1  UNL1        0.0750
      5  C         18.3740  -21.6070  -10.8370 C.2     1  UNL1        0.0260
      6  C         19.4880  -21.3420  -11.6380 C.2     1  UNL1        0.0180
      7  C         21.9090  -21.7880  -12.2540 C.2     1  UNL1        0.2560
      8  N         22.9430  -22.6700  -12.0410 N.am    1  UNL1       -0.3200
      9  H         22.7570  -23.4920  -11.4690 H       1  UNL1        0.1690
     10  O         21.8760  -20.8760  -13.0680 O.2     1  UNL1       -0.2670
     11  C         24.2050  -22.6660  -12.6340 C.ar    1  UNL1        0.0880
     12  C         24.6720  -22.4070  -13.9630 C.ar    1  UNL1        0.0280
     13  C         24.1240  -22.0370  -15.2100 C.2     1  UNL1        0.0170
     14  C         26.0560  -22.5720  -13.9120 C.ar    1  UNL1        0.0890
     15  C         24.9640  -21.8740  -16.3230 C.2     1  UNL1        0.0010
     16  C         26.3400  -22.0670  -16.2180 C.2     1  UNL1        0.0030
     17  C         26.9190  -22.4200  -14.9990 C.2     1  UNL1        0.0380
     18  O         26.4600  -22.8950  -12.6570 O.2     1  UNL1       -0.3020
     19  C         25.3410  -22.9390  -11.8790 C.ar    1  UNL1        0.1710
     20  C         25.4750  -23.2460  -10.4740 C.2     1  UNL1        0.2750
     21  N         26.7490  -23.4710  -10.0370 N.am    1  UNL1       -0.3640
     22  H         27.5310  -23.4190  -10.6780 H       1  UNL1        0.1590
     23  H         26.9060  -23.6870   -9.0650 H       1  UNL1        0.1590
     24  O         24.5250  -23.3050   -9.6950 O.2     1  UNL1       -0.2660
     25  S         17.0300  -22.8910   -8.8160 S.O2    1  UNL1        0.2480
     26  O         16.4680  -21.5960   -8.4910 O.2     1  UNL1       -0.2050
     27  O         16.2420  -23.9120   -9.4770 O.2     1  UNL1       -0.2050
     28  N         17.7410  -23.5860   -7.4250 N.pl3   1  UNL1       -0.1710
     29  C         16.9170  -24.6360   -6.7300 C.3     1  UNL1        0.1180
     30  C         16.5690  -24.0900   -5.3350 C.3     1  UNL1        0.0560
     31  C         17.5170  -22.9480   -5.1930 C.2     1  UNL1       -0.0350
     32  C         17.7670  -22.1840   -4.0640 C.2     1  UNL1        0.0090
     33  C         18.1240  -22.6490   -6.4090 C.2     1  UNL1        0.0310
     34  C         18.6630  -21.1190   -4.1700 C.2     1  UNL1        0.0010
     35  C         19.2890  -20.8310   -5.3930 C.2     1  UNL1        0.0020
     36  C         19.0230  -21.6040   -6.5270 C.2     1  UNL1        0.0250
@<TRIPOS>BOND
     1    15    16    2
     2    15    13    1
     3    16    17    1
     4    13    12    2
     5    17    14    2
     6    12    14   ar
     7    12    11   ar
     8    14    18   ar
     9    10     7    2
    10    18    19   ar
    11    11     8    1
    12    11    19   ar
    13     7     8   am
    14     7     1    1
    15     8     9    1
    16    19    20    1
    17     6     1    2
    18     6     5    1
    19     1     2    1
    20     5     4    2
    21    22    21    1
    22    20    21   am
    23    20    24    2
    24     2     3    2
    25    21    23    1
    26     4     3    1
    27     4    25    1
    28    27    25    2
    29    25    26    2
    30    25    28    1
    31    28    29    1
    32    28    33    1
    33    29    30    1
    34    36    33    1
    35    36    35    2
    36    33    31    2
    37    35    34    1
    38    30    31    1
    39    31    32    1
    40    34    32    2
