@<TRIPOS>MOLECULE
43744_out_ligand_01.pdbqt
 35 38 0 0 0
SMALL
GASTEIGER

@<TRIPOS>ATOM
      1  C         21.0080  -22.3420   -9.1890 C.2     1  UNL1        0.0320
      2  C         22.0990  -22.0900   -8.3430 C.2     1  UNL1        0.0180
      3  C         23.3970  -22.0410   -8.8600 C.2     1  UNL1        0.0260
      4  C         23.6030  -22.2570  -10.2250 C.2     1  UNL1        0.0790
      5  C         22.5190  -22.4620  -11.0840 C.2     1  UNL1        0.0260
      6  C         21.2210  -22.5080  -10.5660 C.2     1  UNL1        0.0180
      7  C         19.6410  -22.3930   -8.5920 C.2     1  UNL1        0.2560
      8  N         19.6090  -22.5480   -7.2220 N.am    1  UNL1       -0.3160
      9  H         20.4380  -22.3280   -6.6840 H       1  UNL1        0.1690
     10  O         18.6720  -22.2070   -9.3200 O.2     1  UNL1       -0.2670
     11  C         18.4500  -22.6740   -6.4880 C.ar    1  UNL1        0.0930
     12  S         17.3040  -23.6440   -7.2850 S.2     1  UNL1       -0.0760
     13  C         16.2140  -23.5570   -5.9750 C.ar    1  UNL1       -0.0120
     14  C         14.9210  -24.3040   -6.0320 C.3     1  UNL1        0.0570
     15  C         16.6780  -22.7240   -4.9670 C.ar    1  UNL1       -0.0310
     16  C         17.9910  -22.1860   -5.2820 C.ar    1  UNL1        0.0670
     17  C         15.9140  -22.4010   -3.7200 C.3     1  UNL1        0.0500
     18  C         18.6740  -21.1900   -4.4710 C.2     1  UNL1        0.2320
     19  N         19.3020  -20.2100   -5.1870 N.am    1  UNL1       -0.2680
     20  H         19.5550  -19.4190   -4.6100 H       1  UNL1        0.1270
     21  H         18.8260  -19.9490   -6.0430 H       1  UNL1        0.1270
     22  O         18.7320  -21.2440   -3.2490 O.2     1  UNL1       -0.2740
     23  S         25.2560  -22.1700  -10.8950 S.O2    1  UNL1        0.2610
     24  O         25.6720  -20.7860  -10.8170 O.2     1  UNL1       -0.2000
     25  O         26.0280  -23.2250  -10.2720 O.2     1  UNL1       -0.2000
     26  N         25.0390  -22.5680  -12.5280 N.3     1  UNL1       -0.3020
     27  C         25.6220  -23.8410  -13.0050 C.3     1  UNL1        0.1400
     28  C         24.8930  -24.2890  -14.2720 C.3     1  UNL1        0.0600
     29  C         24.8920  -23.2090  -15.3220 C.2     1  UNL1       -0.0490
     30  C         24.7270  -23.5420  -16.6730 C.2     1  UNL1        0.0080
     31  C         24.9970  -21.8580  -14.9440 C.2     1  UNL1       -0.0330
     32  C         24.6880  -22.5430  -17.6460 C.2     1  UNL1        0.0010
     33  C         24.8050  -21.2050  -17.2760 C.2     1  UNL1        0.0010
     34  C         24.9590  -20.8640  -15.9330 C.2     1  UNL1        0.0090
     35  C         25.1860  -21.4570  -13.4950 C.3     1  UNL1        0.1740
@<TRIPOS>BOND
     1    32    33    2
     2    32    30    1
     3    33    34    1
     4    30    29    2
     5    34    31    2
     6    29    31    1
     7    29    28    1
     8    31    35    1
     9    28    27    1
    10    35    26    1
    11    27    26    1
    12    26    23    1
    13     5     6    1
    14     5     4    2
    15    23    24    2
    16    23    25    2
    17    23     4    1
    18     6     1    2
    19     4     3    1
    20    10     7    2
    21     1     7    1
    22     1     2    1
    23     3     2    2
    24     7     8   am
    25    12    11   ar
    26    12    13   ar
    27     8     9    1
    28     8    11    1
    29    11    16   ar
    30    21    19    1
    31    14    13    1
    32    13    15   ar
    33    16    15   ar
    34    16    18    1
    35    19    20    1
    36    19    18   am
    37    15    17    1
    38    18    22    2
