@<TRIPOS>MOLECULE
4380_out_ligand_01.pdbqt
 36 40 0 0 0
SMALL
GASTEIGER

@<TRIPOS>ATOM
      1  O         24.1780  -21.2030  -10.0720 O.2     1  UNL1       -0.2660
      2  C         24.1450  -22.3940  -10.3570 C.2     1  UNL1        0.2770
      3  N         23.1950  -23.3140   -9.9530 N.am    1  UNL1       -0.3220
      4  H         23.3400  -24.2570  -10.3030 H       1  UNL1        0.1690
      5  C         25.1620  -23.0010  -11.2100 C.2     1  UNL1        0.1590
      6  C         25.0250  -23.4360  -12.5130 C.2     1  UNL1        0.1460
      7  N         26.2560  -23.9300  -12.8260 N.pl3   1  UNL1       -0.2800
      8  N         27.1200  -23.7790  -11.8060 N.2     1  UNL1        0.0050
      9  N         26.4570  -23.2250  -10.8010 N.2     1  UNL1       -0.1530
     10  C         26.6900  -24.4830  -14.0950 C.3     1  UNL1        0.1820
     11  C         25.5460  -24.5590  -15.1100 C.3     1  UNL1        0.1730
     12  O         25.5210  -25.8480  -15.7330 O.3     1  UNL1       -0.3890
     13  H         26.1780  -25.8340  -16.4520 H       1  UNL1        0.2100
     14  C         25.7030  -23.4970  -16.1740 C.2     1  UNL1        0.0110
     15  C         26.8450  -22.6850  -16.2550 C.2     1  UNL1        0.0130
     16  C         26.9440  -21.7000  -17.2410 C.2     1  UNL1        0.0010
     17  C         25.9040  -21.5080  -18.1500 C.2     1  UNL1        0.0030
     18  C         24.7570  -22.2940  -18.0690 C.2     1  UNL1        0.0430
     19  C         24.6650  -23.2750  -17.0850 C.2     1  UNL1        0.1250
     20  F         23.5490  -24.0120  -17.0090 F       1  UNL1       -0.2050
     21  C         22.0690  -23.1030   -9.1390 C.2     1  UNL1        0.0350
     22  C         22.0120  -22.1600   -8.1120 C.2     1  UNL1        0.0300
     23  C         20.8470  -22.0090   -7.3450 C.2     1  UNL1        0.0170
     24  C         19.7150  -22.8000   -7.5870 C.2     1  UNL1        0.0100
     25  C         19.7830  -23.7420   -8.6220 C.2     1  UNL1        0.0170
     26  C         20.9440  -23.8950   -9.3880 C.2     1  UNL1        0.0300
     27  C         18.4770  -22.6830   -6.8070 C.ar    1  UNL1        0.1390
     28  N         18.3990  -22.6490   -5.4870 N.ar    1  UNL1       -0.2280
     29  C         17.0660  -22.5240   -5.1820 C.ar    1  UNL1        0.0860
     30  C         16.4340  -22.4400   -3.9340 C.2     1  UNL1        0.0340
     31  C         16.2980  -22.4780   -6.3370 C.ar    1  UNL1        0.0620
     32  C         15.0390  -22.3090   -3.8950 C.2     1  UNL1        0.0020
     33  C         14.2930  -22.2650   -5.0760 C.2     1  UNL1        0.0020
     34  C         14.9080  -22.3480   -6.3310 C.2     1  UNL1        0.0320
     35  N         17.2160  -22.5810   -7.3500 N.ar    1  UNL1       -0.3380
     36  H         16.9980  -22.5720   -8.3330 H       1  UNL1        0.1670
@<TRIPOS>BOND
     1    17    18    2
     2    17    16    1
     3    18    19    1
     4    16    15    2
     5    19    20    1
     6    19    14    2
     7    13    12    1
     8    15    14    1
     9    14    11    1
    10    12    11    1
    11    11    10    1
    12    10     7    1
    13     7     6    1
    14     7     8    1
    15     6     5    2
    16     8     9    2
    17     5     9    1
    18     5     2    1
    19     2     1    2
    20     2     3   am
    21     4     3    1
    22     3    21    1
    23    26    21    2
    24    26    25    1
    25    21    22    1
    26    25    24    2
    27    36    35    1
    28    22    23    2
    29    24    23    1
    30    24    27    1
    31    35    27   ar
    32    35    31   ar
    33    27    28   ar
    34    31    34    1
    35    31    29   ar
    36    34    33    2
    37    28    29   ar
    38    29    30    1
    39    33    32    1
    40    30    32    2
