@<TRIPOS>MOLECULE
43839_out_ligand_01.pdbqt
 31 35 0 0 0
SMALL
GASTEIGER

@<TRIPOS>ATOM
      1  C         22.8120  -22.6030  -11.0690 C.2     1  UNL1        0.0320
      2  C         21.4560  -22.3870  -11.3450 C.2     1  UNL1        0.0170
      3  C         20.4820  -22.8500  -10.4560 C.2     1  UNL1        0.0100
      4  C         20.8470  -23.5200   -9.2790 C.2     1  UNL1       -0.0300
      5  C         22.2090  -23.7180   -9.0020 C.2     1  UNL1        0.0100
      6  C         23.1840  -23.2570   -9.8890 C.2     1  UNL1        0.0170
      7  C         23.8870  -22.1280  -11.9850 C.2     1  UNL1        0.2560
      8  O         25.0580  -22.2930  -11.6590 O.2     1  UNL1       -0.2670
      9  N         23.4460  -21.5580  -13.1610 N.am    1  UNL1       -0.3180
     10  H         22.4650  -21.5710  -13.3960 H       1  UNL1        0.1690
     11  C         24.2850  -21.0650  -14.1450 C.2     1  UNL1        0.1000
     12  C         25.1010  -19.9090  -14.1930 C.2     1  UNL1        0.1720
     13  N         25.7790  -19.7980  -15.3430 N.2     1  UNL1       -0.1810
     14  N         25.4050  -20.8990  -16.0170 N.pl3   1  UNL1       -0.2520
     15  C         24.4840  -21.6780  -15.3630 C.2     1  UNL1        0.1480
     16  C         25.8860  -21.1610  -17.3570 C.3     1  UNL1        0.1540
     17  N         23.9820  -22.8050  -15.9400 N.pl3   1  UNL1       -0.3730
     18  C         24.1940  -23.0100  -17.3720 C.3     1  UNL1        0.1230
     19  H         23.1160  -23.2020  -15.5830 H       1  UNL1        0.1610
     20  C         25.6170  -22.6090  -17.7610 C.3     1  UNL1        0.0410
     21  C         19.7870  -24.0190   -8.3160 C.3     1  UNL1        0.3110
     22  N         18.5200  -23.2800   -8.4290 N.3     1  UNL1        0.0970
     23  C         17.3650  -24.0970   -8.0210 C.3     1  UNL1        0.2770
     24  C         17.3580  -24.4990   -6.5380 C.3     1  UNL1        0.0690
     25  C         17.7610  -23.3700   -5.6230 C.2     1  UNL1       -0.0490
     26  C         17.5930  -23.4980   -4.2380 C.2     1  UNL1        0.0070
     27  C         18.3650  -22.2140   -6.1500 C.2     1  UNL1       -0.0240
     28  C         18.0020  -22.4770   -3.3820 C.2     1  UNL1        0.0010
     29  C         18.5850  -21.3230   -3.9010 C.2     1  UNL1        0.0010
     30  C         18.7620  -21.1880   -5.2780 C.2     1  UNL1        0.0090
     31  C         18.5230  -22.0290   -7.6450 C.3     1  UNL1        0.3110
@<TRIPOS>BOND
     1    20    18    1
     2    20    16    1
     3    18    17    1
     4    16    14    1
     5    14    15    1
     6    14    13    1
     7    17    19    1
     8    17    15    1
     9    15    11    2
    10    13    12    2
    11    12    11    1
    12    11     9    1
    13    10     9    1
    14     9     7   am
    15     7     8    2
    16     7     1    1
    17     2     1    2
    18     2     3    1
    19     1     6    1
    20     3     4    2
    21     6     5    2
    22     4     5    1
    23     4    21    1
    24    22    21    1
    25    22    23    1
    26    22    31    1
    27    23    24    1
    28    31    27    1
    29    24    25    1
    30    27    25    2
    31    27    30    1
    32    25    26    1
    33    30    29    2
    34    26    28    2
    35    29    28    1
