@<TRIPOS>MOLECULE
43878_out_ligand_01.pdbqt
 35 39 0 0 0
SMALL
GASTEIGER

@<TRIPOS>ATOM
      1  C         17.1680  -22.0710  -10.2850 C.ar    1  UNL1        0.1960
      2  N         15.8620  -22.1520  -10.1790 N.ar    1  UNL1       -0.1220
      3  N         15.5760  -22.9830   -9.1390 N.ar    1  UNL1       -0.1330
      4  C         16.7140  -23.3850   -8.5930 C.ar    1  UNL1        0.1400
      5  N         17.7810  -22.8350   -9.3000 N.ar    1  UNL1       -0.2750
      6  S         17.9780  -21.0180  -11.4000 S.3     1  UNL1       -0.0800
      7  C         19.3300  -22.0900  -11.9710 C.3     1  UNL1        0.1850
      8  C         20.6850  -21.4030  -11.8620 C.2     1  UNL1        0.2310
      9  O         20.7580  -20.1770  -11.7590 O.2     1  UNL1       -0.2720
     10  N         21.7510  -22.2810  -11.9390 N.am    1  UNL1       -0.3270
     11  H         21.5220  -23.2720  -11.9110 H       1  UNL1        0.1690
     12  C         23.1250  -21.9750  -11.9960 C.2     1  UNL1        0.0340
     13  C         23.6850  -21.8180  -13.2720 C.2     1  UNL1        0.0320
     14  C         25.0340  -21.4900  -13.4240 C.2     1  UNL1        0.0440
     15  C         25.8240  -21.3180  -12.2960 C.2     1  UNL1        0.1160
     16  F         27.1210  -21.0010  -12.4370 F       1  UNL1       -0.2060
     17  C         25.2900  -21.4700  -11.0240 C.2     1  UNL1        0.0440
     18  C         23.9360  -21.7970  -10.8740 C.2     1  UNL1        0.0320
     19  C         19.1640  -23.0220   -9.0630 C.2     1  UNL1        0.0430
     20  C         19.7870  -24.2210   -9.4250 C.2     1  UNL1        0.0300
     21  C         21.1440  -24.4080   -9.1590 C.2     1  UNL1        0.0020
     22  C         21.8810  -23.3990   -8.5430 C.2     1  UNL1        0.0000
     23  C         21.2670  -22.1970   -8.1960 C.2     1  UNL1        0.0020
     24  C         19.9100  -22.0040   -8.4570 C.2     1  UNL1        0.0300
     25  C         16.8080  -24.3940   -7.4870 C.3     1  UNL1        0.1200
     26  C         16.3630  -23.8880   -6.1230 C.2     1  UNL1       -0.0400
     27  C         15.1770  -24.4170   -5.5770 C.2     1  UNL1        0.0080
     28  C         14.7090  -24.0080   -4.3330 C.2     1  UNL1        0.0010
     29  C         15.4250  -23.0700   -3.6020 C.2     1  UNL1        0.0120
     30  C         16.6260  -22.5410   -4.0930 C.2     1  UNL1       -0.0250
     31  C         17.3320  -21.6070   -3.3170 C.2     1  UNL1        0.0120
     32  C         17.1260  -22.9500   -5.3590 C.2     1  UNL1       -0.0190
     33  C         18.5370  -21.0680   -3.7560 C.2     1  UNL1        0.0010
     34  C         19.0530  -21.4600   -4.9830 C.2     1  UNL1        0.0010
     35  C         18.3600  -22.3850   -5.7700 C.2     1  UNL1        0.0130
@<TRIPOS>BOND
     1    14    13    1
     2    14    15    2
     3    13    12    2
     4    16    15    1
     5    15    17    1
     6    12    10    1
     7    12    18    1
     8     7     8    1
     9     7     6    1
    10    10    11    1
    11    10     8   am
    12     8     9    2
    13     6     1    1
    14    17    18    2
    15     1     2   ar
    16     1     5   ar
    17     2     3   ar
    18    20    21    1
    19    20    19    2
    20     5    19    1
    21     5     4   ar
    22    21    22    2
    23     3     4   ar
    24    19    24    1
    25     4    25    1
    26    22    23    1
    27    24    23    2
    28    25    26    1
    29    26    27    2
    30    26    32    1
    31    35    32    1
    32    35    34    2
    33    27    28    1
    34    32    30    2
    35    34    33    1
    36    28    29    2
    37    30    29    1
    38    30    31    1
    39    33    31    2
