@<TRIPOS>MOLECULE
43931_out_ligand_01.pdbqt
 36 40 0 0 0
SMALL
GASTEIGER

@<TRIPOS>ATOM
      1  C         21.7230  -22.4710  -10.3970 C.2     1  UNL1        0.0750
      2  C         20.8070  -21.8430  -11.2430 C.2     1  UNL1        0.0270
      3  C         21.2200  -21.4010  -12.4990 C.2     1  UNL1        0.0310
      4  C         22.5290  -21.6250  -12.9370 C.2     1  UNL1        0.0350
      5  C         23.4500  -22.2560  -12.0670 C.2     1  UNL1       -0.0220
      6  C         23.0450  -22.6720  -10.7930 C.2     1  UNL1        0.0350
      7  C         24.8620  -22.3660  -12.5690 C.3     1  UNL1        0.0500
      8  C         25.7920  -23.4240  -12.0560 C.3     1  UNL1       -0.0210
      9  C         26.5450  -23.9130  -13.0540 C.3     1  UNL1       -0.0290
     10  C         26.1730  -23.2970  -14.3740 C.3     1  UNL1        0.0350
     11  C         24.7740  -22.7890  -14.0370 C.3     1  UNL1        0.0280
     12  C         24.0800  -21.7290  -14.8930 C.3     1  UNL1        0.1210
     13  N         22.9440  -21.1070  -14.1690 N.pl3   1  UNL1       -0.3800
     14  H         22.1790  -20.8560  -14.7910 H       1  UNL1        0.1600
     15  S         21.1900  -22.9600   -8.7740 S.O2    1  UNL1        0.2450
     16  O         21.2310  -24.4060   -8.7360 O.2     1  UNL1       -0.2060
     17  O         21.8810  -22.1350   -7.8050 O.2     1  UNL1       -0.2060
     18  N         19.5740  -22.4040   -8.7940 N.pl3   1  UNL1       -0.1810
     19  H         19.6130  -21.3820   -8.8180 H       1  UNL1        0.1460
     20  C         18.7490  -22.8810   -7.7280 C.2     1  UNL1        0.0230
     21  C         17.9870  -24.0380   -7.9040 C.2     1  UNL1        0.0240
     22  C         17.1890  -24.5040   -6.8580 C.2     1  UNL1        0.0030
     23  C         17.1510  -23.8140   -5.6430 C.2     1  UNL1        0.0160
     24  C         17.9150  -22.6530   -5.4570 C.2     1  UNL1        0.0490
     25  C         18.7070  -22.1870   -6.5170 C.2     1  UNL1        0.0400
     26  C         17.8630  -21.9010   -4.1520 C.3     1  UNL1        0.4170
     27  F         18.5400  -22.5320   -3.1530 F       1  UNL1       -0.1660
     28  F         16.5940  -21.7350   -3.6920 F       1  UNL1       -0.1660
     29  F         18.4010  -20.6530   -4.2320 F       1  UNL1       -0.1660
     30  C         24.9780  -20.6350  -15.4550 C.2     1  UNL1       -0.0180
     31  C         25.4590  -19.6160  -14.6010 C.2     1  UNL1        0.0110
     32  C         26.2690  -18.5830  -15.0820 C.2     1  UNL1        0.0010
     33  C         26.6120  -18.5360  -16.4330 C.2     1  UNL1        0.0010
     34  C         26.1640  -19.5370  -17.2990 C.2     1  UNL1        0.0190
     35  C         25.3640  -20.5830  -16.8150 C.2     1  UNL1        0.0190
     36 BR         24.8610  -21.9060  -18.0950 Br      1  UNL1       -0.0500
@<TRIPOS>BOND
     1    36    35    1
     2    34    35    1
     3    34    33    2
     4    35    30    2
     5    33    32    1
     6    30    12    1
     7    30    31    1
     8    32    31    2
     9    12    13    1
    10    12    11    1
    11    14    13    1
    12    10    11    1
    13    10     9    1
    14    13     4    1
    15    11     7    1
    16     9     8    1
    17     4     3    2
    18     4     5    1
    19     7     5    1
    20     7     8    1
    21     3     2    1
    22     5     6    2
    23     2     1    2
    24     6     1    1
    25     1    15    1
    26    19    18    1
    27    18    15    1
    28    18    20    1
    29    15    16    2
    30    15    17    2
    31    21    20    2
    32    21    22    1
    33    20    25    1
    34    22    23    2
    35    25    24    2
    36    23    24    1
    37    24    26    1
    38    29    26    1
    39    26    28    1
    40    26    27    1
