@<TRIPOS>MOLECULE
43937_out_ligand_01.pdbqt
 35 37 0 0 0
SMALL
GASTEIGER

@<TRIPOS>ATOM
      1  C         21.5470  -22.7340  -10.0510 C.2     1  UNL1        0.0800
      2  C         20.8220  -23.7250   -9.3860 C.2     1  UNL1        0.0280
      3  C         19.4360  -23.7910   -9.5460 C.2     1  UNL1        0.0390
      4  C         18.7700  -22.8660  -10.3590 C.2     1  UNL1        0.0750
      5  C         19.5050  -21.8600  -11.0170 C.2     1  UNL1       -0.0270
      6  C         18.8140  -20.8420  -11.8840 C.3     1  UNL1        0.0510
      7  C         20.8970  -21.7960  -10.8550 C.2     1  UNL1        0.0340
      8  O         17.4150  -22.8270  -10.5610 O.2     1  UNL1       -0.3420
      9  C         16.5980  -22.1720   -9.5990 C.3     1  UNL1        0.2780
     10  C         16.2970  -22.9940   -8.3370 C.2     1  UNL1        0.2460
     11  O         15.9300  -24.1610   -8.4300 O.2     1  UNL1       -0.2710
     12  N         16.4700  -22.2630   -7.1730 N.am    1  UNL1       -0.3250
     13  H         16.8110  -21.3140   -7.3280 H       1  UNL1        0.1690
     14  C         16.2920  -22.6800   -5.8340 C.2     1  UNL1        0.0490
     15  C         15.1630  -23.4050   -5.4300 C.2     1  UNL1        0.0300
     16  C         14.9980  -23.8140   -4.1030 C.2     1  UNL1        0.0020
     17  C         15.9620  -23.5050   -3.1530 C.2     1  UNL1        0.0010
     18  C         17.0900  -22.7850   -3.5320 C.2     1  UNL1        0.0180
     19  C         17.2690  -22.3580   -4.8670 C.2     1  UNL1        0.0740
     20  C         18.5400  -21.6130   -5.1880 C.3     1  UNL1        0.4190
     21  F         19.2960  -21.3500   -4.0840 F       1  UNL1       -0.1660
     22  F         18.3340  -20.4000   -5.7810 F       1  UNL1       -0.1660
     23  F         19.3490  -22.3040   -6.0370 F       1  UNL1       -0.1660
     24  S         23.3070  -22.6490   -9.8350 S.O2    1  UNL1        0.2630
     25  O         23.6890  -21.2700   -9.6160 O.2     1  UNL1       -0.2000
     26  O         23.6730  -23.6800   -8.8860 O.2     1  UNL1       -0.2000
     27  N         23.8890  -23.1680  -11.3360 N.pl3   1  UNL1       -0.2810
     28  H         24.4420  -24.0180  -11.2270 H       1  UNL1        0.1790
     29  C         24.3860  -22.1810  -12.2300 C.2     1  UNL1        0.0420
     30  C         23.5670  -21.6840  -13.2430 C.2     1  UNL1        0.0300
     31  C         24.0710  -20.7470  -14.1470 C.2     1  UNL1        0.0090
     32  C         25.4000  -20.3140  -14.0520 C.2     1  UNL1       -0.0620
     33  C         25.9300  -19.2870  -15.0100 C.3     1  UNL1        0.0480
     34  C         26.2100  -20.8170  -13.0270 C.2     1  UNL1        0.0090
     35  C         25.7070  -21.7550  -12.1240 C.2     1  UNL1        0.0300
@<TRIPOS>BOND
     1    33    32    1
     2    31    32    2
     3    31    30    1
     4    32    34    1
     5    30    29    2
     6    34    35    2
     7    29    35    1
     8    29    27    1
     9     6     5    1
    10    27    28    1
    11    27    24    1
    12     5     7    1
    13     5     4    2
    14     7     1    2
    15     8     4    1
    16     8     9    1
    17     4     3    1
    18     1    24    1
    19     1     2    1
    20    24    25    2
    21    24    26    2
    22     9    10    1
    23     3     2    2
    24    11    10    2
    25    10    12   am
    26    13    12    1
    27    12    14    1
    28    23    20    1
    29    14    15    2
    30    14    19    1
    31    22    20    1
    32    15    16    1
    33    20    19    1
    34    20    21    1
    35    19    18    2
    36    16    17    2
    37    18    17    1
