@<TRIPOS>MOLECULE
43948_out_ligand_01.pdbqt
 28 31 0 0 0
SMALL
GASTEIGER

@<TRIPOS>ATOM
      1  C         22.7410  -22.1910   -9.8850 C.2     1  UNL1        0.0320
      2  C         21.5560  -22.2930  -10.6230 C.2     1  UNL1        0.0170
      3  C         20.3230  -22.3150   -9.9660 C.2     1  UNL1        0.0100
      4  C         20.2550  -22.2460   -8.5670 C.2     1  UNL1       -0.0300
      5  C         21.4460  -22.1590   -7.8330 C.2     1  UNL1        0.0100
      6  C         22.6810  -22.1370   -8.4870 C.2     1  UNL1        0.0170
      7  C         24.0800  -22.1670  -10.5370 C.2     1  UNL1        0.2510
      8  O         24.7920  -21.1740  -10.4410 O.2     1  UNL1       -0.2680
      9  N         24.4260  -23.2900  -11.2590 N.am    1  UNL1       -0.3530
     10  H         23.7030  -23.9530  -11.4970 H       1  UNL1        0.1630
     11  C         25.6280  -23.3290  -12.0610 C.3     1  UNL1        0.1610
     12  C         25.2930  -23.2860  -13.5290 C.2     1  UNL1       -0.0410
     13  C         25.4360  -24.4260  -14.3320 C.2     1  UNL1        0.0090
     14  C         25.1030  -24.3830  -15.6870 C.2     1  UNL1        0.0010
     15  C         24.6190  -23.2020  -16.2500 C.2     1  UNL1        0.0000
     16  C         24.4660  -22.0650  -15.4590 C.2     1  UNL1        0.0010
     17  C         24.7990  -22.1070  -14.1050 C.2     1  UNL1        0.0090
     18  C         18.9150  -22.2690   -7.8590 C.3     1  UNL1        0.3110
     19  N         18.2770  -23.5950   -7.8820 N.3     1  UNL1        0.0970
     20  C         17.0000  -23.5800   -8.6150 C.3     1  UNL1        0.2770
     21  C         15.9020  -22.7200   -7.9700 C.3     1  UNL1        0.0690
     22  C         15.8360  -22.8820   -6.4720 C.2     1  UNL1       -0.0490
     23  C         14.7560  -22.3470   -5.7580 C.2     1  UNL1        0.0070
     24  C         16.8870  -23.5120   -5.7800 C.2     1  UNL1       -0.0240
     25  C         14.7070  -22.4550   -4.3690 C.2     1  UNL1        0.0010
     26  C         15.7370  -23.0930   -3.6820 C.2     1  UNL1        0.0010
     27  C         16.8200  -23.6240   -4.3840 C.2     1  UNL1        0.0090
     28  C         18.0470  -24.1360   -6.5290 C.3     1  UNL1        0.3110
@<TRIPOS>BOND
     1    15    14    2
     2    15    16    1
     3    14    13    1
     4    16    17    2
     5    13    12    2
     6    17    12    1
     7    12    11    1
     8    11     9    1
     9    10     9    1
    10     9     7   am
    11     2     3    1
    12     2     1    2
    13     7     8    2
    14     7     1    1
    15     3     4    2
    16     1     6    1
    17    20    21    1
    18    20    19    1
    19     4    18    1
    20     4     5    1
    21     6     5    2
    22    21    22    1
    23    19    18    1
    24    19    28    1
    25    28    24    1
    26    22    24    2
    27    22    23    1
    28    24    27    1
    29    23    25    2
    30    27    26    2
    31    25    26    1
