@<TRIPOS>MOLECULE
43949_out_ligand_01.pdbqt
 38 42 0 0 0
SMALL
GASTEIGER

@<TRIPOS>ATOM
      1  C         22.5360  -22.1200  -11.5000 C.3     1  UNL1        0.0990
      2  N         21.2920  -21.4750  -11.9280 N.pl3   1  UNL1       -0.2830
      3  C         20.1490  -21.8360  -11.2020 C.2     1  UNL1        0.0160
      4  C         18.8960  -21.6140  -11.7900 C.2     1  UNL1        0.0250
      5  C         17.7190  -21.9300  -11.1130 C.2     1  UNL1        0.0260
      6  C         17.7960  -22.4530   -9.8230 C.2     1  UNL1        0.0750
      7  C         19.0340  -22.6280   -9.2000 C.2     1  UNL1        0.0340
      8  C         20.2210  -22.3220   -9.8880 C.2     1  UNL1       -0.0270
      9  C         21.5440  -22.4620   -9.1840 C.3     1  UNL1        0.0490
     10  C         21.9540  -23.8770   -8.8800 C.3     1  UNL1       -0.0210
     11  C         23.2730  -24.0450   -9.0240 C.3     1  UNL1       -0.0290
     12  C         23.9380  -22.7830   -9.4710 C.3     1  UNL1        0.0340
     13  C         22.7570  -21.9330   -9.9830 C.3     1  UNL1        0.0230
     14  H         21.3780  -20.4600  -11.9660 H       1  UNL1        0.1280
     15  C         23.6400  -21.5940  -12.4170 C.2     1  UNL1       -0.0340
     16  C         24.8350  -21.0260  -11.9390 C.2     1  UNL1        0.0480
     17  C         25.8080  -20.5480  -12.8220 C.2     1  UNL1        0.1040
     18  C         25.5770  -20.6350  -14.2040 C.2     1  UNL1        0.1350
     19  C         24.3720  -21.1470  -14.7080 C.2     1  UNL1        0.1040
     20  C         23.4200  -21.6310  -13.8090 C.2     1  UNL1        0.0480
     21  O         27.0060  -19.9980  -12.4430 O.2     1  UNL1       -0.3530
     22  C         26.9760  -18.9440  -11.4920 C.3     1  UNL1        0.2100
     23  O         26.5180  -20.1210  -15.0710 O.2     1  UNL1       -0.3510
     24  C         26.2810  -18.7280  -15.2680 C.3     1  UNL1        0.2100
     25  O         24.2260  -21.1480  -16.0710 O.2     1  UNL1       -0.3530
     26  C         24.5730  -22.3440  -16.7540 C.3     1  UNL1        0.2100
     27  S         16.3110  -22.8780   -8.9430 S.O2    1  UNL1        0.2460
     28  O         15.1930  -22.4490   -9.7560 O.2     1  UNL1       -0.2060
     29  O         16.4290  -24.2470   -8.4900 O.2     1  UNL1       -0.2060
     30  N         16.3460  -21.8510   -7.5990 N.pl3   1  UNL1       -0.1780
     31  H         17.0750  -21.1420   -7.7030 H       1  UNL1        0.1460
     32  C         16.2420  -22.4350   -6.2980 C.2     1  UNL1        0.0610
     33  C         15.0110  -22.8390   -5.7850 C.2     1  UNL1        0.0270
     34  C         14.9510  -23.4480   -4.5280 C.2     1  UNL1        0.0020
     35  C         16.1170  -23.6540   -3.7850 C.2     1  UNL1        0.0030
     36  C         17.3500  -23.2500   -4.2980 C.2     1  UNL1        0.0440
     37  C         17.4040  -22.6450   -5.5490 C.2     1  UNL1        0.1380
     38  F         18.5920  -22.2650   -6.0450 F       1  UNL1       -0.2040
@<TRIPOS>BOND
     1    26    25    1
     2    25    19    1
     3    24    23    1
     4    23    18    1
     5    19    18    2
     6    19    20    1
     7    18    17    1
     8    20    15    2
     9    17    21    1
    10    17    16    2
    11    21    22    1
    12    15    16    1
    13    15     1    1
    14    14     2    1
    15     2     1    1
    16     2     3    1
    17     4     3    2
    18     4     5    1
    19     1    13    1
    20     3     8    1
    21     5     6    2
    22    13    12    1
    23    13     9    1
    24     8     7    2
    25     8     9    1
    26     6     7    1
    27     6    27    1
    28    28    27    2
    29    12    11    1
    30     9    10    1
    31    11    10    1
    32    27    29    2
    33    27    30    1
    34    31    30    1
    35    30    32    1
    36    32    33    2
    37    32    37    1
    38    38    37    1
    39    33    34    1
    40    37    36    2
    41    34    35    2
    42    36    35    1
