@<TRIPOS>MOLECULE
43951_out_ligand_01.pdbqt
 32 34 0 0 0
SMALL
GASTEIGER

@<TRIPOS>ATOM
      1  N         19.5490  -23.0600  -10.5510 N.am    1  UNL1       -0.3330
      2  H         19.2260  -23.9790  -10.8400 H       1  UNL1        0.1680
      3  C         20.9380  -22.8430  -10.6430 C.2     1  UNL1        0.0340
      4  C         21.3920  -22.1020  -11.7420 C.2     1  UNL1        0.0310
      5  C         22.7530  -21.8290  -11.9080 C.2     1  UNL1        0.0270
      6  C         23.6650  -22.2750  -10.9510 C.2     1  UNL1        0.0800
      7  C         23.2260  -23.0030   -9.8450 C.2     1  UNL1        0.0270
      8  C         21.8630  -23.2700   -9.6840 C.2     1  UNL1        0.0310
      9  S         25.3990  -21.9610  -11.1710 S.O2    1  UNL1        0.2650
     10  O         25.6960  -20.6110  -10.7520 O.2     1  UNL1       -0.2000
     11  O         26.1140  -23.0870  -10.6060 O.2     1  UNL1       -0.2000
     12  N         25.6050  -22.0960  -12.8120 N.am    1  UNL1       -0.2510
     13  C         25.4940  -23.2810  -13.5470 C.2     1  UNL1        0.2270
     14  C         25.6250  -23.0930  -15.0320 C.3     1  UNL1        0.1180
     15  O         25.3360  -24.3780  -13.0380 O.2     1  UNL1       -0.2730
     16  H         25.7510  -21.2010  -13.2690 H       1  UNL1        0.1810
     17  C         18.5120  -22.2150  -10.2380 C.2     1  UNL1        0.1790
     18  S         17.7950  -21.4000  -11.5080 S.2     1  UNL1       -0.0400
     19  N         18.1150  -22.1940   -8.9190 N.am    1  UNL1       -0.2990
     20  C         18.5600  -22.9790   -7.8590 C.2     1  UNL1        0.2580
     21  O         18.9380  -24.1400   -7.9240 O.2     1  UNL1       -0.2670
     22  H         17.6790  -21.3210   -8.6530 H       1  UNL1        0.1710
     23  C         18.3390  -22.3640   -6.5280 C.2     1  UNL1        0.0430
     24  C         19.3000  -21.4350   -6.1060 C.2     1  UNL1        0.0180
     25  C         19.2120  -20.8790   -4.8360 C.2     1  UNL1        0.0020
     26  C         18.1670  -21.2510   -3.9900 C.2     1  UNL1        0.0120
     27  C         17.1800  -22.1630   -4.4050 C.2     1  UNL1       -0.0250
     28  C         16.1260  -22.5050   -3.5430 C.2     1  UNL1        0.0120
     29  C         17.2420  -22.7290   -5.7010 C.2     1  UNL1       -0.0100
     30  C         15.1220  -23.3870   -3.9460 C.2     1  UNL1        0.0010
     31  C         15.1540  -23.9310   -5.2220 C.2     1  UNL1        0.0010
     32  C         16.1970  -23.6030   -6.0920 C.2     1  UNL1        0.0130
@<TRIPOS>BOND
     1    14    13    1
     2    13    15    2
     3    13    12   am
     4    16    12    1
     5    12     9    1
     6     5     4    1
     7     5     6    2
     8     4     3    2
     9    18    17    2
    10     9     6    1
    11     9    10    2
    12     9    11    2
    13     6     7    1
    14     2     1    1
    15     3     1    1
    16     3     8    1
    17     1    17    1
    18    17    19    1
    19     7     8    2
    20    19    22    1
    21    19    20   am
    22    21    20    2
    23    20    23    1
    24    23    24    2
    25    23    29    1
    26    24    25    1
    27    32    29    1
    28    32    31    2
    29    29    27    2
    30    31    30    1
    31    25    26    2
    32    27    26    1
    33    27    28    1
    34    30    28    2
