@<TRIPOS>MOLECULE
4396_out_ligand_01.pdbqt
 37 40 0 0 0
SMALL
GASTEIGER

@<TRIPOS>ATOM
      1  C         22.0860  -23.2680  -10.2220 C.2     1  UNL1        0.0340
      2  C         21.5800  -23.9990   -9.1460 C.2     1  UNL1        0.0300
      3  C         20.2200  -23.9310   -8.8200 C.2     1  UNL1        0.0190
      4  C         19.3500  -23.1410   -9.5750 C.2     1  UNL1        0.0320
      5  C         19.8510  -22.3990  -10.6480 C.2     1  UNL1        0.0190
      6  C         21.2110  -22.4650  -10.9670 C.2     1  UNL1        0.0300
      7  N         23.4400  -23.2700  -10.6170 N.am    1  UNL1       -0.3270
      8  C         24.3610  -22.2470  -10.4860 C.2     1  UNL1        0.2280
      9  O         24.1520  -21.1490   -9.9780 O.2     1  UNL1       -0.2730
     10  H         23.7480  -24.1250  -11.0670 H       1  UNL1        0.1690
     11  C         25.7560  -22.5660  -11.0220 C.3     1  UNL1        0.1050
     12  C         26.3920  -21.3840  -11.7220 C.3     1  UNL1        0.1460
     13  N         26.0740  -21.5790  -13.1220 N.am    1  UNL1       -0.3170
     14  C         25.7370  -22.9170  -13.3790 C.2     1  UNL1        0.2250
     15  C         25.7380  -23.6650  -12.0680 C.3     1  UNL1        0.1190
     16  O         25.4710  -23.4540  -14.4410 O.2     1  UNL1       -0.2730
     17  C         26.2180  -20.5440  -14.0870 C.2     1  UNL1        0.0370
     18  C         25.8650  -20.7290  -15.4270 C.2     1  UNL1        0.0320
     19  C         26.0030  -19.7010  -16.3720 C.2     1  UNL1        0.0390
     20  C         26.4950  -18.4580  -15.9910 C.2     1  UNL1        0.0680
     21  C         26.8410  -18.2550  -14.6590 C.2     1  UNL1        0.0390
     22  C         26.7070  -19.2830  -13.7200 C.2     1  UNL1        0.0320
     23  O         26.6830  -17.3780  -16.8070 O.2     1  UNL1       -0.3560
     24  C         26.8940  -16.1260  -16.1730 C.3     1  UNL1        0.2100
     25  C         17.9140  -23.0930   -9.1930 C.2     1  UNL1        0.2510
     26  O         17.1410  -22.3580   -9.7960 O.2     1  UNL1       -0.2680
     27  N         17.5520  -23.8860   -8.1250 N.am    1  UNL1       -0.3530
     28  H         18.2850  -24.2410   -7.5270 H       1  UNL1        0.1630
     29  C         16.2310  -23.8000   -7.5430 C.3     1  UNL1        0.1610
     30  C         16.3030  -23.3380   -6.1130 C.2     1  UNL1       -0.0380
     31  C         15.3030  -23.6910   -5.2000 C.2     1  UNL1        0.0090
     32  C         15.3580  -23.2370   -3.8830 C.2     1  UNL1        0.0030
     33  C         16.4070  -22.4140   -3.4650 C.2     1  UNL1        0.0370
     34  C         17.4050  -22.0430   -4.3650 C.2     1  UNL1        0.0680
     35  C         17.3480  -22.5060   -5.6830 C.2     1  UNL1        0.0450
     36  O         18.4800  -21.2410   -4.0910 O.2     1  UNL1       -0.3560
     37  C         19.1790  -20.7060   -5.2090 C.3     1  UNL1        0.2100
@<TRIPOS>BOND
     1    23    24    1
     2    23    20    1
     3    19    20    2
     4    19    18    1
     5    20    21    1
     6    18    17    2
     7    21    22    2
     8    16    14    2
     9    17    22    1
    10    17    13    1
    11    14    13   am
    12    14    15    1
    13    13    12    1
    14    15    11    1
    15    12    11    1
    16    10     7    1
    17    11     8    1
    18     6     5    1
    19     6     1    2
    20     5     4    2
    21     7     8   am
    22     7     1    1
    23     8     9    2
    24     1     2    1
    25    26    25    2
    26     4    25    1
    27     4     3    1
    28    25    27   am
    29     2     3    2
    30    27    29    1
    31    27    28    1
    32    29    30    1
    33    30    35    2
    34    30    31    1
    35    35    34    1
    36    37    36    1
    37    31    32    2
    38    34    36    1
    39    34    33    2
    40    32    33    1
