@<TRIPOS>MOLECULE
43972_out_ligand_01.pdbqt
 33 36 0 0 0
SMALL
GASTEIGER

@<TRIPOS>ATOM
      1  N         21.5680  -23.2210   -8.7870 N.am    1  UNL1       -0.3110
      2  C         21.4700  -22.1870   -7.8700 C.2     1  UNL1        0.2570
      3  O         22.2990  -21.3450   -7.5840 O.2     1  UNL1       -0.2670
      4  C         20.1710  -22.3190   -7.2120 C.2     1  UNL1        0.0430
      5  C         19.6420  -21.5440   -6.1960 C.2     1  UNL1        0.0180
      6  C         18.4080  -21.9290   -5.6710 C.2     1  UNL1        0.0010
      7  C         17.7550  -23.0730   -6.1580 C.2     1  UNL1        0.0010
      8  C         18.3180  -23.8430   -7.1840 C.2     1  UNL1        0.0130
      9  C         19.5310  -23.4450   -7.7260 C.2     1  UNL1        0.0130
     10  C         20.3670  -24.0610   -8.8230 C.3     1  UNL1        0.1690
     11  C         22.8160  -23.5190   -9.4830 C.3     1  UNL1        0.1340
     12  C         23.6110  -22.3140  -10.0060 C.3     1  UNL1        0.0580
     13  C         23.8680  -22.2570  -11.4960 C.2     1  UNL1       -0.0570
     14  C         22.9290  -21.7100  -12.3810 C.2     1  UNL1        0.0090
     15  C         23.1820  -21.6630  -13.7530 C.2     1  UNL1        0.0250
     16  C         24.3980  -22.1410  -14.2440 C.2     1  UNL1        0.0740
     17  C         25.3520  -22.6790  -13.3790 C.2     1  UNL1        0.0250
     18  C         25.0890  -22.7270  -12.0090 C.2     1  UNL1        0.0090
     19  S         24.7320  -22.0900  -15.9820 S.O2    1  UNL1        0.2390
     20  O         23.7450  -22.8890  -16.6710 O.2     1  UNL1       -0.2060
     21  O         26.1510  -22.2640  -16.1810 O.2     1  UNL1       -0.2060
     22  N         24.3500  -20.4890  -16.3480 N.3     1  UNL1       -0.2250
     23  H         23.4390  -20.2050  -15.9880 H       1  UNL1        0.1360
     24  H         24.4140  -20.3640  -17.3600 H       1  UNL1        0.1360
     25  O         20.7820  -25.3660   -8.4560 O.3     1  UNL1       -0.3660
     26  H         21.6430  -25.2580   -8.0180 H       1  UNL1        0.2130
     27  C         19.6860  -24.0530  -10.2130 C.3     1  UNL1        0.1050
     28  C         18.9370  -22.7950  -10.6070 C.2     1  UNL1       -0.0530
     29  C         17.5580  -22.6830  -10.3800 C.2     1  UNL1        0.0070
     30  C         16.8730  -21.5230  -10.7440 C.2     1  UNL1        0.0010
     31  C         17.5560  -20.4660  -11.3420 C.2     1  UNL1        0.0000
     32  C         18.9250  -20.5700  -11.5790 C.2     1  UNL1        0.0010
     33  C         19.6130  -21.7280  -11.2170 C.2     1  UNL1        0.0070
@<TRIPOS>BOND
     1    24    22    1
     2    20    19    2
     3    22    23    1
     4    22    19    1
     5    21    19    2
     6    19    16    1
     7    16    15    2
     8    16    17    1
     9    15    14    1
    10    17    18    2
    11    14    13    2
    12    18    13    1
    13    32    31    2
    14    32    33    1
    15    13    12    1
    16    31    30    1
    17    33    28    2
    18    30    29    2
    19    28    29    1
    20    28    27    1
    21    27    10    1
    22    12    11    1
    23    11     1    1
    24    10     1    1
    25    10    25    1
    26    10     9    1
    27     1     2   am
    28    25    26    1
    29     2     3    2
    30     2     4    1
    31     9     4    2
    32     9     8    1
    33     4     5    1
    34     8     7    2
    35     5     6    2
    36     7     6    1
