@<TRIPOS>MOLECULE
43995_out_ligand_01.pdbqt
 34 37 0 0 0
SMALL
GASTEIGER

@<TRIPOS>ATOM
      1  C         17.7360  -21.6750   -5.6170 C.3     1  UNL1        0.2290
      2  C         17.6040  -22.2530   -4.2110 C.3     1  UNL1        0.1410
      3  C         17.6630  -23.7770   -4.1690 C.2     1  UNL1        0.2380
      4  O         18.0410  -24.3690   -3.1590 O.2     1  UNL1       -0.2730
      5  N         17.1650  -24.4620   -5.2460 N.am    1  UNL1       -0.1560
      6  C         16.7910  -23.8170   -6.3860 C.3     1  UNL1        0.7290
      7  N         16.2310  -24.3030   -7.4600 N.2     1  UNL1       -0.0350
      8  C         16.0940  -23.1960   -8.2670 C.2     1  UNL1        0.2260
      9  N         16.5500  -22.0500   -7.7420 N.pl3   1  UNL1       -0.1280
     10  N         17.0050  -22.4890   -6.5590 N.3     1  UNL1       -0.0820
     11  H         17.1110  -25.4700   -5.2010 H       1  UNL1        0.1870
     12  C         19.1960  -21.6200   -6.0470 C.2     1  UNL1        0.2480
     13  N         19.5060  -22.4890   -7.0800 N.am    1  UNL1       -0.3250
     14  H         18.7890  -23.1520   -7.3640 H       1  UNL1        0.1690
     15  O         19.9870  -20.8730   -5.4780 O.2     1  UNL1       -0.2710
     16  C         20.7470  -22.6280   -7.7390 C.2     1  UNL1        0.0340
     17  C         21.0180  -23.8590   -8.3570 C.2     1  UNL1        0.0320
     18  C         22.2200  -24.0690   -9.0520 C.2     1  UNL1        0.0320
     19  C         23.1780  -23.0580   -9.1320 C.2     1  UNL1        0.0340
     20  C         22.9130  -21.8370   -8.5030 C.2     1  UNL1        0.0320
     21  C         21.7080  -21.6220   -7.8140 C.2     1  UNL1        0.0320
     22  N         24.4160  -23.1880   -9.7950 N.am    1  UNL1       -0.3280
     23  C         24.6930  -22.9030  -11.1200 C.2     1  UNL1        0.2180
     24  C         26.1110  -23.2630  -11.4900 C.3     1  UNL1        0.1170
     25  O         23.9270  -22.4250  -11.9440 O.2     1  UNL1       -0.2740
     26  H         25.1910  -23.5020   -9.2270 H       1  UNL1        0.1690
     27  S         15.3930  -23.2560   -9.8600 S.3     1  UNL1       -0.0830
     28  C         15.9690  -21.6650  -10.4990 C.3     1  UNL1        0.1210
     29  C         17.4250  -21.6870  -10.8980 C.2     1  UNL1       -0.0490
     30  C         18.0610  -20.5270  -11.3780 C.2     1  UNL1        0.0080
     31  C         19.4220  -20.5400  -11.6890 C.2     1  UNL1        0.0010
     32  C         20.1610  -21.7170  -11.5300 C.2     1  UNL1        0.0000
     33  C         19.5360  -22.8780  -11.0820 C.2     1  UNL1        0.0010
     34  C         18.1750  -22.8690  -10.7680 C.2     1  UNL1        0.0080
@<TRIPOS>BOND
     1    25    23    2
     2    31    32    2
     3    31    30    1
     4    32    33    1
     5    24    23    1
     6    30    29    2
     7    23    22   am
     8    33    34    2
     9    29    34    1
    10    29    28    1
    11    28    27    1
    12    27     8    1
    13    22    26    1
    14    22    19    1
    15    19    18    2
    16    19    20    1
    17    18    17    1
    18    20    21    2
    19    17    16    2
    20     8     9    1
    21     8     7    2
    22    21    16    1
    23     9    10    1
    24    16    13    1
    25     7     6    1
    26    14    13    1
    27    13    12   am
    28    10     6    1
    29    10     1    1
    30     6     5    1
    31    12     1    1
    32    12    15    2
    33     1     2    1
    34     5    11    1
    35     5     3   am
    36     2     3    1
    37     3     4    2
