@<TRIPOS>MOLECULE
43_out_ligand_01.pdbqt
 29 32 0 0 0
SMALL
GASTEIGER

@<TRIPOS>ATOM
      1  O         23.1220  -23.3030   -9.0320 O.2     1  UNL1       -0.2670
      2  C         22.7770  -22.7930  -10.0940 C.2     1  UNL1        0.2580
      3  N         21.4660  -22.4780  -10.5100 N.am    1  UNL1       -0.3130
      4  C         21.2650  -21.4680  -11.5620 C.3     1  UNL1        0.1330
      5  C         19.8630  -21.4340  -12.1410 C.3     1  UNL1        0.0250
      6  C         18.8710  -21.2180  -11.0210 C.3     1  UNL1        0.0420
      7  C         19.0500  -22.2860   -9.9770 C.2     1  UNL1       -0.0300
      8  C         17.9260  -22.6560   -9.2120 C.2     1  UNL1        0.0190
      9  C         18.0120  -23.6480   -8.2310 C.2     1  UNL1       -0.0270
     10  C         19.2460  -24.2690   -8.0280 C.2     1  UNL1        0.0120
     11  C         20.3700  -23.8910   -8.7740 C.2     1  UNL1        0.0310
     12  C         20.3080  -22.8800   -9.7420 C.2     1  UNL1        0.0430
     13  C         16.7870  -24.0520   -7.4310 C.3     1  UNL1        0.1790
     14  O         15.8350  -24.6660   -8.3070 O.3     1  UNL1       -0.3890
     15  H         15.1980  -23.9800   -8.5670 H       1  UNL1        0.2100
     16  C         16.1540  -22.8300   -6.7080 C.3     1  UNL1        0.3080
     17  N         16.8000  -22.4540   -5.4310 N.3     1  UNL1        0.0910
     18  C         17.3580  -23.5920   -4.7020 C.3     1  UNL1        0.2720
     19  C         17.7430  -23.1710   -3.2780 C.3     1  UNL1        0.0300
     20  C         18.3090  -21.7500   -3.1980 C.3     1  UNL1        0.0030
     21  C         18.8710  -21.3140   -4.5420 C.3     1  UNL1        0.0300
     22  C         17.8120  -21.4050   -5.6500 C.3     1  UNL1        0.2720
     23  C         23.8910  -22.4710  -11.0100 C.2     1  UNL1        0.0350
     24  C         24.1210  -23.2750  -12.1340 C.2     1  UNL1        0.0170
     25  C         25.1900  -22.9820  -12.9830 C.2     1  UNL1        0.0040
     26  C         26.0270  -21.9020  -12.6950 C.2     1  UNL1        0.0420
     27  C         25.7950  -21.1290  -11.5590 C.2     1  UNL1        0.1170
     28  F         26.6080  -20.0990  -11.2900 F       1  UNL1       -0.2060
     29  C         24.7380  -21.4050  -10.7030 C.2     1  UNL1        0.0590
@<TRIPOS>BOND
     1    25    26    2
     2    25    24    1
     3    26    27    1
     4     5     4    1
     5     5     6    1
     6    24    23    2
     7     4     3    1
     8    27    28    1
     9    27    29    2
    10     6     7    1
    11    23    29    1
    12    23     2    1
    13     3     2   am
    14     3    12    1
    15     2     1    2
    16     7    12    2
    17     7     8    1
    18    12    11    1
    19     8     9    2
    20    11    10    2
    21    15    14    1
    22    14    13    1
    23     9    10    1
    24     9    13    1
    25    13    16    1
    26    16    17    1
    27    22    17    1
    28    22    21    1
    29    17    18    1
    30    18    19    1
    31    21    20    1
    32    19    20    1
