@<TRIPOS>MOLECULE
44000_out_ligand_01.pdbqt
 35 39 0 0 0
SMALL
GASTEIGER

@<TRIPOS>ATOM
      1  O         22.3670  -21.0260  -13.8790 O.2     1  UNL1       -0.2720
      2  C         23.0680  -21.7490  -13.1730 C.2     1  UNL1        0.2350
      3  N         22.6640  -22.3860  -12.0080 N.am    1  UNL1       -0.3260
      4  H         23.3730  -22.9340  -11.5320 H       1  UNL1        0.1690
      5  C         21.3930  -22.3630  -11.4030 C.2     1  UNL1        0.0340
      6  C         21.1250  -23.3560  -10.4500 C.2     1  UNL1        0.0310
      7  C         19.8890  -23.4080   -9.7990 C.2     1  UNL1        0.0270
      8  C         18.9150  -22.4560  -10.1000 C.2     1  UNL1        0.0790
      9  C         19.1600  -21.4710  -11.0570 C.2     1  UNL1        0.0270
     10  C         20.4020  -21.4250  -11.7030 C.2     1  UNL1        0.0310
     11  S         17.3430  -22.5310   -9.2820 S.O2    1  UNL1        0.2590
     12  O         17.0130  -23.9260   -9.0930 O.2     1  UNL1       -0.2010
     13  O         16.4310  -21.6130   -9.9290 O.2     1  UNL1       -0.2010
     14  N         17.7170  -21.9280   -7.7680 N.3     1  UNL1       -0.3110
     15  H         17.5800  -20.9240   -7.6650 H       1  UNL1        0.1720
     16  C         18.6360  -22.6470   -6.8790 C.3     1  UNL1        0.0930
     17  C         19.7440  -21.7050   -6.3960 C.3     1  UNL1        0.0260
     18  C         19.2480  -20.6550   -5.4030 C.3     1  UNL1        0.0020
     19  C         18.4960  -21.2890   -4.2380 C.3     1  UNL1        0.0000
     20  C         17.3520  -22.1750   -4.7200 C.3     1  UNL1        0.0020
     21  C         17.8390  -23.2350   -5.7090 C.3     1  UNL1        0.0260
     22  C         24.5400  -22.0070  -13.5480 C.2     1  UNL1        0.1490
     23  C         25.4520  -20.9590  -12.9510 C.2     1  UNL1       -0.0070
     24  C         25.6070  -20.8520  -11.5590 C.2     1  UNL1        0.0110
     25  C         26.1310  -20.0640  -13.7820 C.2     1  UNL1        0.0830
     26  C         26.4230  -19.8590  -11.0150 C.2     1  UNL1        0.0010
     27  C         27.0890  -18.9670  -11.8520 C.2     1  UNL1        0.0030
     28  C         26.9420  -19.0680  -13.2350 C.2     1  UNL1        0.0380
     29  O         26.0420  -20.0890  -15.1520 O.2     1  UNL1       -0.3100
     30  C         25.4310  -21.1630  -15.7510 C.3     1  UNL1        0.0830
     31  C         25.5580  -21.2490  -17.1380 C.2     1  UNL1        0.0380
     32  C         24.7080  -22.1280  -15.0460 C.2     1  UNL1       -0.0070
     33  C         24.9700  -22.3070  -17.8300 C.2     1  UNL1        0.0030
     34  C         24.2550  -23.2800  -17.1350 C.2     1  UNL1        0.0010
     35  C         24.1220  -23.1930  -15.7490 C.2     1  UNL1        0.0110
@<TRIPOS>BOND
     1    33    31    2
     2    33    34    1
     3    31    30    1
     4    34    35    2
     5    30    29    1
     6    30    32    1
     7    35    32    1
     8    29    25    1
     9    32    22    2
    10     1     2    2
    11    25    28    1
    12    25    23    2
    13    22     2    1
    14    22    23    1
    15    28    27    2
    16     2     3   am
    17    23    24    1
    18     3     4    1
    19     3     5    1
    20    27    26    1
    21    10     5    2
    22    10     9    1
    23    24    26    2
    24     5     6    1
    25     9     8    2
    26     6     7    2
    27     8     7    1
    28     8    11    1
    29    13    11    2
    30    11    12    2
    31    11    14    1
    32    14    15    1
    33    14    16    1
    34    16    17    1
    35    16    21    1
    36    17    18    1
    37    21    20    1
    38    18    19    1
    39    20    19    1
