@<TRIPOS>MOLECULE
44096_out_ligand_01.pdbqt
 31 36 0 0 0
SMALL
GASTEIGER

@<TRIPOS>ATOM
      1  C         21.1850  -22.5660  -10.6990 C.2     1  UNL1        0.0320
      2  C         22.4270  -22.9540  -10.1850 C.2     1  UNL1        0.0170
      3  C         23.6010  -22.5970  -10.8540 C.2     1  UNL1        0.0100
      4  C         23.5500  -21.8620  -12.0470 C.2     1  UNL1       -0.0300
      5  C         22.3010  -21.4890  -12.5640 C.2     1  UNL1        0.0100
      6  C         21.1260  -21.8440  -11.8970 C.2     1  UNL1        0.0170
      7  C         19.9050  -22.9240  -10.0240 C.2     1  UNL1        0.2520
      8  O         18.9780  -23.3750  -10.6840 O.2     1  UNL1       -0.2680
      9  N         19.8520  -22.6730   -8.6670 N.am    1  UNL1       -0.3480
     10  H         20.5770  -22.0800   -8.2850 H       1  UNL1        0.1630
     11  C         18.6590  -22.8680   -7.8350 C.3     1  UNL1        0.0340
     12  C         18.5600  -24.3750   -7.4710 C.3     1  UNL1        0.0350
     13  C         17.3330  -24.6520   -6.5900 C.3     1  UNL1       -0.0120
     14  C         17.4430  -23.8270   -5.2980 C.3     1  UNL1        0.0090
     15  C         16.0640  -24.2390   -7.3510 C.3     1  UNL1        0.0090
     16  C         17.5130  -22.3290   -5.6360 C.3     1  UNL1       -0.0120
     17  C         16.2450  -21.9230   -6.4060 C.3     1  UNL1        0.0090
     18  C         18.7470  -22.0630   -6.5150 C.3     1  UNL1        0.0350
     19  C         16.1260  -22.7450   -7.7010 C.3     1  UNL1       -0.0120
     20  C         17.3580  -22.4790   -8.5840 C.3     1  UNL1        0.0350
     21  C         24.8270  -21.4770  -12.7690 C.3     1  UNL1        0.3110
     22  N         25.7040  -22.6280  -13.0370 N.3     1  UNL1        0.0970
     23  C         27.0540  -22.2110  -13.4500 C.3     1  UNL1        0.2770
     24  C         27.1090  -21.4660  -14.7930 C.3     1  UNL1        0.0690
     25  C         26.2250  -22.0870  -15.8460 C.2     1  UNL1       -0.0490
     26  C         26.3260  -21.6700  -17.1790 C.2     1  UNL1        0.0070
     27  C         25.2540  -23.0390  -15.4830 C.2     1  UNL1       -0.0240
     28  C         25.4850  -22.2090  -18.1510 C.2     1  UNL1        0.0010
     29  C         24.5330  -23.1630  -17.7990 C.2     1  UNL1        0.0010
     30  C         24.4200  -23.5790  -16.4730 C.2     1  UNL1        0.0090
     31  C         25.1480  -23.5390  -14.0570 C.3     1  UNL1        0.3110
@<TRIPOS>BOND
     1    28    29    2
     2    28    26    1
     3    29    30    1
     4    26    25    2
     5    30    27    2
     6    25    27    1
     7    25    24    1
     8    27    31    1
     9    24    23    1
    10    31    22    1
    11    23    22    1
    12    22    21    1
    13    21     4    1
    14     5     4    2
    15     5     6    1
    16     4     3    1
    17     6     1    2
    18     3     2    2
    19     1     2    1
    20     1     7    1
    21     8     7    2
    22     7     9   am
    23     9    10    1
    24     9    11    1
    25    20    11    1
    26    20    19    1
    27    11    12    1
    28    11    18    1
    29    19    15    1
    30    19    17    1
    31    12    13    1
    32    15    13    1
    33    13    14    1
    34    18    16    1
    35    17    16    1
    36    16    14    1
