@<TRIPOS>MOLECULE
44106_out_ligand_01.pdbqt
 32 35 0 0 0
SMALL
GASTEIGER

@<TRIPOS>ATOM
      1  C         24.1160  -21.9320  -10.1940 C.ar    1  UNL1        0.1650
      2  N         24.1330  -23.1920   -9.7260 N.ar    1  UNL1       -0.1100
      3  O         23.2510  -23.1510   -8.6490 O.2     1  UNL1       -0.1960
      4  C         22.8060  -21.8600   -8.5620 C.ar    1  UNL1        0.1730
      5  N         23.3460  -21.0540   -9.4500 N.ar    1  UNL1       -0.2080
      6  C         21.8470  -21.5560   -7.4780 C.3     1  UNL1        0.0980
      7  C         20.6180  -22.4480   -7.5580 C.3     1  UNL1        0.1110
      8  C         19.5420  -22.0200   -6.5760 C.2     1  UNL1        0.2220
      9  O         19.6500  -20.9630   -5.9620 O.2     1  UNL1       -0.2730
     10  N         18.5230  -22.9400   -6.4400 N.am    1  UNL1       -0.3220
     11  H         18.7810  -23.9170   -6.5560 H       1  UNL1        0.1690
     12  C         17.2760  -22.7200   -5.8030 C.2     1  UNL1        0.1120
     13  C         16.1670  -22.4660   -6.6220 C.2     1  UNL1        0.1460
     14  F         16.3190  -22.4600   -7.9560 F       1  UNL1       -0.2040
     15  C         14.9000  -22.2130   -6.0950 C.2     1  UNL1        0.0450
     16  C         14.7190  -22.1980   -4.7150 C.2     1  UNL1        0.0060
     17  C         15.8150  -22.4220   -3.8780 C.2     1  UNL1        0.0450
     18  C         17.0800  -22.6710   -4.4190 C.2     1  UNL1        0.1460
     19  F         18.1080  -22.7760   -3.5600 F       1  UNL1       -0.2040
     20  C         24.9010  -21.5020  -11.3850 C.3     1  UNL1        0.1650
     21  S         24.0180  -21.8430  -12.9430 S.3     1  UNL1       -0.0840
     22  C         22.3850  -21.7980  -12.4020 C.ar    1  UNL1        0.1670
     23  N         21.9070  -22.7870  -11.5940 N.ar    1  UNL1       -0.3330
     24  C         20.5960  -22.4960  -11.3160 C.ar    1  UNL1        0.0630
     25  H         22.4250  -23.5950  -11.2960 H       1  UNL1        0.1680
     26  C         19.6280  -23.1510  -10.5540 C.2     1  UNL1        0.0320
     27  C         20.3550  -21.3080  -12.0000 C.ar    1  UNL1        0.0860
     28  C         18.3620  -22.5510  -10.4920 C.2     1  UNL1        0.0090
     29  C         18.0760  -21.3590  -11.1780 C.2     1  UNL1       -0.0600
     30  C         16.7170  -20.7270  -11.0660 C.3     1  UNL1        0.0480
     31  C         19.0820  -20.7240  -11.9310 C.2     1  UNL1        0.0400
     32  N         21.4820  -20.8860  -12.6670 N.ar    1  UNL1       -0.2230
@<TRIPOS>BOND
     1    21    22    1
     2    21    20    1
     3    32    22   ar
     4    32    27   ar
     5    22    23   ar
     6    27    31    1
     7    27    24   ar
     8    31    29    2
     9    23    24   ar
    10    23    25    1
    11    20     1    1
    12    24    26    1
    13    29    30    1
    14    29    28    1
    15    26    28    2
    16     1     2   ar
    17     1     5   ar
    18     2     3   ar
    19     5     4   ar
    20     3     4   ar
    21     4     6    1
    22    14    13    1
    23     7     6    1
    24     7     8    1
    25    13    15    1
    26    13    12    2
    27     8    10   am
    28     8     9    2
    29    11    10    1
    30    10    12    1
    31    15    16    2
    32    12    18    1
    33    16    17    1
    34    18    17    2
    35    18    19    1
