@<TRIPOS>MOLECULE
44136_out_ligand_01.pdbqt
 35 38 0 0 0
SMALL
GASTEIGER

@<TRIPOS>ATOM
      1  C         21.5520  -23.8760   -9.1600 C.3     1  UNL1        0.0500
      2  C         21.6280  -23.0440  -10.4090 C.2     1  UNL1       -0.0380
      3  C         22.8790  -22.9580  -11.0570 C.2     1  UNL1        0.0230
      4  C         23.0410  -22.1890  -12.2290 C.ar    1  UNL1        0.0070
      5  C         24.1320  -21.9110  -13.0960 C.ar    1  UNL1        0.0450
      6  C         23.6710  -21.0650  -14.0840 C.ar    1  UNL1        0.0250
      7  N         22.3440  -20.8240  -13.8600 N.ar    1  UNL1       -0.3580
      8  C         21.9340  -21.5050  -12.7330 C.ar    1  UNL1        0.0450
      9  C         20.6780  -21.5610  -12.1230 C.2     1  UNL1        0.0560
     10  C         20.5360  -22.3490  -10.9620 C.2     1  UNL1        0.0870
     11  C         24.4650  -20.4970  -15.2070 C.3     1  UNL1        0.0670
     12  C         25.9840  -20.5330  -14.8610 C.3     1  UNL1       -0.0360
     13  C         26.7890  -20.3140  -16.1550 C.3     1  UNL1        0.0150
     14  C         26.3370  -19.3930  -13.8820 C.3     1  UNL1        0.0150
     15  C         26.3880  -21.9050  -14.2470 C.3     1  UNL1        0.0930
     16  C         25.5200  -22.3460  -13.0650 C.2     1  UNL1        0.1630
     17  O         25.9670  -23.0760  -12.1840 O.2     1  UNL1       -0.2920
     18  H         21.7450  -20.2360  -14.4250 H       1  UNL1        0.1660
     19  S         18.8900  -22.3850  -10.2580 S.O2    1  UNL1        0.2630
     20  O         18.4650  -23.7700  -10.2360 O.2     1  UNL1       -0.2000
     21  O         18.0470  -21.3710  -10.8480 O.2     1  UNL1       -0.2000
     22  N         19.1870  -21.9770   -8.6390 N.pl3   1  UNL1       -0.2810
     23  H         20.1770  -22.0920   -8.4200 H       1  UNL1        0.1790
     24  C         18.2460  -22.4040   -7.6660 C.2     1  UNL1        0.0420
     25  C         18.6890  -23.0930   -6.5350 C.2     1  UNL1        0.0310
     26  C         17.7770  -23.4710   -5.5490 C.2     1  UNL1        0.0270
     27  C         16.4260  -23.1420   -5.6980 C.2     1  UNL1        0.0740
     28  C         15.9760  -22.4570   -6.8310 C.2     1  UNL1        0.0270
     29  C         16.8940  -22.0840   -7.8150 C.2     1  UNL1        0.0310
     30  S         15.2750  -23.6240   -4.4370 S.O2    1  UNL1        0.2390
     31  O         14.0380  -24.0190   -5.0710 O.2     1  UNL1       -0.2060
     32  O         15.9700  -24.4650   -3.4920 O.2     1  UNL1       -0.2060
     33  N         14.9480  -22.1480   -3.6940 N.3     1  UNL1       -0.2250
     34  H         15.7350  -21.9040   -3.0910 H       1  UNL1        0.1360
     35  H         14.0650  -22.1360   -3.1850 H       1  UNL1        0.1360
@<TRIPOS>BOND
     1    13    12    1
     2    11    12    1
     3    11     6    1
     4    12    15    1
     5    12    14    1
     6    18     7    1
     7    15    16    1
     8     6     7   ar
     9     6     5   ar
    10     7     8   ar
    11     5    16    1
    12     5     4   ar
    13    16    17    2
    14     8     4   ar
    15     8     9    1
    16     4     3    1
    17     9    10    2
    18     3     2    2
    19    10     2    1
    20    10    19    1
    21    21    19    2
    22     2     1    1
    23    19    20    2
    24    19    22    1
    25    22    23    1
    26    22    24    1
    27    29    24    2
    28    29    28    1
    29    24    25    1
    30    28    27    2
    31    25    26    2
    32    27    26    1
    33    27    30    1
    34    31    30    2
    35    30    33    1
    36    30    32    2
    37    33    35    1
    38    33    34    1
