@<TRIPOS>MOLECULE
44139_out_ligand_01.pdbqt
 33 36 0 0 0
SMALL
GASTEIGER

@<TRIPOS>ATOM
      1  C         21.8380  -22.7710   -8.5640 C.2     1  UNL1        0.1060
      2  C         21.4700  -21.8180   -7.5800 C.2     1  UNL1        0.0670
      3  C         20.2670  -22.2410   -7.0400 C.2     1  UNL1        0.1060
      4  O         19.9030  -23.4110   -7.6540 O.2     1  UNL1       -0.3110
      5  C         20.8590  -23.7350   -8.5680 C.2     1  UNL1        0.0720
      6  C         20.6430  -24.9830   -9.3270 C.3     1  UNL1        0.0780
      7  C         19.4650  -21.6390   -6.0220 C.2     1  UNL1        0.1010
      8  N         19.7530  -20.4370   -5.4320 N.pl3   1  UNL1       -0.2750
      9  N         18.8540  -20.0490   -4.5110 N.2     1  UNL1       -0.1860
     10  H         20.5420  -19.8280   -5.6110 H       1  UNL1        0.1890
     11  C         17.9470  -21.0280   -4.5320 C.2     1  UNL1        0.1580
     12  C         18.2890  -22.0650   -5.4260 C.2     1  UNL1        0.0820
     13  C         17.5270  -23.2630   -5.7110 C.2     1  UNL1        0.2570
     14  O         17.5610  -24.2070   -4.9260 O.2     1  UNL1       -0.2670
     15  N         16.8140  -23.3060   -6.9160 N.am    1  UNL1       -0.3480
     16  C         16.6260  -22.1450   -7.7910 C.3     1  UNL1        0.1260
     17  C         15.8470  -24.3890   -7.0740 C.3     1  UNL1        0.1260
     18  C         16.4650  -22.5490   -9.2540 C.3     1  UNL1        0.0200
     19  C         15.3830  -23.6100   -9.4230 C.3     1  UNL1        0.0030
     20  C         15.6790  -24.8090   -8.5310 C.3     1  UNL1        0.0200
     21  S         23.2360  -22.7330   -9.5600 S.O2    1  UNL1        0.2480
     22  O         24.1450  -23.6420   -8.9050 O.2     1  UNL1       -0.2050
     23  O         23.5100  -21.3200   -9.7120 O.2     1  UNL1       -0.2050
     24  N         22.7690  -23.3360  -11.0820 N.pl3   1  UNL1       -0.1810
     25  H         21.7490  -23.3390  -11.1140 H       1  UNL1        0.1460
     26  C         23.3180  -22.6020  -12.1880 C.2     1  UNL1        0.0280
     27  C         24.6180  -22.8910  -12.6140 C.2     1  UNL1        0.0250
     28  C         25.1590  -22.2300  -13.7180 C.2     1  UNL1        0.0080
     29  C         24.4040  -21.2770  -14.4080 C.2     1  UNL1       -0.0610
     30  C         24.9670  -20.6000  -15.6230 C.3     1  UNL1        0.0480
     31  C         23.0930  -21.0110  -13.9900 C.2     1  UNL1        0.0150
     32  C         22.5400  -21.6570  -12.8720 C.2     1  UNL1       -0.0390
     33  C         21.1280  -21.3420  -12.4660 C.3     1  UNL1        0.0500
@<TRIPOS>BOND
     1    30    29    1
     2    29    31    2
     3    29    28    1
     4    31    32    1
     5    28    27    2
     6    32    33    1
     7    32    26    2
     8    27    26    1
     9    26    24    1
    10    25    24    1
    11    24    21    1
    12    23    21    2
    13    21    22    2
    14    21     1    1
    15    19    18    1
    16    19    20    1
    17     6     5    1
    18    18    16    1
    19     5     1    2
    20     5     4    1
    21     1     2    1
    22    20    17    1
    23    16    15    1
    24     4     3    1
    25     2     3    2
    26    17    15    1
    27     3     7    1
    28    15    13   am
    29     7     8    1
    30     7    12    2
    31    13    12    1
    32    13    14    2
    33    10     8    1
    34     8     9    1
    35    12    11    1
    36    11     9    2
