@<TRIPOS>MOLECULE
44130_out_ligand_01.pdbqt
 35 38 0 0 0
SMALL
GASTEIGER

@<TRIPOS>ATOM
      1  C         24.4460  -22.5540  -10.2400 C.3     1  UNL1        0.1050
      2  C         23.9700  -23.4780   -9.1310 C.3     1  UNL1        0.1190
      3  C         22.4880  -23.6220   -9.3680 C.2     1  UNL1        0.2250
      4  O         21.8130  -24.4690   -8.8050 O.2     1  UNL1       -0.2730
      5  N         22.0840  -22.6500  -10.2910 N.am    1  UNL1       -0.3170
      6  C         23.2060  -21.8750  -10.7840 C.3     1  UNL1        0.1460
      7  C         20.7360  -22.3070  -10.6200 C.2     1  UNL1        0.0380
      8  C         20.4510  -21.5080  -11.7450 C.2     1  UNL1        0.0300
      9  C         19.1430  -21.1240  -12.0540 C.2     1  UNL1        0.0030
     10  C         18.0850  -21.5340  -11.2440 C.2     1  UNL1        0.0170
     11  C         18.3390  -22.3360  -10.1300 C.2     1  UNL1        0.0340
     12  C         19.6560  -22.7100   -9.8160 C.2     1  UNL1        0.0460
     13  C         17.2330  -22.7480   -9.2230 C.2     1  UNL1        0.2560
     14  O         16.2390  -23.2510   -9.7200 O.2     1  UNL1       -0.2670
     15  N         17.4650  -22.5030   -7.8810 N.am    1  UNL1       -0.3230
     16  H         18.2910  -21.9680   -7.6470 H       1  UNL1        0.1690
     17  C         16.6190  -22.8160   -6.7950 C.2     1  UNL1        0.0350
     18  C         15.3970  -22.1370   -6.7190 C.2     1  UNL1        0.0290
     19  C         14.5110  -22.3790   -5.6660 C.2     1  UNL1        0.0020
     20  C         14.8390  -23.3060   -4.6760 C.2     1  UNL1        0.0000
     21  C         16.0530  -23.9840   -4.7430 C.2     1  UNL1        0.0020
     22  C         16.9410  -23.7350   -5.7950 C.2     1  UNL1        0.0290
     23  C         25.1990  -23.2930  -11.3310 C.2     1  UNL1        0.2240
     24  N         24.4610  -23.5900  -12.4550 N.am    1  UNL1       -0.3560
     25  H         23.5610  -23.1180  -12.5860 H       1  UNL1        0.1620
     26  O         26.3840  -23.5840  -11.1890 O.2     1  UNL1       -0.2730
     27  C         25.0880  -24.1120  -13.6510 C.3     1  UNL1        0.1610
     28  C         25.1270  -23.0510  -14.7320 C.2     1  UNL1       -0.0400
     29  C         24.7860  -23.3460  -16.0610 C.2     1  UNL1        0.0090
     30  C         24.8010  -22.3430  -17.0330 C.2     1  UNL1        0.0080
     31  C         25.1580  -21.0220  -16.7050 C.2     1  UNL1       -0.0560
     32  C         25.1780  -19.9720  -17.7880 C.3     1  UNL1        0.0490
     33  C         25.4780  -20.7130  -15.3670 C.2     1  UNL1       -0.0560
     34  C         25.4530  -21.7310  -14.3960 C.2     1  UNL1        0.0160
     35  C         25.8560  -19.3160  -14.9440 C.3     1  UNL1        0.0490
@<TRIPOS>BOND
     1    32    31    1
     2    30    31    2
     3    30    29    1
     4    31    33    1
     5    29    28    2
     6    33    35    1
     7    33    34    2
     8    28    34    1
     9    28    27    1
    10    27    24    1
    11    25    24    1
    12    24    23   am
    13     9     8    1
    14     9    10    2
    15     8     7    2
    16    23    26    2
    17    23     1    1
    18    10    11    1
    19     6     5    1
    20     6     1    1
    21     7     5    1
    22     7    12    1
    23     5     3   am
    24     1     2    1
    25    11    12    2
    26    11    13    1
    27    14    13    2
    28     3     2    1
    29     3     4    2
    30    13    15   am
    31    15    16    1
    32    15    17    1
    33    17    18    2
    34    17    22    1
    35    18    19    1
    36    22    21    2
    37    19    20    2
    38    21    20    1
