@<TRIPOS>MOLECULE
44142_out_ligand_01.pdbqt
 36 40 0 0 0
SMALL
GASTEIGER

@<TRIPOS>ATOM
      1  C         19.9220  -21.7370  -10.9060 C.2     1  UNL1        0.0340
      2  C         18.9240  -21.1890  -11.7260 C.2     1  UNL1        0.0200
      3  C         17.5760  -21.3760  -11.4050 C.2     1  UNL1        0.0450
      4  C         17.2250  -22.1150  -10.2770 C.2     1  UNL1        0.1390
      5  F         15.9240  -22.2590   -9.9920 F       1  UNL1       -0.2040
      6  C         18.2110  -22.6720   -9.4730 C.2     1  UNL1        0.1140
      7  C         19.5630  -22.4970   -9.7840 C.2     1  UNL1        0.0450
      8  C         21.3710  -21.5700  -11.2170 C.2     1  UNL1        0.2560
      9  O         22.1480  -21.4590  -10.2780 O.2     1  UNL1       -0.2670
     10  N         21.6790  -21.5180  -12.5650 N.am    1  UNL1       -0.3230
     11  H         20.9080  -21.4910  -13.2180 H       1  UNL1        0.1690
     12  C         22.9620  -21.4070  -13.1440 C.2     1  UNL1        0.0350
     13  C         24.1340  -21.8670  -12.5380 C.2     1  UNL1        0.0320
     14  C         25.3690  -21.7260  -13.1830 C.2     1  UNL1        0.0390
     15  C         25.4350  -21.1390  -14.4470 C.2     1  UNL1        0.0760
     16  C         24.2750  -20.6600  -15.0500 C.2     1  UNL1        0.0390
     17  C         23.0440  -20.8030  -14.4050 C.2     1  UNL1        0.0320
     18  O         26.6190  -20.9370  -15.1180 O.2     1  UNL1       -0.3110
     19  C         26.8120  -19.7050  -15.7000 C.2     1  UNL1        0.0760
     20  C         26.9070  -18.6070  -14.8460 C.2     1  UNL1        0.0370
     21  C         27.0690  -17.3260  -15.3760 C.2     1  UNL1        0.0030
     22  C         27.1210  -17.1450  -16.7580 C.2     1  UNL1        0.0000
     23  C         27.0030  -18.2420  -17.6120 C.2     1  UNL1        0.0030
     24  C         26.8410  -19.5240  -17.0850 C.2     1  UNL1        0.0370
     25  S         17.7250  -23.6300   -8.0720 S.O2    1  UNL1        0.2510
     26  O         16.4480  -24.2260   -8.3980 O.2     1  UNL1       -0.2050
     27  O         18.8540  -24.4650   -7.7070 O.2     1  UNL1       -0.2050
     28  N         17.5460  -22.4470   -6.8580 N.pl3   1  UNL1       -0.1710
     29  C         18.8120  -21.7850   -6.3900 C.3     1  UNL1        0.1180
     30  C         18.5650  -21.3600   -4.9340 C.3     1  UNL1        0.0560
     31  C         17.4060  -22.2180   -4.5490 C.2     1  UNL1       -0.0350
     32  C         16.8620  -22.3820   -3.2840 C.2     1  UNL1        0.0090
     33  C         16.8410  -22.8290   -5.6680 C.2     1  UNL1        0.0310
     34  C         15.7180  -23.1700   -3.1540 C.2     1  UNL1        0.0010
     35  C         15.1250  -23.7550   -4.2830 C.2     1  UNL1        0.0020
     36  C         15.6770  -23.5710   -5.5540 C.2     1  UNL1        0.0250
@<TRIPOS>BOND
     1    23    24    1
     2    23    22    2
     3    24    19    2
     4    22    21    1
     5    19    18    1
     6    19    20    1
     7    21    20    2
     8    18    15    1
     9    16    15    2
    10    16    17    1
    11    15    14    1
    12    17    12    2
    13    11    10    1
    14    14    13    2
    15    12    10    1
    16    12    13    1
    17    10     8   am
    18     2     3    1
    19     2     1    2
    20     3     4    2
    21     8     1    1
    22     8     9    2
    23     1     7    1
    24     4     5    1
    25     4     6    1
    26     7     6    2
    27     6    25    1
    28    26    25    2
    29    25    27    2
    30    25    28    1
    31    28    29    1
    32    28    33    1
    33    29    30    1
    34    33    36    1
    35    33    31    2
    36    36    35    2
    37    30    31    1
    38    31    32    1
    39    35    34    1
    40    32    34    2
