@<TRIPOS>MOLECULE
44154_out_ligand_01.pdbqt
 33 36 0 0 0
SMALL
GASTEIGER

@<TRIPOS>ATOM
      1  C         21.9430  -21.9290  -10.6500 C.2     1  UNL1        0.0810
      2  C         21.5800  -22.7880   -9.6870 C.2     1  UNL1        0.1130
      3  N         20.2810  -23.0560   -9.2890 N.pl3   1  UNL1       -0.3310
      4  C         19.2010  -22.4690   -9.9780 C.2     1  UNL1        0.1440
      5  N         17.9260  -22.8080   -9.6440 N.2     1  UNL1       -0.2350
      6  C         16.8970  -22.2240  -10.3140 C.2     1  UNL1        0.0330
      7  C         15.5050  -22.5900   -9.8910 C.3     1  UNL1        0.0700
      8  C         17.0930  -21.3000  -11.3340 C.2     1  UNL1        0.0280
      9  C         18.3930  -20.9710  -11.6930 C.2     1  UNL1        0.0210
     10  C         19.4580  -21.5630  -11.0110 C.2     1  UNL1        0.0610
     11  C         20.8530  -21.2380  -11.3820 C.2     1  UNL1        0.2010
     12  O         21.0770  -20.4350  -12.2800 O.2     1  UNL1       -0.2860
     13  C         19.9570  -23.9090   -8.1320 C.3     1  UNL1        0.2330
     14  C         19.1800  -23.1550   -7.0500 C.2     1  UNL1        0.2400
     15  O         19.5860  -22.0760   -6.6250 O.2     1  UNL1       -0.2710
     16  N         18.0120  -23.7940   -6.6740 N.am    1  UNL1       -0.3260
     17  H         17.8760  -24.7220   -7.0800 H       1  UNL1        0.1690
     18  C         17.0340  -23.3560   -5.7620 C.2     1  UNL1        0.0370
     19  C         17.1540  -23.4670   -4.3730 C.2     1  UNL1        0.0290
     20  C         16.1420  -22.9920   -3.5290 C.2     1  UNL1        0.0050
     21  C         15.0030  -22.4020   -4.0690 C.2     1  UNL1        0.0420
     22  C         14.8850  -22.2960   -5.4490 C.2     1  UNL1        0.1180
     23  F         13.7900  -21.7290   -5.9770 F       1  UNL1       -0.2060
     24  C         15.8840  -22.7630   -6.2960 C.2     1  UNL1        0.0710
     25  C         23.3890  -21.7670  -10.9400 C.2     1  UNL1        0.1970
     26  O         24.1400  -21.2120  -10.1420 O.2     1  UNL1       -0.2860
     27  C         23.9310  -22.2710  -12.2260 C.2     1  UNL1        0.0150
     28  C         23.8760  -21.5040  -13.3960 C.2     1  UNL1        0.0160
     29  C         24.4220  -22.0020  -14.5810 C.2     1  UNL1        0.0070
     30  C         25.0260  -23.2660  -14.6110 C.2     1  UNL1       -0.0620
     31  C         25.6200  -23.7880  -15.8840 C.3     1  UNL1        0.0480
     32  C         25.1100  -24.0100  -13.4270 C.2     1  UNL1        0.0070
     33  C         24.5720  -23.5130  -12.2380 C.2     1  UNL1        0.0160
@<TRIPOS>BOND
     1    31    30    1
     2    30    29    2
     3    30    32    1
     4    29    28    1
     5    32    33    2
     6    28    27    2
     7    12    11    2
     8    33    27    1
     9    27    25    1
    10     9     8    2
    11     9    10    1
    12    11    10    1
    13    11     1    1
    14     8     6    1
    15    10     4    2
    16    25     1    1
    17    25    26    2
    18     1     2    2
    19     6     7    1
    20     6     5    2
    21     4     5    1
    22     4     3    1
    23     2     3    1
    24     3    13    1
    25    13    14    1
    26    17    16    1
    27    14    16   am
    28    14    15    2
    29    16    18    1
    30    24    18    2
    31    24    22    1
    32    23    22    1
    33    18    19    1
    34    22    21    2
    35    19    20    2
    36    21    20    1
