@<TRIPOS>MOLECULE
44151_out_ligand_01.pdbqt
 31 34 0 0 0
SMALL
GASTEIGER

@<TRIPOS>ATOM
      1  C         18.6600  -22.1910  -10.1250 C.2     1  UNL1        0.0330
      2  C         18.5540  -21.3770  -11.2800 C.2     1  UNL1        0.0180
      3  C         19.6580  -21.1590  -12.1140 C.2     1  UNL1        0.0190
      4  C         20.8440  -21.7760  -11.7680 C.2     1  UNL1        0.0480
      5  C         20.9460  -22.5800  -10.6550 C.2     1  UNL1        0.0490
      6  C         19.8750  -22.8160   -9.8110 C.2     1  UNL1        0.0350
      7  C         22.3160  -23.0740  -10.5910 C.2     1  UNL1        0.2660
      8  O         22.6650  -23.7910   -9.6710 O.2     1  UNL1       -0.2670
      9  N         22.9950  -22.5540  -11.6780 N.am    1  UNL1       -0.2440
     10  C         22.1470  -21.7590  -12.4240 C.2     1  UNL1        0.2660
     11  O         22.3170  -21.1280  -13.4510 O.2     1  UNL1       -0.2670
     12  C         17.4390  -22.3910   -9.2930 C.2     1  UNL1        0.2560
     13  N         17.6620  -22.4780   -7.9310 N.am    1  UNL1       -0.3230
     14  H         18.6000  -22.3020   -7.5980 H       1  UNL1        0.1690
     15  O         16.3590  -22.4320   -9.8690 O.2     1  UNL1       -0.2670
     16  C         16.7040  -22.7080   -6.9200 C.2     1  UNL1        0.0350
     17  C         16.9570  -23.7600   -6.0290 C.2     1  UNL1        0.0290
     18  C         16.0600  -24.0510   -4.9990 C.2     1  UNL1        0.0030
     19  C         14.8970  -23.2990   -4.8520 C.2     1  UNL1        0.0070
     20  C         14.6180  -22.2580   -5.7430 C.2     1  UNL1       -0.0600
     21  C         13.3830  -21.4230   -5.5730 C.3     1  UNL1        0.0480
     22  C         15.5330  -21.9630   -6.7670 C.2     1  UNL1        0.0360
     23  C         24.3740  -22.8020  -11.9820 C.2     1  UNL1        0.0480
     24  C         25.4070  -22.2080  -11.2340 C.2     1  UNL1        0.0300
     25  C         26.7590  -22.4430  -11.5150 C.2     1  UNL1        0.0050
     26  C         27.1210  -23.2810  -12.5620 C.2     1  UNL1        0.0360
     27  C         26.1150  -23.8800  -13.3220 C.2     1  UNL1        0.1050
     28  C         24.7560  -23.6470  -13.0380 C.2     1  UNL1        0.0660
     29  N         26.4860  -24.7600  -14.4380 N.pl3   1  UNL1       -0.1160
     30  O         27.0910  -25.8080  -14.1730 O.2     1  UNL1       -0.5320
     31  O         26.1660  -24.4030  -15.5810 O.2     1  UNL1       -0.5320
@<TRIPOS>BOND
     1    31    29    2
     2    29    30    2
     3    29    27    1
     4    11    10    2
     5    27    28    1
     6    27    26    2
     7    28    23    2
     8    26    25    1
     9    10     4    1
    10    10     9   am
    11     3     4    2
    12     3     2    1
    13    23     9    1
    14    23    24    1
    15     4     5    1
    16     9     7   am
    17    25    24    2
    18     2     1    2
    19     5     7    1
    20     5     6    2
    21     7     8    2
    22     1     6    1
    23     1    12    1
    24    15    12    2
    25    12    13   am
    26    13    14    1
    27    13    16    1
    28    16    22    2
    29    16    17    1
    30    22    20    1
    31    17    18    2
    32    20    21    1
    33    20    19    2
    34    18    19    1
