@<TRIPOS>MOLECULE
44152_out_ligand_01.pdbqt
 31 33 0 0 0
SMALL
GASTEIGER

@<TRIPOS>ATOM
      1  C         18.5740  -23.0790   -9.1830 C.2     1  UNL1        0.0800
      2  C         18.8730  -24.2300   -8.4500 C.2     1  UNL1        0.0280
      3  C         20.1960  -24.6590   -8.3650 C.2     1  UNL1        0.0450
      4  C         21.2050  -23.9400   -9.0090 C.2     1  UNL1        0.1320
      5  F         22.4630  -24.3940   -8.9000 F       1  UNL1       -0.2050
      6  C         20.9200  -22.7840   -9.7420 C.2     1  UNL1        0.0720
      7  C         19.5860  -22.3510   -9.8210 C.2     1  UNL1        0.0450
      8  S         16.8970  -22.5070   -9.3020 S.O2    1  UNL1        0.2590
      9  O         16.0490  -23.6750   -9.3420 O.2     1  UNL1       -0.2010
     10  O         16.8400  -21.4820  -10.3200 O.2     1  UNL1       -0.2010
     11  N         16.6640  -21.7870   -7.8170 N.3     1  UNL1       -0.3100
     12  H         16.6350  -20.7690   -7.8020 H       1  UNL1        0.1720
     13  C         16.6670  -22.5580   -6.5710 C.3     1  UNL1        0.0970
     14  C         15.2080  -22.7610   -6.1410 C.3     1  UNL1        0.0260
     15  C         15.1060  -23.4560   -4.7880 C.3     1  UNL1        0.0020
     16  C         15.8880  -22.7020   -3.7180 C.3     1  UNL1        0.0010
     17  C         17.3430  -22.5010   -4.1290 C.3     1  UNL1        0.0060
     18  C         17.4670  -21.7990   -5.4910 C.3     1  UNL1        0.0050
     19  C         18.9460  -21.6610   -5.8610 C.3     1  UNL1        0.0120
     20  C         21.9640  -21.9930  -10.4630 C.2     1  UNL1        0.2590
     21  O         22.5270  -21.0960   -9.8460 O.2     1  UNL1       -0.2670
     22  N         22.2090  -22.3410  -11.7800 N.am    1  UNL1       -0.3230
     23  H         21.6540  -23.0990  -12.1640 H       1  UNL1        0.1690
     24  C         23.1390  -21.7590  -12.6680 C.2     1  UNL1        0.0360
     25  C         22.7920  -21.1360  -13.8670 C.2     1  UNL1        0.0310
     26  C         23.7780  -20.5820  -14.6930 C.2     1  UNL1        0.0280
     27  C         25.1220  -20.6450  -14.3260 C.2     1  UNL1        0.0550
     28 CL         26.2840  -19.9410  -15.3930 Cl      1  UNL1       -0.0830
     29  C         25.4800  -21.2650  -13.1270 C.2     1  UNL1        0.0580
     30 CL         27.1210  -21.3860  -12.6000 Cl      1  UNL1       -0.0820
     31  C         24.4900  -21.8180  -12.3040 C.2     1  UNL1        0.0550
@<TRIPOS>BOND
     1    28    27    1
     2    26    27    2
     3    26    25    1
     4    27    29    1
     5    25    24    2
     6    29    30    1
     7    29    31    2
     8    24    31    1
     9    24    22    1
    10    23    22    1
    11    22    20   am
    12    20    21    2
    13    20     6    1
    14    10     8    2
    15     7     6    1
    16     7     1    2
    17     6     4    2
    18     9     8    2
    19     8     1    1
    20     8    11    1
    21     1     2    1
    22     4     5    1
    23     4     3    1
    24     2     3    2
    25    11    12    1
    26    11    13    1
    27    13    14    1
    28    13    18    1
    29    14    15    1
    30    19    18    1
    31    18    17    1
    32    15    16    1
    33    17    16    1
