@<TRIPOS>MOLECULE
44179_out_ligand_01.pdbqt
 33 36 0 0 0
SMALL
GASTEIGER

@<TRIPOS>ATOM
      1  C         22.3870  -22.7690  -10.6900 C.2     1  UNL1        0.2580
      2  O         22.5380  -23.7740  -10.0020 O.2     1  UNL1       -0.2670
      3  N         21.1900  -22.1290  -10.9690 N.am    1  UNL1       -0.3130
      4  C         21.0070  -20.9830  -11.8800 C.2     1  UNL1        0.1370
      5  C         19.5040  -20.6840  -11.9560 C.2     1  UNL1        0.0610
      6  C         18.9350  -21.6870  -11.0070 C.2     1  UNL1       -0.0290
      7  C         17.6010  -21.8550  -10.6660 C.2     1  UNL1        0.0180
      8  C         17.2540  -22.8760   -9.7690 C.2     1  UNL1       -0.0400
      9  C         18.2660  -23.6950   -9.2270 C.2     1  UNL1        0.0110
     10  C         19.6080  -23.5140   -9.5800 C.2     1  UNL1        0.0310
     11  C         19.9290  -22.5050  -10.4720 C.2     1  UNL1        0.0430
     12  C         15.8150  -23.0630   -9.3590 C.3     1  UNL1        0.1610
     13  N         15.5690  -22.4500   -8.0760 N.am    1  UNL1       -0.3560
     14  C         15.3240  -23.1930   -6.9420 C.2     1  UNL1        0.2270
     15  O         15.3900  -24.4180   -6.9030 O.2     1  UNL1       -0.2730
     16  H         15.4420  -21.4460   -8.0450 H       1  UNL1        0.1620
     17  C         14.9820  -22.3670   -5.7160 C.3     1  UNL1        0.1760
     18  S         15.2540  -23.3210   -4.1920 S.3     1  UNL1       -0.1550
     19  C         16.5870  -22.3140   -3.4610 C.3     1  UNL1        0.1120
     20  C         17.7030  -22.0890   -4.4520 C.2     1  UNL1       -0.0490
     21  C         18.0630  -23.0990   -5.3600 C.2     1  UNL1        0.0110
     22  C         19.0920  -22.8870   -6.2800 C.2     1  UNL1        0.0430
     23  C         19.7560  -21.6670   -6.2960 C.2     1  UNL1        0.1160
     24  F         20.7440  -21.4660   -7.1790 F       1  UNL1       -0.2060
     25  C         19.4100  -20.6510   -5.4140 C.2     1  UNL1        0.0430
     26  C         18.3830  -20.8590   -4.4920 C.2     1  UNL1        0.0110
     27  C         23.6020  -22.1950  -11.3040 C.2     1  UNL1        0.0320
     28  C         23.8300  -22.3900  -12.6670 C.2     1  UNL1        0.0170
     29  C         24.9740  -21.8510  -13.2540 C.2     1  UNL1        0.0070
     30  C         25.9030  -21.1390  -12.4810 C.2     1  UNL1       -0.0620
     31  C         27.1210  -20.5430  -13.1260 C.3     1  UNL1        0.0480
     32  C         25.6630  -20.9560  -11.1110 C.2     1  UNL1        0.0070
     33  C         24.5190  -21.4920  -10.5180 C.2     1  UNL1        0.0170
@<TRIPOS>BOND
     1    29    28    1
     2    29    30    2
     3    31    30    1
     4    28    27    2
     5    30    32    1
     6     5     4    2
     7     5     6    1
     8     4     3    1
     9    27     1    1
    10    27    33    1
    11    32    33    2
    12     6     7    2
    13     6    11    1
    14     3     1   am
    15     3    11    1
    16     1     2    2
    17     7     8    1
    18    11    10    2
    19     8    12    1
    20     8     9    2
    21    10     9    1
    22    12    13    1
    23    13    16    1
    24    13    14   am
    25    24    23    1
    26    14    15    2
    27    14    17    1
    28    23    22    2
    29    23    25    1
    30    22    21    1
    31    17    18    1
    32    25    26    2
    33    21    20    2
    34    26    20    1
    35    20    19    1
    36    18    19    1
