@<TRIPOS>MOLECULE
44187_out_ligand_01.pdbqt
 33 36 0 0 0
SMALL
GASTEIGER

@<TRIPOS>ATOM
      1  C         19.3990  -22.6070   -9.8830 C.2     1  UNL1        0.0830
      2  C         18.7170  -22.5350   -8.6720 C.2     1  UNL1        0.0700
      3  C         19.4380  -22.3650   -7.4940 C.2     1  UNL1        0.0700
      4  N         20.7910  -22.2840   -7.4920 N.2     1  UNL1       -0.2470
      5  C         21.4560  -22.3570   -8.6530 C.2     1  UNL1        0.0700
      6  C         22.8420  -22.2760   -8.6270 C.2     1  UNL1        0.0330
      7  C         23.6070  -22.3430   -9.7950 C.2     1  UNL1        0.0190
      8  C         22.9760  -22.4850  -11.0300 C.2     1  UNL1        0.0330
      9  C         21.5820  -22.5880  -11.0760 C.2     1  UNL1        0.0330
     10  C         20.8080  -22.5170   -9.8920 C.2     1  UNL1        0.0270
     11  C         23.8150  -22.5540  -12.2600 C.2     1  UNL1        0.2560
     12  O         24.5090  -23.5500  -12.4280 O.2     1  UNL1       -0.2670
     13  N         23.7390  -21.4430  -13.0820 N.am    1  UNL1       -0.3230
     14  H         23.1920  -20.6600  -12.7490 H       1  UNL1        0.1690
     15  C         24.3950  -21.2420  -14.3160 C.2     1  UNL1        0.0360
     16  C         25.2240  -20.1180  -14.4180 C.2     1  UNL1        0.0290
     17  C         25.9080  -19.8460  -15.6030 C.2     1  UNL1        0.0040
     18  C         25.7630  -20.6940  -16.6990 C.2     1  UNL1        0.0180
     19  C         24.9300  -21.8150  -16.6230 C.2     1  UNL1        0.0020
     20  C         24.2600  -22.0880  -15.4230 C.2     1  UNL1        0.0480
     21  S         24.8120  -22.8600  -18.0710 S.3     1  UNL1       -0.1340
     22  C         23.2500  -23.7310  -17.7720 C.3     1  UNL1        0.0950
     23  O         18.8020  -22.7710  -11.1080 O.2     1  UNL1       -0.3500
     24  C         17.9500  -21.7500  -11.6270 C.3     1  UNL1        0.1710
     25  C         18.7040  -20.4390  -11.7740 C.3     1  UNL1        0.0340
     26  C         18.7950  -22.2770   -6.1650 C.2     1  UNL1       -0.0050
     27  C         19.0530  -21.2120   -5.2830 C.2     1  UNL1        0.0140
     28  C         18.4300  -21.1420   -4.0360 C.2     1  UNL1        0.0040
     29  C         17.5400  -22.1400   -3.6470 C.2     1  UNL1        0.0370
     30  C         17.2710  -23.2150   -4.4910 C.2     1  UNL1        0.0690
     31  C         17.8970  -23.2780   -5.7390 C.2     1  UNL1        0.0500
     32  O         16.3840  -24.1290   -3.9890 O.2     1  UNL1       -0.3560
     33  C         15.0320  -24.0120   -4.4150 C.3     1  UNL1        0.2100
@<TRIPOS>BOND
     1    21    22    1
     2    21    19    1
     3    18    19    2
     4    18    17    1
     5    19    20    1
     6    17    16    2
     7    20    15    2
     8    16    15    1
     9    15    13    1
    10    13    14    1
    11    13    11   am
    12    12    11    2
    13    11     8    1
    14    25    24    1
    15    24    23    1
    16    23     1    1
    17     9     8    2
    18     9    10    1
    19     8     7    1
    20    10     1    2
    21    10     5    1
    22     1     2    1
    23     7     6    2
    24     2     3    2
    25     5     6    1
    26     5     4    2
    27     3     4    1
    28     3    26    1
    29    26    31    2
    30    26    27    1
    31    31    30    1
    32    27    28    2
    33    30    32    1
    34    30    29    2
    35    33    32    1
    36    28    29    1
