@<TRIPOS>MOLECULE
44181_out_ligand_01.pdbqt
 37 40 0 0 0
SMALL
GASTEIGER

@<TRIPOS>ATOM
      1  C         19.1000  -22.2140  -10.4980 C.2     1  UNL1        0.0320
      2  C         20.1090  -23.1030  -10.1160 C.2     1  UNL1        0.0190
      3  C         21.4230  -22.9040  -10.5570 C.2     1  UNL1        0.0300
      4  C         21.7410  -21.8170  -11.3740 C.2     1  UNL1        0.0360
      5  C         20.7260  -20.9270  -11.7470 C.2     1  UNL1        0.0300
      6  C         19.4150  -21.1160  -11.3010 C.2     1  UNL1        0.0190
      7  N         23.0330  -21.5750  -11.8810 N.am    1  UNL1       -0.3090
      8  C         24.2010  -21.4320  -11.1610 C.2     1  UNL1        0.3270
      9  O         24.2400  -21.3100   -9.9380 O.2     1  UNL1       -0.2460
     10  N         25.3640  -21.3280  -11.9400 N.am    1  UNL1       -0.2960
     11  C         26.4860  -20.5780  -11.3740 C.3     1  UNL1        0.1440
     12  C         25.4650  -21.6350  -13.3340 C.2     1  UNL1        0.0800
     13  C         26.5150  -19.1710  -11.9440 C.3     1  UNL1        0.1010
     14  S         26.8600  -19.1960  -13.7290 S.3     1  UNL1       -0.1060
     15  C         26.0970  -20.7380  -14.2190 C.2     1  UNL1        0.1210
     16  N         26.1700  -20.9500  -15.5560 N.2     1  UNL1       -0.2440
     17  C         25.6460  -22.0860  -16.0590 C.2     1  UNL1        0.0320
     18  C         25.7530  -22.2990  -17.5400 C.3     1  UNL1        0.0700
     19  C         25.0610  -23.0510  -15.2540 C.2     1  UNL1        0.0350
     20  C         24.9900  -22.8520  -13.8670 C.2     1  UNL1       -0.0300
     21  C         24.4690  -23.9940  -13.0340 C.3     1  UNL1        0.0500
     22  H         23.0870  -21.3060  -12.8530 H       1  UNL1        0.1700
     23  C         17.6920  -22.3920  -10.0550 C.2     1  UNL1        0.2510
     24  N         17.5150  -23.1440   -8.9150 N.am    1  UNL1       -0.3530
     25  H         18.3050  -23.5920   -8.4770 H       1  UNL1        0.1630
     26  O         16.7780  -21.9110  -10.7150 O.2     1  UNL1       -0.2680
     27  C         16.1990  -23.4090   -8.3660 C.3     1  UNL1        0.1640
     28  C         16.0830  -23.0210   -6.9110 C.2     1  UNL1       -0.0040
     29  C         14.8560  -22.6160   -6.3680 C.2     1  UNL1        0.0120
     30  C         14.7630  -22.2140   -5.0340 C.2     1  UNL1        0.0030
     31  C         15.8980  -22.1860   -4.2250 C.2     1  UNL1        0.0390
     32  C         17.1420  -22.5580   -4.7420 C.2     1  UNL1        0.1020
     33  C         17.2180  -22.9910   -6.0800 C.2     1  UNL1        0.1090
     34  O         18.3190  -22.5240   -4.0420 O.2     1  UNL1       -0.3530
     35  C         18.5300  -21.4230   -3.1690 C.3     1  UNL1        0.2100
     36  O         18.4310  -23.3270   -6.6390 O.2     1  UNL1       -0.3520
     37  C         19.2840  -22.1820   -6.7130 C.3     1  UNL1        0.2100
@<TRIPOS>BOND
     1    18    17    1
     2    17    16    2
     3    17    19    1
     4    16    15    1
     5    19    20    2
     6    15    14    1
     7    15    12    2
     8    20    12    1
     9    20    21    1
    10    14    13    1
    11    12    10    1
    12    22     7    1
    13    13    11    1
    14    10    11    1
    15    10     8   am
    16     7     4    1
    17     7     8   am
    18     5     4    2
    19     5     6    1
    20     4     3    1
    21     6     1    2
    22     8     9    2
    23    26    23    2
    24     3     2    2
    25     1     2    1
    26     1    23    1
    27    23    24   am
    28    24    25    1
    29    24    27    1
    30    27    28    1
    31    28    29    2
    32    28    33    1
    33    37    36    1
    34    36    33    1
    35    29    30    1
    36    33    32    2
    37    30    31    2
    38    32    31    1
    39    32    34    1
    40    34    35    1
