@<TRIPOS>MOLECULE
44198_out_ligand_01.pdbqt
 36 40 0 0 0
SMALL
GASTEIGER

@<TRIPOS>ATOM
      1  C         22.9700  -23.0460  -11.2130 C.2     1  UNL1        0.0540
      2  C         21.6920  -22.8680  -10.8280 C.2     1  UNL1        0.1450
      3  O         20.8240  -22.1000  -11.5810 O.2     1  UNL1       -0.3030
      4  C         19.5340  -21.9650  -11.1530 C.2     1  UNL1        0.1030
      5  C         18.7160  -21.1650  -11.9590 C.2     1  UNL1        0.0390
      6  C         17.3830  -20.9630  -11.6170 C.2     1  UNL1        0.0030
      7  C         16.8740  -21.5610  -10.4690 C.2     1  UNL1        0.0020
      8  C         17.6960  -22.3580   -9.6650 C.2     1  UNL1        0.0330
      9  C         19.0420  -22.5740   -9.9970 C.2     1  UNL1        0.0710
     10  N         19.9160  -23.3700   -9.2060 N.am    1  UNL1       -0.3050
     11  C         21.2570  -23.5160   -9.5460 C.2     1  UNL1        0.2820
     12  O         22.0660  -24.1290   -8.8480 O.2     1  UNL1       -0.2650
     13  C         23.5750  -22.4900  -12.4290 C.2     1  UNL1       -0.0330
     14  C         24.8080  -22.9890  -12.8660 C.2     1  UNL1        0.0120
     15  C         25.4000  -22.4990  -14.0340 C.2     1  UNL1        0.0180
     16  C         24.7630  -21.5030  -14.7820 C.2     1  UNL1        0.0320
     17  C         23.5140  -21.0240  -14.3700 C.2     1  UNL1        0.0180
     18  C         22.9250  -21.5180  -13.2010 C.2     1  UNL1        0.0120
     19  C         25.4280  -21.0070  -16.0190 C.2     1  UNL1        0.2510
     20  O         26.1090  -21.7680  -16.6990 O.2     1  UNL1       -0.2680
     21  N         25.2570  -19.6720  -16.3090 N.am    1  UNL1       -0.3510
     22  H         24.9270  -19.0540  -15.5800 H       1  UNL1        0.1630
     23  C         25.9870  -19.0440  -17.3880 C.3     1  UNL1        0.1870
     24  C         26.4320  -17.7040  -16.9380 C.2     1  UNL1        0.0700
     25  C         26.7480  -17.1800  -15.7010 C.2     1  UNL1        0.0360
     26  C         27.0980  -15.8270  -15.9180 C.2     1  UNL1        0.0270
     27  C         26.9690  -15.6100  -17.2690 C.2     1  UNL1        0.1420
     28  O         26.5600  -16.7420  -17.8990 O.2     1  UNL1       -0.3250
     29  C         19.4430  -24.0610   -8.0070 C.3     1  UNL1        0.1740
     30  C         18.9560  -23.1610   -6.8940 C.2     1  UNL1       -0.0010
     31  C         19.6550  -21.9780   -6.5950 C.2     1  UNL1        0.0120
     32  C         19.2440  -21.1490   -5.5480 C.2     1  UNL1        0.0010
     33  C         18.1380  -21.4960   -4.7750 C.2     1  UNL1        0.0030
     34  C         17.4490  -22.6760   -5.0460 C.2     1  UNL1        0.0430
     35  C         17.8610  -23.4980   -6.0920 C.2     1  UNL1        0.1240
     36  F         17.1780  -24.6290   -6.3100 F       1  UNL1       -0.2050
@<TRIPOS>BOND
     1    28    27    1
     2    28    24    1
     3    23    24    1
     4    23    21    1
     5    27    26    2
     6    24    25    2
     7    20    19    2
     8    21    19   am
     9    21    22    1
    10    19    16    1
    11    26    25    1
    12    16    17    2
    13    16    15    1
    14    17    18    1
    15    15    14    2
    16    18    13    2
    17    14    13    1
    18    13     1    1
    19     5     6    1
    20     5     4    2
    21     6     7    2
    22     3     4    1
    23     3     2    1
    24     1     2    2
    25     4     9    1
    26     2    11    1
    27     7     8    1
    28     9     8    2
    29     9    10    1
    30    11    10   am
    31    11    12    2
    32    10    29    1
    33    29    30    1
    34    30    31    2
    35    30    35    1
    36    31    32    1
    37    36    35    1
    38    35    34    2
    39    32    33    2
    40    34    33    1
