@<TRIPOS>MOLECULE
44191_out_ligand_01.pdbqt
 34 37 0 0 0
SMALL
GASTEIGER

@<TRIPOS>ATOM
      1  N         20.3510  -22.9980   -9.2420 N.pl3   1  UNL1       -0.3310
      2  C         21.6460  -22.6950   -9.6270 C.2     1  UNL1        0.1130
      3  C         21.9950  -21.9500  -10.6890 C.2     1  UNL1        0.0810
      4  C         20.8930  -21.3440  -11.4770 C.2     1  UNL1        0.2010
      5  O         21.0950  -20.6050  -12.4380 O.2     1  UNL1       -0.2860
      6  C         19.5030  -21.6430  -11.0650 C.2     1  UNL1        0.0610
      7  C         18.4310  -21.0980  -11.7760 C.2     1  UNL1        0.0210
      8  C         17.1350  -21.3960  -11.3740 C.2     1  UNL1        0.0280
      9  C         16.9520  -22.2330  -10.2790 C.2     1  UNL1        0.0330
     10  C         15.5630  -22.5740   -9.8280 C.3     1  UNL1        0.0700
     11  N         17.9860  -22.7470   -9.5600 N.2     1  UNL1       -0.2350
     12  C         19.2590  -22.4640   -9.9580 C.2     1  UNL1        0.1440
     13  C         20.0380  -23.7720   -8.0310 C.3     1  UNL1        0.2330
     14  C         19.2010  -22.9470   -7.0450 C.2     1  UNL1        0.2400
     15  N         17.9970  -23.5490   -6.7240 N.am    1  UNL1       -0.3260
     16  H         17.7590  -24.3640   -7.2910 H       1  UNL1        0.1690
     17  O         19.6150  -21.8690   -6.6180 O.2     1  UNL1       -0.2710
     18  C         17.0160  -23.1030   -5.8170 C.2     1  UNL1        0.0370
     19  C         17.1850  -23.0850   -4.4340 C.2     1  UNL1        0.0290
     20  C         16.1470  -22.6420   -3.6050 C.2     1  UNL1        0.0050
     21  C         14.9330  -22.2170   -4.1500 C.2     1  UNL1        0.0370
     22  C         14.7510  -22.2280   -5.5320 C.2     1  UNL1        0.0700
     23  C         15.7940  -22.6710   -6.3550 C.2     1  UNL1        0.0660
     24  O         13.6240  -21.8390   -6.2010 O.2     1  UNL1       -0.3560
     25  C         12.9010  -20.7420   -5.6580 C.3     1  UNL1        0.2100
     26  C         23.4440  -21.7530  -10.9470 C.2     1  UNL1        0.1970
     27  O         24.1680  -21.1990  -10.1200 O.2     1  UNL1       -0.2860
     28  C         24.0550  -22.2630  -12.2020 C.2     1  UNL1        0.0150
     29  C         24.5370  -23.5700  -12.3180 C.2     1  UNL1        0.0160
     30  C         25.1560  -23.9830  -13.5050 C.2     1  UNL1        0.0070
     31  C         25.3200  -23.0920  -14.5750 C.2     1  UNL1       -0.0620
     32  C         25.9750  -23.5320  -15.8540 C.3     1  UNL1        0.0480
     33  C         24.8410  -21.7840  -14.4480 C.2     1  UNL1        0.0070
     34  C         24.2210  -21.3690  -13.2670 C.2     1  UNL1        0.0160
@<TRIPOS>BOND
     1    32    31    1
     2    31    33    2
     3    31    30    1
     4    33    34    1
     5    30    29    2
     6    34    28    2
     7     5     4    2
     8    29    28    1
     9    28    26    1
    10     7     8    1
    11     7     6    2
    12     4     6    1
    13     4     3    1
    14     8     9    2
    15     6    12    1
    16    26     3    1
    17    26    27    2
    18     3     2    2
    19     9    10    1
    20     9    11    1
    21    12    11    2
    22    12     1    1
    23     2     1    1
    24     1    13    1
    25    13    14    1
    26    16    15    1
    27    14    15   am
    28    14    17    2
    29    15    18    1
    30    23    18    2
    31    23    22    1
    32    24    25    1
    33    24    22    1
    34    18    19    1
    35    22    21    2
    36    19    20    2
    37    21    20    1
