@<TRIPOS>MOLECULE
44203_out_ligand_01.pdbqt
 34 38 0 0 0
SMALL
GASTEIGER

@<TRIPOS>ATOM
      1  C         16.3310  -21.7820  -10.0530 C.3     1  UNL1        0.1210
      2  C         17.7140  -21.6870  -10.6520 C.2     1  UNL1       -0.0480
      3  C         18.2480  -20.4450  -11.0220 C.2     1  UNL1        0.0090
      4  C         19.5310  -20.3540  -11.5710 C.2     1  UNL1        0.0170
      5  C         20.2950  -21.5120  -11.7640 C.2     1  UNL1        0.0320
      6  C         19.7790  -22.7510  -11.3690 C.2     1  UNL1        0.0170
      7  C         18.4970  -22.8380  -10.8200 C.2     1  UNL1        0.0090
      8  C         21.6590  -21.4750  -12.3620 C.2     1  UNL1        0.2520
      9  O         21.8180  -21.0620  -13.5050 O.2     1  UNL1       -0.2680
     10  N         22.6970  -21.8920  -11.5540 N.am    1  UNL1       -0.3520
     11  H         22.5090  -22.1880  -10.6060 H       1  UNL1        0.1630
     12  C         24.0720  -21.9390  -12.0300 C.3     1  UNL1        0.0840
     13  C         24.4370  -23.3380  -12.5310 C.3     1  UNL1        0.0250
     14  C         25.8440  -23.3780  -13.1350 C.3     1  UNL1        0.0020
     15  C         26.7900  -22.3250  -12.5550 C.3     1  UNL1        0.0000
     16  C         26.4660  -22.0110  -11.1010 C.3     1  UNL1        0.0020
     17  C         25.0420  -21.4780  -10.9270 C.3     1  UNL1        0.0250
     18  S         15.9400  -23.4580   -9.4770 S.3     1  UNL1       -0.0870
     19  C         16.0690  -23.2670   -7.7600 C.ar    1  UNL1        0.1700
     20  N         15.2380  -22.5670   -7.0220 N.ar    1  UNL1       -0.2220
     21  C         15.7070  -22.6860   -5.7390 C.ar    1  UNL1        0.0890
     22  C         15.1980  -22.1430   -4.5580 C.2     1  UNL1        0.0530
     23  C         16.8500  -23.4770   -5.6970 C.ar    1  UNL1        0.0830
     24  C         15.9000  -22.4500   -3.4040 C.2     1  UNL1        0.1180
     25  N         17.0110  -23.2220   -3.3570 N.2     1  UNL1       -0.2710
     26  C         17.5010  -23.7510   -4.5030 C.2     1  UNL1        0.1480
     27  N         17.0740  -23.8290   -7.0130 N.ar    1  UNL1       -0.3190
     28  C         18.1420  -24.6990   -7.4810 C.3     1  UNL1        0.1700
     29  C         19.4190  -23.9480   -7.7720 C.2     1  UNL1       -0.0400
     30  C         19.6090  -22.6310   -7.3260 C.2     1  UNL1        0.0090
     31  C         20.8020  -21.9550   -7.5940 C.2     1  UNL1        0.0010
     32  C         21.8210  -22.5880   -8.3020 C.2     1  UNL1        0.0000
     33  C         21.6490  -23.8970   -8.7450 C.2     1  UNL1        0.0010
     34  C         20.4580  -24.5760   -8.4770 C.2     1  UNL1        0.0090
@<TRIPOS>BOND
     1     9     8    2
     2    14    15    1
     3    14    13    1
     4    15    16    1
     5    13    12    1
     6     8     5    1
     7     8    10   am
     8    12    10    1
     9    12    17    1
    10     5     4    2
    11     5     6    1
    12     4     3    1
    13    10    11    1
    14     6     7    2
    15    16    17    1
    16     3     2    2
    17     7     2    1
    18     2     1    1
    19     1    18    1
    20    18    19    1
    21    33    34    1
    22    33    32    2
    23    34    29    2
    24    32    31    1
    25    29    28    1
    26    29    30    1
    27    19    20   ar
    28    19    27   ar
    29    31    30    2
    30    28    27    1
    31    20    21   ar
    32    27    23   ar
    33    21    23   ar
    34    21    22    1
    35    23    26    1
    36    22    24    2
    37    26    25    2
    38    24    25    1
