@<TRIPOS>MOLECULE
44215_out_ligand_01.pdbqt
 31 34 0 0 0
SMALL
GASTEIGER

@<TRIPOS>ATOM
      1  C         21.4660  -23.1830   -9.6450 C.2     1  UNL1        0.0320
      2  C         21.3890  -22.5040  -10.8680 C.2     1  UNL1        0.0170
      3  C         22.5580  -22.1890  -11.5670 C.2     1  UNL1        0.0100
      4  C         23.8140  -22.5450  -11.0530 C.2     1  UNL1       -0.0300
      5  C         23.8800  -23.2080   -9.8180 C.2     1  UNL1        0.0100
      6  C         22.7150  -23.5210   -9.1150 C.2     1  UNL1        0.0170
      7  C         20.2440  -23.5340   -8.8690 C.2     1  UNL1        0.2560
      8  O         20.0560  -24.7080   -8.5790 O.2     1  UNL1       -0.2670
      9  N         19.4140  -22.4630   -8.5880 N.am    1  UNL1       -0.3230
     10  H         19.6500  -21.5790   -9.0200 H       1  UNL1        0.1690
     11  C         18.2180  -22.4820   -7.8420 C.2     1  UNL1        0.0350
     12  C         18.3250  -22.3190   -6.4560 C.2     1  UNL1        0.0300
     13  C         17.1860  -22.3310   -5.6430 C.2     1  UNL1        0.0180
     14  C         15.9140  -22.5160   -6.2030 C.2     1  UNL1        0.0480
     15  C         15.8110  -22.6740   -7.5910 C.2     1  UNL1        0.0180
     16  C         16.9520  -22.6610   -8.4010 C.2     1  UNL1        0.0300
     17  C         14.6810  -22.5060   -5.3340 C.3     1  UNL1        0.4170
     18  F         13.6850  -21.7200   -5.8330 F       1  UNL1       -0.1660
     19  F         14.1380  -23.7460   -5.1910 F       1  UNL1       -0.1660
     20  F         14.9150  -22.0500   -4.0720 F       1  UNL1       -0.1660
     21  C         25.0850  -22.1950  -11.8010 C.3     1  UNL1        0.3110
     22  N         24.8390  -21.7030  -13.1660 N.3     1  UNL1        0.0970
     23  C         24.9570  -22.8040  -14.1350 C.3     1  UNL1        0.2770
     24  C         24.5080  -22.3490  -15.5300 C.3     1  UNL1        0.0690
     25  C         25.1560  -21.0570  -15.9500 C.2     1  UNL1       -0.0490
     26  C         25.1400  -20.6630  -17.2940 C.2     1  UNL1        0.0070
     27  C         25.7250  -20.2130  -14.9800 C.2     1  UNL1       -0.0240
     28  C         25.7090  -19.4500  -17.6800 C.2     1  UNL1        0.0010
     29  C         26.2910  -18.6190  -16.7250 C.2     1  UNL1        0.0010
     30  C         26.3010  -18.9980  -15.3830 C.2     1  UNL1        0.0090
     31  C         25.7840  -20.6250  -13.5230 C.3     1  UNL1        0.3110
@<TRIPOS>BOND
     1    28    26    1
     2    28    29    2
     3    26    25    2
     4    29    30    1
     5    25    24    1
     6    25    27    1
     7    24    23    1
     8    30    27    2
     9    27    31    1
    10    23    22    1
    11    31    22    1
    12    22    21    1
    13    21     4    1
    14     3     4    2
    15     3     2    1
    16     4     5    1
    17     2     1    2
    18     5     6    2
    19     1     6    1
    20     1     7    1
    21    10     9    1
    22     7     9   am
    23     7     8    2
    24     9    11    1
    25    16    11    2
    26    16    15    1
    27    11    12    1
    28    15    14    2
    29    12    13    2
    30    14    13    1
    31    14    17    1
    32    18    17    1
    33    17    19    1
    34    17    20    1
