@<TRIPOS>MOLECULE
44212_out_ligand_01.pdbqt
 29 32 0 0 0
SMALL
GASTEIGER

@<TRIPOS>ATOM
      1  C         22.7480  -23.2870   -8.9450 C.2     1  UNL1       -0.0330
      2  C         22.3780  -22.1270   -8.2530 C.2     1  UNL1        0.0120
      3  C         21.0620  -21.9550   -7.8120 C.2     1  UNL1        0.0180
      4  C         20.0940  -22.9300   -8.0780 C.2     1  UNL1        0.0320
      5  C         20.4580  -24.0910   -8.7690 C.2     1  UNL1        0.0180
      6  C         21.7760  -24.2620   -9.2070 C.2     1  UNL1        0.0120
      7  C         24.1310  -23.4220   -9.4170 C.2     1  UNL1        0.0540
      8  C         24.5900  -23.0020  -10.6100 C.2     1  UNL1        0.1440
      9  O         23.7490  -22.3900  -11.5330 O.2     1  UNL1       -0.3030
     10  C         26.0410  -23.2370  -10.9130 C.2     1  UNL1        0.2800
     11  C         24.2790  -22.0020  -12.7360 C.2     1  UNL1        0.1030
     12  C         23.4190  -21.3940  -13.6480 C.2     1  UNL1        0.0390
     13  C         25.6200  -22.1950  -13.0590 C.2     1  UNL1        0.0690
     14  C         23.9070  -20.9780  -14.8880 C.2     1  UNL1        0.0030
     15  C         25.2520  -21.1710  -15.2110 C.2     1  UNL1        0.0020
     16  C         26.1120  -21.7810  -14.2960 C.2     1  UNL1        0.0320
     17  N         26.4670  -22.8070  -12.1390 N.am    1  UNL1       -0.3190
     18  H         27.4430  -22.9610  -12.3530 H       1  UNL1        0.1690
     19  O         26.8170  -23.7750  -10.1290 O.2     1  UNL1       -0.2650
     20  C         18.7070  -22.7000   -7.5880 C.2     1  UNL1        0.2520
     21  O         17.8490  -22.2810   -8.3570 O.2     1  UNL1       -0.2680
     22  N         18.4650  -23.0090   -6.2660 N.am    1  UNL1       -0.3520
     23  H         19.2090  -23.3780   -5.6930 H       1  UNL1        0.1630
     24  C         17.1720  -22.7550   -5.6450 C.3     1  UNL1        0.0840
     25  C         17.2950  -22.7200   -4.1190 C.3     1  UNL1        0.0250
     26  C         15.9680  -22.3510   -3.4490 C.3     1  UNL1        0.0020
     27  C         14.7370  -22.7510   -4.2640 C.3     1  UNL1        0.0000
     28  C         14.9930  -23.9990   -5.0970 C.3     1  UNL1        0.0020
     29  C         16.1400  -23.8030   -6.0930 C.3     1  UNL1        0.0250
@<TRIPOS>BOND
     1    15    14    2
     2    15    16    1
     3    14    12    1
     4    16    13    2
     5    12    11    2
     6    13    11    1
     7    13    17    1
     8    11     9    1
     9    18    17    1
    10    17    10   am
    11     9     8    1
    12    10     8    1
    13    10    19    2
    14     8     7    2
    15     7     1    1
    16     6     1    2
    17     6     5    1
    18     1     2    1
    19     5     4    2
    20    21    20    2
    21     2     3    2
    22     4     3    1
    23     4    20    1
    24    20    22   am
    25    22    23    1
    26    22    24    1
    27    29    24    1
    28    29    28    1
    29    24    25    1
    30    28    27    1
    31    27    26    1
    32    25    26    1
