@<TRIPOS>MOLECULE
44220_out_ligand_01.pdbqt
 35 37 0 0 0
SMALL
GASTEIGER

@<TRIPOS>ATOM
      1  N         25.8620  -20.9800  -13.0930 N.am    1  UNL1       -0.3080
      2  C         26.4990  -19.7480  -12.9390 C.2     1  UNL1        0.0120
      3  C         27.0410  -19.3350  -11.5950 C.3     1  UNL1        0.0680
      4  C         26.6160  -18.9260  -13.9950 C.2     1  UNL1        0.0330
      5  C         26.1070  -19.2820  -15.3060 C.2     1  UNL1       -0.0340
      6  C         26.3590  -18.2610  -16.3850 C.3     1  UNL1        0.0500
      7  C         25.4640  -20.4530  -15.4780 C.2     1  UNL1        0.1180
      8  C         24.9240  -20.8680  -16.7250 C.1     1  UNL1        0.1050
      9  N         24.4990  -21.1690  -17.7630 N.1     1  UNL1       -0.1910
     10  C         25.2840  -21.3660  -14.3090 C.2     1  UNL1        0.2690
     11  O         24.6240  -22.4030  -14.4170 O.2     1  UNL1       -0.2660
     12  C         25.6980  -21.9080  -11.9660 C.3     1  UNL1        0.2350
     13  C         24.3700  -21.6760  -11.2350 C.2     1  UNL1        0.2400
     14  N         23.2920  -22.2540  -11.8850 N.am    1  UNL1       -0.3260
     15  H         23.5070  -22.7340  -12.7600 H       1  UNL1        0.1690
     16  O         24.3350  -21.0320  -10.1890 O.2     1  UNL1       -0.2710
     17  C         21.9350  -22.2080  -11.5220 C.2     1  UNL1        0.0340
     18  C         21.3930  -22.8860  -10.4290 C.2     1  UNL1        0.0300
     19  C         20.0290  -22.7760  -10.1330 C.2     1  UNL1        0.0190
     20  C         19.1880  -21.9960  -10.9340 C.2     1  UNL1        0.0320
     21  C         19.7280  -21.3030  -12.0230 C.2     1  UNL1        0.0190
     22  C         21.0920  -21.4170  -12.3140 C.2     1  UNL1        0.0300
     23  C         17.7480  -21.9010  -10.5680 C.2     1  UNL1        0.2510
     24  N         17.2460  -22.9140   -9.7830 N.am    1  UNL1       -0.3570
     25  H         17.8370  -23.6840   -9.5020 H       1  UNL1        0.1620
     26  O         17.0750  -20.9540  -10.9590 O.2     1  UNL1       -0.2680
     27  C         15.8260  -23.0330   -9.5070 C.3     1  UNL1        0.1270
     28  C         15.5180  -24.1110   -8.4610 C.3     1  UNL1        0.0580
     29  C         16.0590  -23.7670   -7.0920 C.2     1  UNL1       -0.0570
     30  C         17.2570  -24.3280   -6.6340 C.2     1  UNL1        0.0070
     31  C         17.7370  -24.0310   -5.3570 C.2     1  UNL1        0.0070
     32  C         17.0210  -23.1750   -4.5110 C.2     1  UNL1       -0.0620
     33  C         17.5550  -22.8260   -3.1530 C.3     1  UNL1        0.0480
     34  C         15.8320  -22.6020   -4.9720 C.2     1  UNL1        0.0070
     35  C         15.3520  -22.8990   -6.2490 C.2     1  UNL1        0.0070
@<TRIPOS>BOND
     1     9     8    3
     2     8     7    1
     3     6     5    1
     4     7     5    2
     5     7    10    1
     6     5     4    1
     7    11    10    2
     8    10     1   am
     9     4     2    2
    10     1     2    1
    11     1    12    1
    12     2     3    1
    13    15    14    1
    14    22    21    1
    15    22    17    2
    16    21    20    2
    17    12    13    1
    18    14    17    1
    19    14    13   am
    20    17    18    1
    21    13    16    2
    22    26    23    2
    23    20    23    1
    24    20    19    1
    25    23    24   am
    26    18    19    2
    27    24    27    1
    28    24    25    1
    29    27    28    1
    30    28    29    1
    31    29    30    2
    32    29    35    1
    33    30    31    1
    34    35    34    2
    35    31    32    2
    36    34    32    1
    37    32    33    1
