@<TRIPOS>MOLECULE
44226_out_ligand_01.pdbqt
 33 36 0 0 0
SMALL
GASTEIGER

@<TRIPOS>ATOM
      1  N         23.0870  -22.5990  -11.2680 N.ar    1  UNL1       -0.2080
      2  N         22.3550  -21.8050  -12.1380 N.ar    1  UNL1       -0.1490
      3  C         21.1490  -21.8670  -11.6590 C.ar    1  UNL1        0.1580
      4  C         19.9380  -21.1940  -12.1710 C.2     1  UNL1        0.0540
      5  C         18.7800  -21.4170  -11.5260 C.2     1  UNL1        0.0220
      6  C         18.7010  -22.3020  -10.3660 C.2     1  UNL1        0.0480
      7  C         19.8260  -22.8790   -9.9060 C.2     1  UNL1        0.1200
      8  N         21.0060  -22.6540  -10.5620 N.ar    1  UNL1       -0.2550
      9  C         22.2550  -23.1620  -10.2880 C.ar    1  UNL1        0.3510
     10  O         22.5690  -23.9390   -9.4030 O.2     1  UNL1       -0.2440
     11  C         24.4990  -22.8810  -11.4350 C.3     1  UNL1        0.2590
     12  C         24.8430  -23.3260  -12.8590 C.2     1  UNL1        0.2420
     13  O         25.1490  -24.4920  -13.0950 O.2     1  UNL1       -0.2710
     14  N         24.9010  -22.2730  -13.7560 N.am    1  UNL1       -0.3260
     15  H         24.7090  -21.3620  -13.3400 H       1  UNL1        0.1690
     16  C         25.2070  -22.3060  -15.1270 C.2     1  UNL1        0.0370
     17  C         26.3700  -21.7640  -15.6810 C.2     1  UNL1        0.0290
     18  C         26.6060  -21.8420  -17.0590 C.2     1  UNL1        0.0050
     19  C         25.6810  -22.4650  -17.8920 C.2     1  UNL1        0.0420
     20  C         24.5290  -23.0050  -17.3390 C.2     1  UNL1        0.1180
     21  F         23.6350  -23.6080  -18.1350 F       1  UNL1       -0.2060
     22  C         24.2830  -22.9320  -15.9710 C.2     1  UNL1        0.0710
     23  C         17.3900  -22.4970   -9.6710 C.2     1  UNL1        0.2530
     24  O         16.3740  -21.9570  -10.0920 O.2     1  UNL1       -0.2680
     25  N         17.4220  -23.3520   -8.5970 N.am    1  UNL1       -0.3530
     26  H         18.2420  -23.9220   -8.4420 H       1  UNL1        0.1630
     27  C         16.2090  -23.7790   -7.9370 C.3     1  UNL1        0.1610
     28  C         16.2170  -23.3570   -6.4910 C.2     1  UNL1       -0.0410
     29  C         15.1040  -22.7060   -5.9400 C.2     1  UNL1        0.0090
     30  C         15.0940  -22.3350   -4.5940 C.2     1  UNL1        0.0010
     31  C         16.1930  -22.6180   -3.7850 C.2     1  UNL1        0.0000
     32  C         17.3010  -23.2720   -4.3200 C.2     1  UNL1        0.0010
     33  C         17.3130  -23.6440   -5.6650 C.2     1  UNL1        0.0090
@<TRIPOS>BOND
     1    21    20    1
     2    19    20    2
     3    19    18    1
     4    20    22    1
     5    18    17    2
     6    22    16    2
     7    17    16    1
     8    16    14    1
     9    14    15    1
    10    14    12   am
    11    13    12    2
    12    12    11    1
    13     4     3    1
    14     4     5    2
    15     2     3   ar
    16     2     1   ar
    17     3     8   ar
    18     5     6    1
    19    11     1    1
    20     1     9   ar
    21     8     9   ar
    22     8     7    1
    23     6     7    2
    24     6    23    1
    25     9    10    2
    26    24    23    2
    27    23    25   am
    28    25    26    1
    29    25    27    1
    30    27    28    1
    31    28    29    2
    32    28    33    1
    33    29    30    1
    34    33    32    2
    35    30    31    2
    36    32    31    1
