@<TRIPOS>MOLECULE
44242_out_ligand_01.pdbqt
 33 36 0 0 0
SMALL
GASTEIGER

@<TRIPOS>ATOM
      1  C         23.4380  -22.7150  -11.1440 C.2     1  UNL1        0.2270
      2  N         22.7090  -21.7810  -11.8220 N.2     1  UNL1       -0.0330
      3  C         21.4860  -21.9830  -11.3730 C.cat   1  UNL1        0.7520
      4  N         20.3520  -21.3080  -11.6890 N.2     1  UNL1       -0.0650
      5  C         19.2580  -21.6830  -11.0910 C.2     1  UNL1        0.0580
      6  C         18.0260  -20.8710  -11.4420 C.3     1  UNL1        0.0720
      7  C         19.1410  -22.8360  -10.0890 C.2     1  UNL1       -0.0040
      8  C         20.3170  -23.4500   -9.7930 C.2     1  UNL1        0.0590
      9  C         20.5120  -24.5710   -8.8050 C.3     1  UNL1        0.0720
     10  N         21.4900  -23.0250  -10.4400 N.pl3   1  UNL1       -0.0610
     11  N         22.7580  -23.4790  -10.2910 N.pl3   1  UNL1       -0.1240
     12  S         25.1610  -22.8840  -11.3320 S.3     1  UNL1       -0.0790
     13  C         25.2550  -23.6030  -12.9900 C.3     1  UNL1        0.1850
     14  C         25.9510  -22.6670  -13.9620 C.2     1  UNL1        0.2310
     15  N         25.2090  -21.5380  -14.2650 N.am    1  UNL1       -0.3270
     16  H         24.2250  -21.5550  -13.9840 H       1  UNL1        0.1690
     17  O         27.0750  -22.9290  -14.3810 O.2     1  UNL1       -0.2720
     18  C         25.6070  -20.4260  -15.0370 C.2     1  UNL1        0.0340
     19  C         25.5720  -20.3850  -16.4330 C.2     1  UNL1        0.0300
     20  C         25.9990  -19.2430  -17.1250 C.2     1  UNL1        0.0090
     21  C         26.4810  -18.1290  -16.4320 C.2     1  UNL1       -0.0620
     22  C         26.9200  -16.9070  -17.1870 C.3     1  UNL1        0.0480
     23  C         26.5130  -18.1680  -15.0350 C.2     1  UNL1        0.0090
     24  C         26.0800  -19.3070  -14.3440 C.2     1  UNL1        0.0300
     25  C         17.8040  -23.1530   -9.4580 C.3     1  UNL1        0.0820
     26  C         17.6790  -22.9380   -7.9600 C.2     1  UNL1       -0.0470
     27  C         18.5450  -21.9970   -7.3590 C.2     1  UNL1        0.0140
     28  C         18.4960  -21.7220   -5.9850 C.2     1  UNL1       -0.0610
     29  C         19.4270  -20.7090   -5.3880 C.3     1  UNL1        0.0480
     30  C         17.5970  -22.4280   -5.1880 C.2     1  UNL1        0.0070
     31  C         16.7560  -23.3860   -5.7590 C.2     1  UNL1        0.0080
     32  C         16.7910  -23.6620   -7.1370 C.2     1  UNL1       -0.0550
     33  C         15.8680  -24.7220   -7.6670 C.3     1  UNL1        0.0490
@<TRIPOS>BOND
     1    22    21    1
     2    20    19    1
     3    20    21    2
     4    19    18    2
     5    21    23    1
     6    18    24    1
     7    18    15    1
     8    23    24    2
     9    17    14    2
    10    15    16    1
    11    15    14   am
    12    14    13    1
    13    13    12    1
    14     2     3    2
    15     2     1    2
    16     4     3    1
    17     4     5    2
    18     6     5    1
    19     3    10    1
    20    12     1    1
    21     1    11    1
    22     5     7    1
    23    10    11    1
    24    10     8    1
    25     7     8    2
    26     7    25    1
    27     8     9    1
    28    25    26    1
    29    26    27    2
    30    26    32    1
    31    33    32    1
    32    27    28    1
    33    32    31    2
    34    28    29    1
    35    28    30    2
    36    31    30    1
