@<TRIPOS>MOLECULE
44259_out_ligand_01.pdbqt
 34 36 0 0 0
SMALL
GASTEIGER

@<TRIPOS>ATOM
      1  C         26.2430  -19.7650  -17.3050 C.3     1  UNL1        0.0500
      2  C         26.1230  -20.4560  -15.9710 C.2     1  UNL1       -0.0340
      3  C         26.4480  -19.6300  -14.8220 C.2     1  UNL1        0.0330
      4  C         26.4280  -20.1160  -13.5690 C.2     1  UNL1        0.0120
      5  C         26.7690  -19.2230  -12.4050 C.3     1  UNL1        0.0680
      6  N         26.0740  -21.4510  -13.3540 N.am    1  UNL1       -0.3080
      7  C         25.6680  -22.2860  -14.4000 C.2     1  UNL1        0.2690
      8  O         25.2340  -23.4220  -14.1930 O.2     1  UNL1       -0.2660
      9  C         25.7450  -21.7370  -15.7890 C.2     1  UNL1        0.1180
     10  C         25.3950  -22.6050  -16.8610 C.1     1  UNL1        0.1050
     11  N         25.1160  -23.2740  -17.7680 N.1     1  UNL1       -0.1910
     12  C         26.0460  -22.0300  -12.0030 C.3     1  UNL1        0.2350
     13  C         24.7050  -21.7860  -11.3050 C.2     1  UNL1        0.2400
     14  O         24.6450  -21.0930  -10.2890 O.2     1  UNL1       -0.2710
     15  N         23.6470  -22.4330  -11.9240 N.am    1  UNL1       -0.3260
     16  H         23.8840  -22.9890  -12.7490 H       1  UNL1        0.1690
     17  C         22.2800  -22.3570  -11.5970 C.2     1  UNL1        0.0340
     18  C         21.4800  -21.5240  -12.3910 C.2     1  UNL1        0.0300
     19  C         20.1190  -21.3660  -12.1100 C.2     1  UNL1        0.0190
     20  C         19.5420  -22.0510  -11.0390 C.2     1  UNL1        0.0320
     21  C         20.3360  -22.8790  -10.2390 C.2     1  UNL1        0.0190
     22  C         21.6990  -23.0300  -10.5200 C.2     1  UNL1        0.0300
     23  C         18.1050  -21.8360  -10.7380 C.2     1  UNL1        0.2510
     24  O         17.5080  -20.8890  -11.2370 O.2     1  UNL1       -0.2680
     25  N         17.5280  -22.7470   -9.8850 N.am    1  UNL1       -0.3530
     26  H         18.0480  -23.5590   -9.5820 H       1  UNL1        0.1630
     27  C         16.1650  -22.6110   -9.4190 C.3     1  UNL1        0.1610
     28  C         16.0900  -22.9300   -7.9460 C.2     1  UNL1       -0.0400
     29  C         16.8420  -23.9920   -7.4190 C.2     1  UNL1        0.0100
     30  C         16.7670  -24.3090   -6.0610 C.2     1  UNL1        0.0240
     31  C         15.9340  -23.5700   -5.2230 C.2     1  UNL1        0.0340
     32 CL         15.8270  -23.9660   -3.5520 Cl      1  UNL1       -0.0840
     33  C         15.1830  -22.5110   -5.7310 C.2     1  UNL1        0.0240
     34  C         15.2630  -22.1910   -7.0900 C.2     1  UNL1        0.0100
@<TRIPOS>BOND
     1    11    10    3
     2     1     2    1
     3    10     9    1
     4     2     9    2
     5     2     3    1
     6     9     7    1
     7     3     4    2
     8     7     8    2
     9     7     6   am
    10     4     6    1
    11     4     5    1
    12     6    12    1
    13    16    15    1
    14    18    19    1
    15    18    17    2
    16    19    20    2
    17    12    13    1
    18    15    17    1
    19    15    13   am
    20    17    22    1
    21    13    14    2
    22    24    23    2
    23    20    23    1
    24    20    21    1
    25    23    25   am
    26    22    21    2
    27    25    26    1
    28    25    27    1
    29    27    28    1
    30    28    29    2
    31    28    34    1
    32    29    30    1
    33    34    33    2
    34    30    31    2
    35    33    31    1
    36    31    32    1
