@<TRIPOS>MOLECULE
44263_out_ligand_01.pdbqt
 37 41 0 0 0
SMALL
GASTEIGER

@<TRIPOS>ATOM
      1  C         16.6450  -21.8280  -10.2120 C.3     1  UNL1        0.1210
      2  C         18.0350  -21.6580  -10.7750 C.2     1  UNL1       -0.0480
      3  C         18.5170  -20.4050  -11.1800 C.2     1  UNL1        0.0090
      4  C         19.8190  -20.2600  -11.6750 C.2     1  UNL1        0.0170
      5  C         20.6730  -21.3670  -11.7590 C.2     1  UNL1        0.0320
      6  C         20.1940  -22.6170  -11.3470 C.2     1  UNL1        0.0170
      7  C         18.8930  -22.7620  -10.8610 C.2     1  UNL1        0.0090
      8  C         22.0820  -21.2980  -12.2580 C.2     1  UNL1        0.2510
      9  N         22.2860  -21.0890  -13.6030 N.am    1  UNL1       -0.3530
     10  H         21.5250  -20.8580  -14.2190 H       1  UNL1        0.1630
     11  O         23.0170  -21.4110  -11.4710 O.2     1  UNL1       -0.2680
     12  C         23.6250  -20.9170  -14.1180 C.3     1  UNL1        0.1610
     13  C         24.2580  -22.2470  -14.4130 C.2     1  UNL1       -0.0410
     14  C         24.8570  -22.9910  -13.3900 C.2     1  UNL1        0.0090
     15  C         25.4650  -24.2160  -13.6700 C.2     1  UNL1        0.0070
     16  C         25.4930  -24.7160  -14.9750 C.2     1  UNL1       -0.0620
     17  C         26.1240  -26.0490  -15.2570 C.3     1  UNL1        0.0480
     18  C         24.8910  -23.9740  -16.0000 C.2     1  UNL1        0.0070
     19  C         24.2890  -22.7460  -15.7210 C.2     1  UNL1        0.0090
     20  S         16.2130  -23.5150   -9.7010 S.3     1  UNL1       -0.0870
     21  C         16.1850  -23.3480   -7.9760 C.ar    1  UNL1        0.1700
     22  N         15.2880  -22.6540   -7.3200 N.ar    1  UNL1       -0.2220
     23  C         15.6740  -22.7080   -6.0080 C.ar    1  UNL1        0.0890
     24  C         15.0780  -22.1280   -4.8870 C.2     1  UNL1        0.0530
     25  C         16.8360  -23.4600   -5.8620 C.ar    1  UNL1        0.0830
     26  C         15.7240  -22.3490   -3.6830 C.2     1  UNL1        0.1180
     27  N         16.8580  -23.0730   -3.5340 N.2     1  UNL1       -0.2710
     28  C         17.4280  -23.6440   -4.6210 C.2     1  UNL1        0.1480
     29  N         17.1400  -23.8790   -7.1430 N.ar    1  UNL1       -0.3180
     30  C         18.3020  -24.6730   -7.5190 C.3     1  UNL1        0.1730
     31  C         19.5340  -23.8330   -7.7270 C.2     1  UNL1       -0.0010
     32  C         19.6120  -22.5250   -7.2200 C.2     1  UNL1        0.0120
     33  C         20.7560  -21.7490   -7.4300 C.2     1  UNL1        0.0010
     34  C         21.8380  -22.2710   -8.1450 C.2     1  UNL1        0.0030
     35  C         21.7770  -23.5720   -8.6410 C.2     1  UNL1        0.0430
     36  C         20.6360  -24.3380   -8.4250 C.2     1  UNL1        0.1240
     37  F         20.6160  -25.5980   -8.8880 F       1  UNL1       -0.2050
@<TRIPOS>BOND
     1    18    19    1
     2    18    16    2
     3    19    13    2
     4    17    16    1
     5    16    15    1
     6    13    12    1
     7    13    14    1
     8    10     9    1
     9    12     9    1
    10    15    14    2
    11     9     8   am
    12     8     5    1
    13     8    11    2
    14     5     4    2
    15     5     6    1
    16     4     3    1
    17     6     7    2
    18     3     2    2
    19     7     2    1
    20     2     1    1
    21     1    20    1
    22    20    21    1
    23    37    36    1
    24    35    36    1
    25    35    34    2
    26    36    31    2
    27    34    33    1
    28    21    22   ar
    29    21    29   ar
    30    31    30    1
    31    31    32    1
    32    30    29    1
    33    33    32    2
    34    22    23   ar
    35    29    25   ar
    36    23    25   ar
    37    23    24    1
    38    25    28    1
    39    24    26    2
    40    28    27    2
    41    26    27    1
