@<TRIPOS>MOLECULE
44276_out_ligand_01.pdbqt
 30 33 0 0 0
SMALL
GASTEIGER

@<TRIPOS>ATOM
      1  C         14.6490  -22.1730   -5.0120 C.3     1  UNL1        0.0480
      2  C         15.7370  -22.7820   -5.8480 C.2     1  UNL1       -0.0600
      3  C         16.6800  -23.6360   -5.2700 C.2     1  UNL1        0.0090
      4  C         17.6950  -24.1870   -6.0510 C.2     1  UNL1        0.0400
      5  C         17.8030  -23.8570   -7.4060 C.2     1  UNL1        0.1020
      6  C         16.8900  -22.9830   -7.9920 C.2     1  UNL1        0.0690
      7  C         15.8500  -22.4610   -7.2080 C.2     1  UNL1        0.0390
      8  N         16.9120  -22.6220   -9.3440 N.am    1  UNL1       -0.3200
      9  C         17.9470  -22.6370  -10.2420 C.2     1  UNL1        0.2590
     10  O         17.7350  -22.2730  -11.3990 O.2     1  UNL1       -0.2670
     11  C         19.3340  -22.9400   -9.8250 C.2     1  UNL1        0.0680
     12  C         20.3690  -22.3070  -10.5380 C.2     1  UNL1        0.0490
     13  C         21.7150  -22.5370  -10.2260 C.2     1  UNL1        0.0360
     14  C         22.0200  -23.4180   -9.1910 C.2     1  UNL1        0.0320
     15  C         20.9970  -24.0640   -8.4910 C.2     1  UNL1        0.0400
     16  C         19.6560  -23.8160   -8.7990 C.2     1  UNL1        0.0920
     17  O         18.7390  -24.5620   -8.1160 O.2     1  UNL1       -0.3070
     18  H         16.0860  -22.1770   -9.7260 H       1  UNL1        0.1690
     19  N         22.6800  -21.8480  -10.9900 N.am    1  UNL1       -0.3230
     20  C         23.6150  -22.3950  -11.8520 C.2     1  UNL1        0.2560
     21  O         23.7340  -23.5770  -12.1510 O.2     1  UNL1       -0.2670
     22  H         22.6320  -20.8390  -10.9510 H       1  UNL1        0.1690
     23  C         24.5270  -21.4070  -12.4920 C.2     1  UNL1        0.0320
     24  C         24.5580  -21.3350  -13.8860 C.2     1  UNL1        0.0170
     25  C         25.3980  -20.4170  -14.5190 C.2     1  UNL1        0.0080
     26  C         26.2250  -19.5640  -13.7700 C.2     1  UNL1       -0.0560
     27  C         27.1190  -18.5920  -14.4900 C.3     1  UNL1        0.0490
     28  C         26.2130  -19.6490  -12.3620 C.2     1  UNL1       -0.0550
     29  C         27.1030  -18.7760  -11.5190 C.3     1  UNL1        0.0490
     30  C         25.3640  -20.5760  -11.7340 C.2     1  UNL1        0.0240
@<TRIPOS>BOND
     1    25    24    1
     2    25    26    2
     3    27    26    1
     4    24    23    2
     5    26    28    1
     6    23    20    1
     7    23    30    1
     8    28    30    2
     9    28    29    1
    10    21    20    2
    11    20    19   am
    12    10     9    2
    13    19    22    1
    14    19    13    1
    15    12    13    1
    16    12    11    2
    17     9    11    1
    18     9     8   am
    19    13    14    2
    20    11    16    1
    21    18     8    1
    22     8     6    1
    23    14    15    1
    24    16    15    2
    25    16    17    1
    26    17     5    1
    27     6     5    2
    28     6     7    1
    29     5     4    1
    30     7     2    2
    31     4     3    2
    32     2     3    1
    33     2     1    1
