@<TRIPOS>MOLECULE
44299_out_ligand_01.pdbqt
 34 38 0 0 0
SMALL
GASTEIGER

@<TRIPOS>ATOM
      1  N         23.3670  -22.5910   -9.2910 N.pl3   1  UNL1       -0.2430
      2  H         24.0920  -23.1330   -8.8150 H       1  UNL1        0.1350
      3  C         23.5500  -22.4550  -10.6420 C.ar    1  UNL1        0.1230
      4  N         24.7540  -22.6980  -11.2860 N.ar    1  UNL1       -0.2920
      5  C         25.9970  -23.1470  -10.8640 C.2     1  UNL1        0.1190
      6  C         24.5570  -22.4140  -12.6160 C.ar    1  UNL1        0.1530
      7  C         26.9800  -23.2700  -11.7740 C.2     1  UNL1        0.1340
      8  N         26.8350  -22.9780  -13.1220 N.2     1  UNL1       -0.2680
      9  C         25.6620  -22.5660  -13.5230 C.2     1  UNL1        0.1670
     10  N         23.3290  -22.0430  -12.8900 N.ar    1  UNL1       -0.2250
     11  C         22.6770  -22.1200  -11.6750 C.ar    1  UNL1        0.1080
     12  C         21.2640  -21.8130  -11.5420 C.2     1  UNL1       -0.0040
     13  C         20.3110  -22.8200  -11.3520 C.2     1  UNL1        0.0140
     14  C         18.9550  -22.4970  -11.2260 C.2     1  UNL1        0.0070
     15  C         18.5330  -21.1650  -11.3090 C.2     1  UNL1       -0.0620
     16  C         17.0830  -20.8160  -11.1430 C.3     1  UNL1        0.0480
     17  C         19.4850  -20.1590  -11.5030 C.2     1  UNL1        0.0070
     18  C         20.8390  -20.4820  -11.6290 C.2     1  UNL1        0.0140
     19  C         22.1260  -22.9710   -8.7180 C.2     1  UNL1        0.0140
     20  C         21.6380  -24.2580   -8.9710 C.2     1  UNL1        0.0250
     21  C         20.3990  -24.6600   -8.4660 C.2     1  UNL1        0.0190
     22  C         19.6100  -23.7580   -7.7450 C.2     1  UNL1        0.0320
     23  C         20.0710  -22.4560   -7.5190 C.2     1  UNL1        0.0190
     24  C         21.3210  -22.0660   -8.0110 C.2     1  UNL1        0.0250
     25  C         18.2940  -24.2160   -7.2280 C.2     1  UNL1        0.2510
     26  O         18.2360  -25.1080   -6.3890 O.2     1  UNL1       -0.2680
     27  N         17.1880  -23.6140   -7.7830 N.am    1  UNL1       -0.3510
     28  H         17.2940  -23.1470   -8.6740 H       1  UNL1        0.1630
     29  C         15.8700  -24.1200   -7.4770 C.3     1  UNL1        0.1870
     30  C         15.3980  -23.4690   -6.2320 C.2     1  UNL1        0.0700
     31  C         14.7640  -22.2750   -5.9630 C.2     1  UNL1        0.0360
     32  C         14.5730  -22.2300   -4.5600 C.2     1  UNL1        0.0270
     33  C         15.0930  -23.4010   -4.0640 C.2     1  UNL1        0.1420
     34  O         15.5870  -24.1670   -5.0710 O.2     1  UNL1       -0.3250
@<TRIPOS>BOND
     1     9     8    2
     2     9     6    1
     3     8     7    1
     4    10     6   ar
     5    10    11   ar
     6     6     4   ar
     7     7     5    2
     8    11    12    1
     9    11     3   ar
    10    18    12    2
    11    18    17    1
    12    12    13    1
    13    17    15    2
    14    13    14    2
    15    15    14    1
    16    15    16    1
    17     4     5    1
    18     4     3   ar
    19     3     1    1
    20     1     2    1
    21     1    19    1
    22    20    19    2
    23    20    21    1
    24    19    24    1
    25    28    27    1
    26    21    22    2
    27    24    23    2
    28    27    29    1
    29    27    25   am
    30    22    23    1
    31    22    25    1
    32    29    30    1
    33    25    26    2
    34    30    31    2
    35    30    34    1
    36    31    32    1
    37    34    33    1
    38    32    33    2
