@<TRIPOS>MOLECULE
44301_out_ligand_01.pdbqt
 34 38 0 0 0
SMALL
GASTEIGER

@<TRIPOS>ATOM
      1  C         21.2070  -21.7370  -10.6130 C.2     1  UNL1        0.0340
      2  C         20.4720  -21.0410  -11.5910 C.2     1  UNL1        0.0190
      3  C         19.0710  -21.1240  -11.6470 C.2     1  UNL1        0.0360
      4  C         18.4210  -21.9090  -10.6900 C.ar    1  UNL1        0.0930
      5  N         17.0910  -22.1730  -10.4910 N.ar    1  UNL1       -0.2260
      6  C         17.0810  -22.9450   -9.4210 C.ar    1  UNL1        0.1470
      7  O         18.3210  -23.2450   -8.9170 O.2     1  UNL1       -0.2930
      8  C         19.1780  -22.5670   -9.7340 C.ar    1  UNL1        0.1070
      9  C         20.5630  -22.5200   -9.6410 C.2     1  UNL1        0.0560
     10  C         22.6900  -21.5890  -10.6180 C.2     1  UNL1        0.2520
     11  O         23.2650  -21.1420   -9.6330 O.2     1  UNL1       -0.2680
     12  N         23.3340  -21.9490  -11.7850 N.am    1  UNL1       -0.3520
     13  H         22.7780  -22.0440  -12.6240 H       1  UNL1        0.1630
     14  C         24.7710  -21.7390  -11.9520 C.3     1  UNL1        0.0880
     15  C         25.5620  -22.9440  -11.4270 C.3     1  UNL1        0.0550
     16  C         25.9980  -23.8580  -12.5670 C.3     1  UNL1        0.2750
     17  N         26.9010  -23.1720  -13.5000 N.3     1  UNL1        0.0920
     18  C         26.5560  -21.7610  -13.7340 C.3     1  UNL1        0.2750
     19  C         25.1010  -21.4290  -13.4180 C.3     1  UNL1        0.0550
     20  C         27.0470  -23.9440  -14.7450 C.3     1  UNL1        0.3110
     21  C         26.1830  -23.4290  -15.8780 C.2     1  UNL1       -0.0300
     22  C         26.6890  -22.4970  -16.7960 C.2     1  UNL1        0.0090
     23  C         25.9000  -22.0400  -17.8530 C.2     1  UNL1        0.0010
     24  C         24.5990  -22.5150  -18.0080 C.2     1  UNL1        0.0000
     25  C         24.0870  -23.4480  -17.1070 C.2     1  UNL1        0.0010
     26  C         24.8740  -23.9060  -16.0490 C.2     1  UNL1        0.0090
     27  C         15.9150  -23.5380   -8.7150 C.3     1  UNL1        0.0910
     28  C         16.3170  -24.4170   -7.5290 C.3     1  UNL1        0.0460
     29  C         16.2070  -23.7210   -6.1930 C.2     1  UNL1       -0.0580
     30  C         14.9990  -23.1320   -5.7980 C.2     1  UNL1        0.0070
     31  C         14.9030  -22.4730   -4.5700 C.2     1  UNL1        0.0010
     32  C         16.0130  -22.3940   -3.7310 C.2     1  UNL1        0.0000
     33  C         17.2200  -22.9740   -4.1180 C.2     1  UNL1        0.0010
     34  C         17.3170  -23.6330   -5.3430 C.2     1  UNL1        0.0070
@<TRIPOS>BOND
     1    24    23    2
     2    24    25    1
     3    23    22    1
     4    25    26    2
     5    22    21    2
     6    26    21    1
     7    21    20    1
     8    20    17    1
     9    18    17    1
    10    18    19    1
    11    17    16    1
    12    19    14    1
    13    13    12    1
    14    16    15    1
    15    14    12    1
    16    14    15    1
    17    12    10   am
    18     3     2    1
    19     3     4    2
    20     2     1    2
    21     4     5   ar
    22     4     8   ar
    23    10     1    1
    24    10    11    2
    25     1     9    1
    26     5     6   ar
    27     8     9    2
    28     8     7   ar
    29     6     7   ar
    30     6    27    1
    31    27    28    1
    32    28    29    1
    33    29    30    2
    34    29    34    1
    35    30    31    1
    36    34    33    2
    37    31    32    2
    38    33    32    1
