@<TRIPOS>MOLECULE
44302_out_ligand_01.pdbqt
 37 41 0 0 0
SMALL
GASTEIGER

@<TRIPOS>ATOM
      1  C         16.5210  -21.8080  -10.2000 C.3     1  UNL1        0.1210
      2  C         17.9430  -21.6810  -10.6900 C.2     1  UNL1       -0.0480
      3  C         18.4720  -20.4320  -11.0480 C.2     1  UNL1        0.0090
      4  C         19.7860  -20.3200  -11.5110 C.2     1  UNL1        0.0170
      5  C         20.5760  -21.4640  -11.6400 C.2     1  UNL1        0.0320
      6  C         20.0510  -22.7160  -11.3090 C.2     1  UNL1        0.0170
      7  C         18.7500  -22.8220  -10.8210 C.2     1  UNL1        0.0090
      8  C         21.9760  -21.3920  -12.1320 C.2     1  UNL1        0.2510
      9  N         22.1180  -21.2930  -13.5020 N.am    1  UNL1       -0.3530
     10  H         21.2970  -21.0210  -14.0230 H       1  UNL1        0.1630
     11  O         22.9100  -21.3790  -11.3380 O.2     1  UNL1       -0.2680
     12  C         23.3950  -20.9380  -14.0900 C.3     1  UNL1        0.1610
     13  C         24.2170  -22.1790  -14.3390 C.2     1  UNL1       -0.0410
     14  C         24.8420  -22.8390  -13.2720 C.2     1  UNL1        0.0090
     15  C         25.6520  -23.9540  -13.5020 C.2     1  UNL1        0.0070
     16  C         25.8500  -24.4290  -14.8010 C.2     1  UNL1       -0.0620
     17  C         26.7170  -25.6260  -15.0650 C.3     1  UNL1        0.0480
     18  C         25.2270  -23.7710  -15.8680 C.2     1  UNL1        0.0070
     19  C         24.4240  -22.6500  -15.6420 C.2     1  UNL1        0.0090
     20  S         16.0780  -23.4750   -9.6310 S.3     1  UNL1       -0.0870
     21  C         16.1130  -23.2710   -7.9100 C.ar    1  UNL1        0.1710
     22  N         15.2250  -22.5840   -7.2220 N.ar    1  UNL1       -0.2210
     23  C         15.6290  -22.6900   -5.9180 C.ar    1  UNL1        0.1050
     24  C         15.0820  -22.1740   -4.7380 C.2     1  UNL1        0.0370
     25  C         16.8010  -23.4380   -5.8210 C.ar    1  UNL1        0.1610
     26  C         15.7750  -22.4340   -3.5500 C.2     1  UNL1        0.0220
     27  C         16.9570  -23.1780   -3.5960 C.2     1  UNL1        0.1190
     28  N         17.5150  -23.7110   -4.7090 N.2     1  UNL1       -0.2410
     29  N         17.0780  -23.8310   -7.1060 N.ar    1  UNL1       -0.3040
     30  C         18.2450  -24.6040   -7.4890 C.3     1  UNL1        0.1740
     31  C         19.4690  -23.7520   -7.7090 C.2     1  UNL1       -0.0010
     32  C         19.5770  -22.4480   -7.2080 C.2     1  UNL1        0.0120
     33  C         20.7430  -21.7020   -7.4080 C.2     1  UNL1        0.0010
     34  C         21.8200  -22.2510   -8.1000 C.2     1  UNL1        0.0030
     35  C         21.7310  -23.5500   -8.5890 C.2     1  UNL1        0.0430
     36  C         20.5670  -24.2880   -8.3870 C.2     1  UNL1        0.1240
     37  F         20.5220  -25.5500   -8.8410 F       1  UNL1       -0.2050
@<TRIPOS>BOND
     1    18    19    1
     2    18    16    2
     3    19    13    2
     4    17    16    1
     5    16    15    1
     6    13    12    1
     7    13    14    1
     8    12     9    1
     9    10     9    1
    10     9     8   am
    11    15    14    2
    12     8     5    1
    13     8    11    2
    14     5     4    2
    15     5     6    1
    16     4     3    1
    17     6     7    2
    18     3     2    2
    19     7     2    1
    20     2     1    1
    21     1    20    1
    22    20    21    1
    23    37    36    1
    24    35    36    1
    25    35    34    2
    26    36    31    2
    27    34    33    1
    28    21    22   ar
    29    21    29   ar
    30    31    30    1
    31    31    32    1
    32    30    29    1
    33    33    32    2
    34    22    23   ar
    35    29    25   ar
    36    23    25   ar
    37    23    24    1
    38    25    28    1
    39    24    26    2
    40    28    27    2
    41    27    26    1
