@<TRIPOS>MOLECULE
44336_out_ligand_01.pdbqt
 33 36 0 0 0
SMALL
GASTEIGER

@<TRIPOS>ATOM
      1  C         18.5500  -22.6580   -9.6470 C.2     1  UNL1        0.0320
      2  C         18.7900  -21.8700  -10.7780 C.2     1  UNL1        0.0190
      3  C         20.0530  -21.8830  -11.3860 C.2     1  UNL1        0.0300
      4  C         21.0820  -22.6740  -10.8700 C.2     1  UNL1        0.0360
      5  C         20.8350  -23.4570   -9.7360 C.2     1  UNL1        0.0300
      6  C         19.5800  -23.4420   -9.1210 C.2     1  UNL1        0.0190
      7  N         22.3690  -22.7500  -11.4310 N.am    1  UNL1       -0.3090
      8  C         23.5910  -22.5660  -10.8040 C.2     1  UNL1        0.3270
      9  O         23.7330  -22.4200   -9.5930 O.2     1  UNL1       -0.2460
     10  N         24.6850  -22.6550  -11.6870 N.am    1  UNL1       -0.2990
     11  C         26.0360  -22.7090  -11.1170 C.3     1  UNL1        0.1340
     12  C         24.6180  -22.3030  -13.0680 C.2     1  UNL1        0.0450
     13  C         26.7090  -24.0600  -11.3210 C.3     1  UNL1        0.0210
     14  C         27.1210  -24.3050  -12.7710 C.3     1  UNL1        0.0060
     15  C         25.9350  -24.3970  -13.7260 C.3     1  UNL1        0.0410
     16  C         25.2750  -23.0760  -14.0440 C.2     1  UNL1       -0.0310
     17  C         25.2160  -22.6600  -15.3880 C.2     1  UNL1        0.0090
     18  C         24.5230  -21.5060  -15.7550 C.2     1  UNL1        0.0010
     19  C         23.8680  -20.7500  -14.7880 C.2     1  UNL1        0.0020
     20  C         23.9150  -21.1470  -13.4520 C.2     1  UNL1        0.0300
     21  H         22.4340  -23.1170  -12.3700 H       1  UNL1        0.1700
     22  C         17.2270  -22.6770   -8.9660 C.2     1  UNL1        0.2510
     23  N         17.0220  -23.6970   -8.0660 N.am    1  UNL1       -0.3530
     24  H         17.7740  -24.3260   -7.8190 H       1  UNL1        0.1630
     25  O         16.4060  -21.7950   -9.1900 O.2     1  UNL1       -0.2680
     26  C         15.7920  -23.7910   -7.3100 C.3     1  UNL1        0.1620
     27  C         16.0270  -23.3910   -5.8730 C.2     1  UNL1       -0.0350
     28  C         17.1470  -23.9240   -5.2090 C.2     1  UNL1        0.0090
     29  C         17.4010  -23.6220   -3.8720 C.2     1  UNL1        0.0010
     30  C         16.5260  -22.8010   -3.1690 C.2     1  UNL1        0.0010
     31  C         15.3990  -22.2780   -3.8060 C.2     1  UNL1        0.0070
     32  C         15.1330  -22.5640   -5.1570 C.2     1  UNL1       -0.0540
     33  C         13.9150  -21.9600   -5.8060 C.3     1  UNL1        0.0490
@<TRIPOS>BOND
     1    18    17    2
     2    18    19    1
     3    17    16    1
     4    19    20    2
     5    16    15    1
     6    16    12    2
     7    15    14    1
     8    20    12    1
     9    12    10    1
    10    14    13    1
    11    21     7    1
    12    10    11    1
    13    10     8   am
    14     7     4    1
    15     7     8   am
    16     3     4    2
    17     3     2    1
    18    13    11    1
    19     4     5    1
    20     8     9    2
    21     2     1    2
    22     5     6    2
    23     1     6    1
    24     1    22    1
    25    25    22    2
    26    22    23   am
    27    23    24    1
    28    23    26    1
    29    26    27    1
    30    27    28    2
    31    27    32    1
    32    33    32    1
    33    28    29    1
    34    32    31    2
    35    29    30    2
    36    31    30    1
