@<TRIPOS>MOLECULE
44361_out_ligand_01.pdbqt
 31 34 0 0 0
SMALL
GASTEIGER

@<TRIPOS>ATOM
      1  C         22.5110  -21.7930  -12.5040 C.2     1  UNL1        0.0320
      2  C         22.8030  -22.5910  -11.4000 C.2     1  UNL1        0.0190
      3  C         21.8130  -22.8630  -10.4440 C.2     1  UNL1        0.0310
      4  C         20.5050  -22.3690  -10.5680 C.2     1  UNL1        0.0430
      5  C         20.2140  -21.5770  -11.7010 C.2     1  UNL1       -0.0300
      6  C         21.2150  -21.2940  -12.6510 C.2     1  UNL1        0.0260
      7  C         18.8520  -20.9760  -11.9270 C.3     1  UNL1        0.0420
      8  C         17.7900  -21.7380  -11.1620 C.3     1  UNL1        0.0250
      9  C         18.2280  -21.8750   -9.7150 C.3     1  UNL1        0.1330
     10  N         19.4880  -22.6210   -9.5740 N.am    1  UNL1       -0.3130
     11  C         19.6730  -23.5250   -8.5110 C.2     1  UNL1        0.2610
     12  O         20.5060  -24.4290   -8.4610 O.2     1  UNL1       -0.2670
     13  C         23.5240  -21.4630  -13.5480 C.2     1  UNL1        0.2510
     14  O         23.1990  -21.3980  -14.7290 O.2     1  UNL1       -0.2680
     15  N         24.8020  -21.2040  -13.1040 N.am    1  UNL1       -0.3550
     16  H         24.9590  -20.9900  -12.1260 H       1  UNL1        0.1620
     17  C         25.8230  -20.7150  -14.0110 C.3     1  UNL1        0.1530
     18  C         26.9890  -21.7120  -14.1210 C.3     1  UNL1        0.2920
     19  N         27.0510  -22.3990  -15.4310 N.3     1  UNL1        0.0940
     20  C         26.6490  -23.8190  -15.3180 C.3     1  UNL1        0.2980
     21  C         25.1910  -24.0800  -15.7250 C.3     1  UNL1        0.1980
     22  O         24.9070  -23.7010  -17.0800 O.3     1  UNL1       -0.3880
     23  C         25.7610  -22.6570  -17.5640 C.3     1  UNL1        0.1980
     24  C         26.2200  -21.7070  -16.4470 C.3     1  UNL1        0.2980
     25  C         18.7710  -23.4490   -7.3430 C.2     1  UNL1        0.0710
     26  C         17.7840  -24.4270   -7.1810 C.2     1  UNL1        0.0200
     27  C         16.9430  -24.3870   -6.0660 C.2     1  UNL1        0.0010
     28  C         17.1010  -23.3830   -5.1070 C.2     1  UNL1        0.0030
     29  C         18.1040  -22.4240   -5.2570 C.2     1  UNL1        0.0430
     30  C         18.9400  -22.4660   -6.3700 C.2     1  UNL1        0.1320
     31  F         19.9040  -21.5420   -6.4840 F       1  UNL1       -0.2050
@<TRIPOS>BOND
     1    23    22    1
     2    23    24    1
     3    22    21    1
     4    24    19    1
     5    21    20    1
     6    19    20    1
     7    19    18    1
     8    14    13    2
     9    18    17    1
    10    17    15    1
    11    13    15   am
    12    13     1    1
    13    15    16    1
    14     6     1    2
    15     6     5    1
    16     1     2    1
    17     7     5    1
    18     7     8    1
    19     5     4    2
    20     2     3    2
    21     8     9    1
    22     4     3    1
    23     4    10    1
    24     9    10    1
    25    10    11   am
    26    11    12    2
    27    11    25    1
    28    25    26    2
    29    25    30    1
    30    26    27    1
    31    31    30    1
    32    30    29    2
    33    27    28    2
    34    29    28    1
