@<TRIPOS>MOLECULE
44393_out_ligand_01.pdbqt
 36 40 0 0 0
SMALL
GASTEIGER

@<TRIPOS>ATOM
      1  C         22.8620  -22.9410  -11.3620 C.2     1  UNL1        0.0360
      2  C         21.8390  -22.4020  -10.6720 C.2     1  UNL1        0.0740
      3  S         21.0720  -20.9190  -11.0600 S.3     1  UNL1       -0.0830
      4  C         19.3920  -21.4370  -10.8290 C.2     1  UNL1        0.0320
      5  C         18.4150  -20.7260  -11.5520 C.2     1  UNL1        0.0210
      6  C         17.0670  -21.0300  -11.4150 C.2     1  UNL1        0.0020
      7  C         16.6840  -22.0390  -10.5440 C.2     1  UNL1        0.0020
      8  C         17.6510  -22.7420   -9.8150 C.2     1  UNL1        0.0310
      9  C         19.0240  -22.4660   -9.9450 C.2     1  UNL1        0.0550
     10  N         20.0120  -23.1910   -9.1870 N.am    1  UNL1       -0.3080
     11  C         21.3840  -23.1260   -9.4460 C.2     1  UNL1        0.2650
     12  O         22.2230  -23.7030   -8.7490 O.2     1  UNL1       -0.2670
     13  C         23.4400  -22.4260  -12.6080 C.2     1  UNL1       -0.0350
     14  C         24.6630  -22.9180  -13.0840 C.2     1  UNL1        0.0120
     15  C         25.2290  -22.4000  -14.2510 C.2     1  UNL1        0.0180
     16  C         24.5820  -21.3710  -14.9470 C.2     1  UNL1        0.0320
     17  C         23.3500  -20.8920  -14.4830 C.2     1  UNL1        0.0180
     18  C         22.7850  -21.4120  -13.3140 C.2     1  UNL1        0.0120
     19  C         25.1620  -20.7640  -16.1790 C.2     1  UNL1        0.2510
     20  O         24.4750  -20.6250  -17.1860 O.2     1  UNL1       -0.2680
     21  N         26.4730  -20.3390  -16.0900 N.am    1  UNL1       -0.3520
     22  H         26.8840  -20.2240  -15.1760 H       1  UNL1        0.1630
     23  C         27.0580  -19.5770  -17.1690 C.3     1  UNL1        0.1690
     24  C         27.0800  -18.1370  -16.7670 C.2     1  UNL1        0.0000
     25  C         27.0770  -17.0190  -17.5780 C.2     1  UNL1        0.0170
     26  C         27.0970  -15.8020  -16.8340 C.2     1  UNL1        0.0080
     27  C         27.1210  -16.0340  -15.4770 C.2     1  UNL1        0.0500
     28  S         27.1200  -17.7030  -15.1080 S.3     1  UNL1       -0.1050
     29  C         19.5990  -24.0490   -8.0640 C.3     1  UNL1        0.1740
     30  C         18.9660  -23.3020   -6.9080 C.2     1  UNL1       -0.0010
     31  C         19.3920  -22.0140   -6.5480 C.2     1  UNL1        0.0120
     32  C         18.7910  -21.3360   -5.4820 C.2     1  UNL1        0.0010
     33  C         17.7520  -21.9300   -4.7660 C.2     1  UNL1        0.0030
     34  C         17.2920  -23.1940   -5.1360 C.2     1  UNL1        0.0430
     35  C         17.8920  -23.8610   -6.2010 C.2     1  UNL1        0.1240
     36  F         17.4080  -25.0630   -6.5520 F       1  UNL1       -0.2050
@<TRIPOS>BOND
     1    25    26    1
     2    25    24    2
     3    20    19    2
     4    23    24    1
     5    23    21    1
     6    26    27    2
     7    24    28    1
     8    19    21   am
     9    19    16    1
    10    21    22    1
    11    27    28    1
    12    16    17    2
    13    16    15    1
    14    17    18    1
    15    15    14    2
    16    18    13    2
    17    14    13    1
    18    13     1    1
    19     5     6    1
    20     5     4    2
    21     6     7    2
    22     1     2    2
    23     3     4    1
    24     3     2    1
    25     4     9    1
    26     2    11    1
    27     7     8    1
    28     9     8    2
    29     9    10    1
    30    11    10   am
    31    11    12    2
    32    10    29    1
    33    29    30    1
    34    30    31    2
    35    30    35    1
    36    36    35    1
    37    31    32    1
    38    35    34    2
    39    32    33    2
    40    34    33    1
