@<TRIPOS>MOLECULE
4440_out_ligand_01.pdbqt
 30 33 0 0 0
SMALL
GASTEIGER

@<TRIPOS>ATOM
      1  C         26.2130  -23.8570  -15.1610 C.3     1  UNL1        0.0480
      2  C         25.1950  -23.1440  -14.3210 C.2     1  UNL1       -0.0600
      3  C         24.4510  -22.0880  -14.8530 C.2     1  UNL1        0.0090
      4  C         23.4960  -21.4390  -14.0690 C.2     1  UNL1        0.0400
      5  C         23.2470  -21.8670  -12.7620 C.2     1  UNL1        0.1020
      6  C         23.9590  -22.9390  -12.2240 C.2     1  UNL1        0.0690
      7  C         24.9420  -23.5620  -13.0060 C.2     1  UNL1        0.0390
      8  N         23.7920  -23.4040  -10.9150 N.am    1  UNL1       -0.3200
      9  C         22.7220  -23.2770  -10.0670 C.2     1  UNL1        0.2590
     10  O         22.8170  -23.7230   -8.9240 O.2     1  UNL1       -0.2670
     11  C         21.4270  -22.7390  -10.5360 C.2     1  UNL1        0.0680
     12  C         20.2560  -23.2780   -9.9700 C.2     1  UNL1        0.0490
     13  C         18.9940  -22.8080  -10.3440 C.2     1  UNL1        0.0350
     14  C         18.9110  -21.7710  -11.2770 C.2     1  UNL1        0.0320
     15  C         20.0690  -21.2260  -11.8360 C.2     1  UNL1        0.0400
     16  C         21.3240  -21.7230  -11.4790 C.2     1  UNL1        0.0920
     17  O         22.3990  -21.0810  -12.0250 O.2     1  UNL1       -0.3070
     18  H         24.5090  -24.0080  -10.5310 H       1  UNL1        0.1690
     19  N         17.7770  -23.3000   -9.8270 N.am    1  UNL1       -0.3270
     20  C         17.0050  -22.7510   -8.8160 C.2     1  UNL1        0.2220
     21  O         17.2960  -21.7730   -8.1340 O.2     1  UNL1       -0.2730
     22  H         17.4350  -24.1580  -10.2410 H       1  UNL1        0.1690
     23  C         15.7380  -23.5520   -8.5590 C.3     1  UNL1        0.1080
     24  C         15.8910  -24.5350   -7.4000 C.3     1  UNL1        0.0470
     25  C         15.9580  -23.8290   -6.0660 C.2     1  UNL1       -0.0580
     26  C         17.1220  -23.8870   -5.2890 C.2     1  UNL1        0.0070
     27  C         17.1930  -23.2110   -4.0690 C.2     1  UNL1        0.0010
     28  C         16.1020  -22.4740   -3.6150 C.2     1  UNL1        0.0000
     29  C         14.9380  -22.4090   -4.3800 C.2     1  UNL1        0.0010
     30  C         14.8660  -23.0810   -5.6010 C.2     1  UNL1        0.0070
@<TRIPOS>BOND
     1     1     2    1
     2     3     2    2
     3     3     4    1
     4     2     7    1
     5     4     5    2
     6     7     6    2
     7     5     6    1
     8     5    17    1
     9     6     8    1
    10    17    16    1
    11    15    16    1
    12    15    14    2
    13    16    11    2
    14    14    13    1
    15     8    18    1
    16     8     9   am
    17    11     9    1
    18    11    12    1
    19    13    12    2
    20    13    19    1
    21    22    19    1
    22     9    10    2
    23    19    20   am
    24    20    23    1
    25    20    21    2
    26    23    24    1
    27    24    25    1
    28    25    30    2
    29    25    26    1
    30    30    29    1
    31    26    27    2
    32    29    28    2
    33    27    28    1
