@<TRIPOS>MOLECULE
44420_out_ligand_01.pdbqt
 33 37 0 0 0
SMALL
GASTEIGER

@<TRIPOS>ATOM
      1  C         19.9210  -22.3650  -10.9740 C.3     1  UNL1        0.0650
      2  C         19.0590  -21.3980  -11.8030 C.3     1  UNL1        0.0150
      3  C         17.7600  -21.0140  -11.0880 C.3     1  UNL1        0.0210
      4  C         17.2680  -22.1190  -10.1570 C.3     1  UNL1        0.1350
      5  N         18.2750  -22.3970   -9.1100 N.3     1  UNL1       -0.3060
      6  C         19.6970  -22.1570   -9.4730 C.3     1  UNL1        0.1470
      7  C         21.3710  -22.3230  -11.3670 C.ar    1  UNL1        0.1050
      8  N         22.3220  -22.9600  -10.7120 N.ar    1  UNL1       -0.1460
      9  N         23.5680  -22.7620  -11.2670 N.ar    1  UNL1       -0.1360
     10  C         23.5130  -21.9870  -12.3340 C.ar    1  UNL1        0.1890
     11  S         21.9420  -21.4420  -12.7340 S.2     1  UNL1       -0.0450
     12  C         24.6900  -21.6240  -13.1140 C.2     1  UNL1        0.2830
     13  O         25.8030  -22.1020  -12.9090 O.2     1  UNL1       -0.2650
     14  N         24.3970  -20.6860  -14.0940 N.am    1  UNL1       -0.3210
     15  H         23.4230  -20.3940  -14.1250 H       1  UNL1        0.1690
     16  C         25.2630  -20.1000  -15.0360 C.2     1  UNL1        0.0350
     17  C         26.0820  -19.0020  -14.7700 C.2     1  UNL1        0.0290
     18  C         26.9140  -18.4810  -15.7660 C.2     1  UNL1        0.0020
     19  C         26.9330  -19.0520  -17.0360 C.2     1  UNL1        0.0000
     20  C         26.1190  -20.1470  -17.3120 C.2     1  UNL1        0.0020
     21  C         25.2890  -20.6680  -16.3170 C.2     1  UNL1        0.0290
     22  S         17.9080  -23.5920   -7.9630 S.O2    1  UNL1        0.2630
     23  O         16.5780  -24.1020   -8.2070 O.2     1  UNL1       -0.2000
     24  O         19.0410  -24.4970   -7.9380 O.2     1  UNL1       -0.2000
     25  C         17.9060  -22.7510   -6.4140 C.2     1  UNL1        0.1110
     26  C         18.8660  -21.7420   -6.1590 C.2     1  UNL1        0.0280
     27  C         18.9450  -21.0360   -4.9360 C.2     1  UNL1        0.0040
     28  C         18.0780  -21.2770   -3.8610 C.2     1  UNL1        0.0350
     29  C         17.1010  -22.2830   -4.0560 C.ar    1  UNL1        0.0980
     30  N         16.1830  -22.6540   -3.1530 N.ar    1  UNL1       -0.1910
     31  C         17.0100  -23.0470   -5.3610 C.ar    1  UNL1        0.1190
     32  S         15.2800  -23.8510   -3.8620 S.2     1  UNL1        0.1170
     33  N         16.0160  -23.9500   -5.3430 N.ar    1  UNL1       -0.1900
@<TRIPOS>BOND
     1    20    19    2
     2    20    21    1
     3    19    18    1
     4    21    16    2
     5    18    17    2
     6    16    17    1
     7    16    14    1
     8    15    14    1
     9    14    12   am
    10    12    13    2
    11    12    10    1
    12    11    10   ar
    13    11     7   ar
    14    10     9   ar
    15     2     3    1
    16     2     1    1
    17     7     1    1
    18     7     8   ar
    19     9     8   ar
    20     3     4    1
    21     1     6    1
    22     4     5    1
    23     6     5    1
    24     5    22    1
    25    23    22    2
    26    22    24    2
    27    22    25    1
    28    25    26    2
    29    25    31    1
    30    26    27    1
    31    31    33   ar
    32    31    29   ar
    33    33    32   ar
    34    27    28    2
    35    29    28    1
    36    29    30   ar
    37    32    30   ar
