@<TRIPOS>MOLECULE
44423_out_ligand_01.pdbqt
 33 37 0 0 0
SMALL
GASTEIGER

@<TRIPOS>ATOM
      1  N         17.2030  -23.9350   -6.7890 N.ar    1  UNL1       -0.3190
      2  C         16.2090  -23.3720   -7.5550 C.ar    1  UNL1        0.1700
      3  N         15.3740  -22.6660   -6.8280 N.ar    1  UNL1       -0.2220
      4  C         15.8440  -22.7520   -5.5430 C.ar    1  UNL1        0.0890
      5  C         15.3400  -22.1760   -4.3770 C.2     1  UNL1        0.0530
      6  C         16.0440  -22.4510   -3.2190 C.2     1  UNL1        0.1180
      7  N         17.1480  -23.2310   -3.1530 N.2     1  UNL1       -0.2710
      8  C         17.6260  -23.8000   -4.2830 C.2     1  UNL1        0.1480
      9  C         16.9800  -23.5490   -5.4840 C.ar    1  UNL1        0.0830
     10  C         18.2470  -24.8480   -7.2300 C.3     1  UNL1        0.1700
     11  C         19.4500  -24.1400   -7.8090 C.2     1  UNL1       -0.0400
     12  C         20.3620  -24.8410   -8.6100 C.2     1  UNL1        0.0100
     13  C         21.5150  -24.2160   -9.0950 C.2     1  UNL1        0.0170
     14  C         21.7800  -22.8770   -8.7860 C.2     1  UNL1        0.0320
     15  C         20.8550  -22.1570   -8.0190 C.2     1  UNL1        0.0170
     16  C         19.7020  -22.7880   -7.5320 C.2     1  UNL1        0.0100
     17  C         23.0470  -22.2750   -9.2970 C.2     1  UNL1        0.2520
     18  O         23.2770  -21.0830   -9.1250 O.2     1  UNL1       -0.2680
     19  N         23.8890  -23.1110  -10.0050 N.am    1  UNL1       -0.3520
     20  H         23.5220  -23.9970  -10.3240 H       1  UNL1        0.1630
     21  C         25.0430  -22.5760  -10.7190 C.3     1  UNL1        0.0840
     22  C         24.6220  -21.5090  -11.7310 C.3     1  UNL1        0.0250
     23  C         24.3070  -22.2680  -13.0240 C.3     1  UNL1        0.0020
     24  C         24.8240  -23.6930  -12.8340 C.3     1  UNL1        0.0020
     25  C         25.7040  -23.6360  -11.5920 C.3     1  UNL1        0.0250
     26  S         16.0760  -23.6270   -9.2650 S.3     1  UNL1       -0.0870
     27  C         16.2790  -21.9470   -9.9220 C.3     1  UNL1        0.1210
     28  C         17.5950  -21.7450  -10.6370 C.2     1  UNL1       -0.0490
     29  C         18.4120  -22.8420  -10.9470 C.2     1  UNL1        0.0080
     30  C         19.6550  -22.6550  -11.5600 C.2     1  UNL1        0.0010
     31  C         20.0860  -21.3720  -11.8890 C.2     1  UNL1        0.0000
     32  C         19.2690  -20.2740  -11.6130 C.2     1  UNL1        0.0010
     33  C         18.0290  -20.4590  -10.9940 C.2     1  UNL1        0.0080
@<TRIPOS>BOND
     1    23    24    1
     2    23    22    1
     3    24    25    1
     4    31    32    2
     5    31    30    1
     6    22    21    1
     7    32    33    1
     8    25    21    1
     9    30    29    2
    10    33    28    2
    11    29    28    1
    12    21    19    1
    13    28    27    1
    14    20    19    1
    15    19    17   am
    16    27    26    1
    17    17    18    2
    18    17    14    1
    19    26     2    1
    20    13    14    2
    21    13    12    1
    22    14    15    1
    23    12    11    2
    24    15    16    2
    25    11    16    1
    26    11    10    1
    27     2     3   ar
    28     2     1   ar
    29    10     1    1
    30     3     4   ar
    31     1     9   ar
    32     4     9   ar
    33     4     5    1
    34     9     8    1
    35     5     6    2
    36     8     7    2
    37     6     7    1
