@<TRIPOS>MOLECULE
44436_out_ligand_01.pdbqt
 34 37 0 0 0
SMALL
GASTEIGER

@<TRIPOS>ATOM
      1  C         20.4670  -22.7460   -9.9330 C.2     1  UNL1        0.0340
      2  C         20.9960  -23.6610   -9.0150 C.2     1  UNL1        0.0170
      3  C         22.3460  -23.9960   -9.0740 C.2     1  UNL1        0.0030
      4  C         23.1650  -23.4180  -10.0480 C.2     1  UNL1        0.0290
      5  C         22.6440  -22.5060  -10.9750 C.2     1  UNL1        0.0370
      6  C         21.2930  -22.1630  -10.9040 C.2     1  UNL1        0.0460
      7  N         23.5430  -21.9570  -11.9110 N.am    1  UNL1       -0.3090
      8  C         24.7530  -21.3440  -11.6540 C.2     1  UNL1        0.3270
      9  O         25.1430  -21.0220  -10.5330 O.2     1  UNL1       -0.2460
     10  N         25.4780  -20.9860  -12.8060 N.am    1  UNL1       -0.2960
     11  C         26.2990  -19.7820  -12.6460 C.3     1  UNL1        0.1440
     12  C         25.3190  -21.5830  -14.1040 C.2     1  UNL1        0.0800
     13  C         26.9920  -19.2420  -13.8880 C.3     1  UNL1        0.1010
     14  S         25.7850  -19.0670  -15.2170 S.3     1  UNL1       -0.1060
     15  C         25.3490  -20.7940  -15.2700 C.2     1  UNL1        0.1210
     16  N         25.0930  -21.2620  -16.5150 N.2     1  UNL1       -0.2440
     17  C         24.8360  -22.5770  -16.6530 C.2     1  UNL1        0.0320
     18  C         24.5520  -23.0830  -18.0360 C.3     1  UNL1        0.0700
     19  C         24.8720  -23.4540  -15.5780 C.2     1  UNL1        0.0350
     20  C         25.1500  -22.9710  -14.2880 C.2     1  UNL1       -0.0300
     21  C         25.3250  -24.0030  -13.2040 C.3     1  UNL1        0.0500
     22  H         23.1980  -21.8400  -12.8520 H       1  UNL1        0.1700
     23  C         19.0360  -22.3420   -9.8810 C.2     1  UNL1        0.2520
     24  N         18.4120  -22.5030   -8.6630 N.am    1  UNL1       -0.3530
     25  H         18.8620  -23.0740   -7.9630 H       1  UNL1        0.1630
     26  O         18.4790  -21.9200  -10.8880 O.2     1  UNL1       -0.2680
     27  C         16.9830  -22.3190   -8.5230 C.3     1  UNL1        0.1610
     28  C         16.5840  -22.3380   -7.0690 C.2     1  UNL1       -0.0400
     29  C         15.2470  -22.5130   -6.6930 C.2     1  UNL1        0.0090
     30  C         14.8880  -22.5170   -5.3450 C.2     1  UNL1        0.0010
     31  C         15.8590  -22.3340   -4.3610 C.2     1  UNL1        0.0070
     32  C         17.1970  -22.1360   -4.7150 C.2     1  UNL1       -0.0610
     33  C         18.2510  -21.9630   -3.6630 C.3     1  UNL1        0.0480
     34  C         17.5530  -22.1510   -6.0700 C.2     1  UNL1        0.0150
@<TRIPOS>BOND
     1    18    17    1
     2    17    16    2
     3    17    19    1
     4    16    15    1
     5    19    20    2
     6    15    14    1
     7    15    12    2
     8    14    13    1
     9    20    12    1
    10    20    21    1
    11    12    10    1
    12    13    11    1
    13    22     7    1
    14    10    11    1
    15    10     8   am
    16     7     8   am
    17     7     5    1
    18     8     9    2
    19     5     6    1
    20     5     4    2
    21     6     1    2
    22    26    23    2
    23     4     3    1
    24     1    23    1
    25     1     2    1
    26    23    24   am
    27     3     2    2
    28    24    27    1
    29    24    25    1
    30    27    28    1
    31    28    29    2
    32    28    34    1
    33    29    30    1
    34    34    32    2
    35    30    31    2
    36    32    31    1
    37    32    33    1
