@<TRIPOS>MOLECULE
44440_out_ligand_01.pdbqt
 36 40 0 0 0
SMALL
GASTEIGER

@<TRIPOS>ATOM
      1  C         18.8350  -23.3380   -9.1080 C.2     1  UNL1        0.0800
      2  C         19.6390  -24.2210   -8.3820 C.2     1  UNL1        0.0270
      3  C         21.0030  -24.3120   -8.6760 C.2     1  UNL1        0.0310
      4  C         21.5610  -23.5380   -9.6970 C.2     1  UNL1        0.0340
      5  C         20.7310  -22.6860  -10.4420 C.2     1  UNL1        0.0310
      6  C         19.3710  -22.5810  -10.1500 C.2     1  UNL1        0.0270
      7  N         22.9310  -23.5230  -10.0150 N.am    1  UNL1       -0.3260
      8  C         23.8000  -22.4440   -9.9940 C.2     1  UNL1        0.2400
      9  O         23.5700  -21.3330   -9.5200 O.2     1  UNL1       -0.2710
     10  H         23.3250  -24.4090  -10.3370 H       1  UNL1        0.1690
     11  C         25.1810  -22.7770  -10.5650 C.3     1  UNL1        0.2350
     12  N         25.4100  -22.0860  -11.8150 N.am    1  UNL1       -0.3040
     13  C         25.8260  -20.7640  -11.9330 C.2     1  UNL1        0.2590
     14  O         26.0740  -19.9800  -11.0370 O.2     1  UNL1       -0.2670
     15  C         26.0190  -20.5370  -13.3800 C.2     1  UNL1        0.0450
     16  C         26.4140  -19.4280  -14.1020 C.2     1  UNL1        0.0180
     17  C         25.7650  -21.7310  -14.0040 C.2     1  UNL1        0.0170
     18  C         26.5360  -19.5740  -15.4940 C.2     1  UNL1        0.0020
     19  C         26.2740  -20.8140  -16.1310 C.2     1  UNL1        0.0120
     20  C         25.8800  -21.9400  -15.3730 C.2     1  UNL1       -0.0230
     21  C         25.5970  -23.2500  -15.8080 C.2     1  UNL1        0.0120
     22  C         25.2340  -24.2480  -14.8740 C.2     1  UNL1        0.0030
     23  C         25.1390  -23.9710  -13.4980 C.2     1  UNL1        0.0310
     24  C         25.4080  -22.6830  -13.0850 C.2     1  UNL1        0.0500
     25  S         17.1280  -23.1570   -8.6660 S.O2    1  UNL1        0.2630
     26  O         16.8940  -21.7970   -8.2290 O.2     1  UNL1       -0.2000
     27  O         16.3420  -23.7430   -9.7330 O.2     1  UNL1       -0.2000
     28  N         16.9760  -24.2010   -7.3390 N.pl3   1  UNL1       -0.2810
     29  H         16.4960  -25.0590   -7.6090 H       1  UNL1        0.1790
     30  C         16.6420  -23.6290   -6.0790 C.2     1  UNL1        0.0430
     31  C         15.3210  -23.6440   -5.6360 C.2     1  UNL1        0.0300
     32  C         14.9930  -23.0420   -4.4230 C.2     1  UNL1        0.0030
     33  C         15.9820  -22.4210   -3.6580 C.2     1  UNL1        0.0070
     34  C         17.3120  -22.4040   -4.0970 C.2     1  UNL1       -0.0600
     35  C         18.3730  -21.7040   -3.3040 C.3     1  UNL1        0.0480
     36  C         17.6320  -23.0030   -5.3210 C.2     1  UNL1        0.0370
@<TRIPOS>BOND
     1    19    18    2
     2    19    20    1
     3    21    20    1
     4    21    22    2
     5    18    16    1
     6    20    17    2
     7    22    23    1
     8    16    15    2
     9    17    15    1
    10    17    24    1
    11    23    24    2
    12    15    13    1
    13    24    12    1
    14    13    12   am
    15    13    14    2
    16    12    11    1
    17    11     8    1
    18     5     6    1
    19     5     4    2
    20    10     7    1
    21     6     1    2
    22     7     8   am
    23     7     4    1
    24     8     9    2
    25    27    25    2
    26     4     3    1
    27     1    25    1
    28     1     2    1
    29     3     2    2
    30    25    26    2
    31    25    28    1
    32    29    28    1
    33    28    30    1
    34    30    31    2
    35    30    36    1
    36    31    32    1
    37    36    34    2
    38    32    33    2
    39    34    33    1
    40    34    35    1
