@<TRIPOS>MOLECULE
44443_out_ligand_01.pdbqt
 39 42 0 0 0
SMALL
GASTEIGER

@<TRIPOS>ATOM
      1  C         25.3550  -22.7780  -11.2600 C.2     1  UNL1        0.0900
      2  C         24.0500  -22.6890  -10.9440 C.2     1  UNL1        0.1050
      3  N         23.0590  -22.0190  -11.6350 N.pl3   1  UNL1       -0.3500
      4  C         21.7080  -22.0940  -11.2720 C.2     1  UNL1        0.0590
      5  C         20.7300  -21.4100  -11.9980 C.2     1  UNL1        0.0330
      6  C         19.3930  -21.4570  -11.5910 C.2     1  UNL1        0.0190
      7  C         19.0240  -22.1860  -10.4530 C.2     1  UNL1        0.0340
      8  C         20.0020  -22.8460   -9.6980 C.2     1  UNL1        0.0490
      9  C         21.3330  -22.7910  -10.1110 C.2     1  UNL1        0.0620
     10  N         22.3220  -23.4360   -9.3560 N.am    1  UNL1       -0.3200
     11  C         23.6570  -23.4410   -9.6810 C.2     1  UNL1        0.2720
     12  O         24.4680  -24.0240   -8.9660 O.2     1  UNL1       -0.2660
     13  H         23.2680  -21.6790  -12.5650 H       1  UNL1        0.1660
     14  H         22.0810  -23.9380   -8.5130 H       1  UNL1        0.1690
     15  C         25.9940  -22.1430  -12.4340 C.2     1  UNL1        0.1840
     16  O         26.8240  -21.2560  -12.2640 O.2     1  UNL1       -0.2880
     17  C         25.6250  -22.5650  -13.8110 C.2     1  UNL1        0.0170
     18  C         25.6320  -23.9060  -14.2040 C.2     1  UNL1        0.0180
     19  C         25.2950  -24.2510  -15.5160 C.2     1  UNL1        0.0400
     20  C         24.9350  -23.2640  -16.4390 C.2     1  UNL1        0.1010
     21  C         24.8980  -21.9140  -16.0350 C.2     1  UNL1        0.1020
     22  C         25.2420  -21.5730  -14.7220 C.2     1  UNL1        0.0550
     23  O         24.5950  -23.5110  -17.7450 O.2     1  UNL1       -0.3530
     24  C         23.2470  -23.8560  -18.0260 C.3     1  UNL1        0.2100
     25  O         24.5300  -21.0050  -16.9970 O.2     1  UNL1       -0.3530
     26  C         25.5150  -20.0830  -17.4430 C.3     1  UNL1        0.2100
     27  C         17.5900  -22.2020  -10.0540 C.2     1  UNL1        0.2510
     28  O         16.8070  -21.4050  -10.5570 O.2     1  UNL1       -0.2680
     29  N         17.2230  -23.1710   -9.1420 N.am    1  UNL1       -0.3570
     30  H         17.8350  -23.9690   -9.0420 H       1  UNL1        0.1620
     31  C         15.8200  -23.3640   -8.8100 C.3     1  UNL1        0.1270
     32  C         15.6480  -24.3570   -7.6610 C.3     1  UNL1        0.0580
     33  C         15.6990  -23.6820   -6.3150 C.2     1  UNL1       -0.0560
     34  C         14.7160  -22.7540   -5.9500 C.2     1  UNL1        0.0070
     35  C         14.7490  -22.1480   -4.6950 C.2     1  UNL1        0.0010
     36  C         15.7650  -22.4630   -3.7930 C.2     1  UNL1        0.0070
     37  C         16.7620  -23.3820   -4.1410 C.2     1  UNL1       -0.0610
     38  C         17.8310  -23.7490   -3.1560 C.3     1  UNL1        0.0480
     39  C         16.7120  -23.9970   -5.3980 C.2     1  UNL1        0.0130
@<TRIPOS>BOND
     1    24    23    1
     2    23    20    1
     3    26    25    1
     4    25    21    1
     5    20    21    2
     6    20    19    1
     7    21    22    1
     8    19    18    2
     9    22    17    2
    10    18    17    1
    11    17    15    1
    12    13     3    1
    13    15    16    2
    14    15     1    1
    15     5     6    1
    16     5     4    2
    17     3     4    1
    18     3     2    1
    19     6     7    2
    20     4     9    1
    21     1     2    2
    22     2    11    1
    23    28    27    2
    24     7    27    1
    25     7     8    1
    26     9     8    2
    27     9    10    1
    28    27    29   am
    29    11    10   am
    30    11    12    2
    31    10    14    1
    32    29    30    1
    33    29    31    1
    34    31    32    1
    35    32    33    1
    36    33    34    2
    37    33    39    1
    38    34    35    1
    39    39    37    2
    40    35    36    2
    41    37    36    1
    42    37    38    1
