@<TRIPOS>MOLECULE
44450_out_ligand_01.pdbqt
 31 33 0 0 0
SMALL
GASTEIGER

@<TRIPOS>ATOM
      1  C         17.8440  -22.6220   -6.4840 C.2     1  UNL1        0.0800
      2  C         18.1010  -21.6070   -5.5590 C.2     1  UNL1        0.0280
      3  C         19.3540  -20.9960   -5.5460 C.2     1  UNL1        0.0450
      4  C         20.3360  -21.4010   -6.4500 C.2     1  UNL1        0.1320
      5  F         21.5250  -20.7810   -6.4010 F       1  UNL1       -0.2050
      6  C         20.0950  -22.4200   -7.3760 C.2     1  UNL1        0.0720
      7  C         18.8350  -23.0410   -7.3810 C.2     1  UNL1        0.0450
      8  S         16.2610  -23.4360   -6.4770 S.O2    1  UNL1        0.2590
      9  O         16.2640  -24.4050   -5.4060 O.2     1  UNL1       -0.2010
     10  O         15.2470  -22.4090   -6.5740 O.2     1  UNL1       -0.2010
     11  N         16.2620  -24.2430   -7.9280 N.3     1  UNL1       -0.3110
     12  H         16.4820  -25.2350   -7.9140 H       1  UNL1        0.1720
     13  C         15.6600  -23.6530   -9.1130 C.3     1  UNL1        0.1700
     14  C         16.6820  -22.8660   -9.8950 C.2     1  UNL1       -0.0400
     15  C         16.4460  -21.5320  -10.2510 C.2     1  UNL1        0.0090
     16  C         17.3960  -20.8180  -10.9870 C.2     1  UNL1        0.0070
     17  C         18.5880  -21.4290  -11.3930 C.2     1  UNL1       -0.0620
     18  C         19.6220  -20.6550  -12.1550 C.3     1  UNL1        0.0480
     19  C         18.8280  -22.7580  -11.0310 C.2     1  UNL1        0.0070
     20  C         17.8810  -23.4720  -10.2940 C.2     1  UNL1        0.0090
     21  C         21.1100  -22.8730   -8.3760 C.2     1  UNL1        0.2590
     22  O         21.3220  -24.0770   -8.4610 O.2     1  UNL1       -0.2670
     23  N         21.7220  -21.8860   -9.1250 N.am    1  UNL1       -0.3230
     24  H         21.4300  -20.9290   -8.9570 H       1  UNL1        0.1690
     25  C         22.7120  -22.0460  -10.1190 C.2     1  UNL1        0.0350
     26  C         23.9400  -21.4060   -9.9020 C.2     1  UNL1        0.0310
     27  C         24.9780  -21.5130  -10.8340 C.2     1  UNL1        0.0210
     28  C         24.7880  -22.2640  -11.9910 C.2     1  UNL1        0.0110
     29 BR         26.1850  -22.4120  -13.2550 Br      1  UNL1       -0.0510
     30  C         23.5750  -22.9050  -12.2200 C.2     1  UNL1        0.0210
     31  C         22.5390  -22.7960  -11.2840 C.2     1  UNL1        0.0310
@<TRIPOS>BOND
     1    29    28    1
     2    30    28    2
     3    30    31    1
     4    18    17    1
     5    28    27    1
     6    17    19    2
     7    17    16    1
     8    31    25    2
     9    19    20    1
    10    16    15    2
    11    27    26    2
    12    20    14    2
    13    15    14    1
    14    25    26    1
    15    25    23    1
    16    14    13    1
    17    23    24    1
    18    23    21   am
    19    13    11    1
    20    22    21    2
    21    21     6    1
    22    11    12    1
    23    11     8    1
    24     7     6    1
    25     7     1    2
    26     6     4    2
    27    10     8    2
    28     1     8    1
    29     1     2    1
    30     8     9    2
    31     4     5    1
    32     4     3    1
    33     2     3    2
