@<TRIPOS>MOLECULE
44483_out_ligand_01.pdbqt
 36 39 0 0 0
SMALL
GASTEIGER

@<TRIPOS>ATOM
      1  N         20.6500  -23.3520   -9.5130 N.am    1  UNL1       -0.3040
      2  C         22.0290  -23.3420   -9.7000 C.2     1  UNL1        0.2560
      3  O         22.8010  -23.9810   -8.9870 O.2     1  UNL1       -0.2670
      4  C         22.5820  -22.4920  -10.7990 C.2     1  UNL1        0.0240
      5  C         21.7590  -21.7170  -11.5220 C.2     1  UNL1        0.0270
      6  C         20.3210  -21.7080  -11.2820 C.2     1  UNL1       -0.0080
      7  C         19.4950  -20.8780  -12.0500 C.2     1  UNL1        0.0160
      8  C         18.1150  -20.8570  -11.8340 C.2     1  UNL1        0.0380
      9  C         17.5560  -21.6650  -10.8490 C.2     1  UNL1        0.0700
     10  C         18.3850  -22.4940  -10.0810 C.2     1  UNL1        0.0670
     11  C         19.7720  -22.5290  -10.2880 C.2     1  UNL1        0.0510
     12  C         20.1110  -24.2370   -8.4720 C.3     1  UNL1        0.2350
     13  C         19.2710  -23.5450   -7.3860 C.2     1  UNL1        0.2400
     14  N         18.0640  -24.1650   -7.1240 N.am    1  UNL1       -0.3260
     15  H         17.8790  -25.0060   -7.6580 H       1  UNL1        0.1690
     16  O         19.6760  -22.5030   -6.8740 O.2     1  UNL1       -0.2710
     17  C         17.0720  -23.7890   -6.1990 C.2     1  UNL1        0.0370
     18  C         15.7310  -24.1520   -6.3000 C.2     1  UNL1        0.0290
     19  C         14.8120  -23.7290   -5.3370 C.2     1  UNL1        0.0050
     20  C         15.2250  -22.9370   -4.2620 C.2     1  UNL1        0.0370
     21  C         16.5620  -22.5680   -4.1480 C.2     1  UNL1        0.0700
     22  C         17.4770  -22.9940   -5.1180 C.2     1  UNL1        0.0660
     23  O         17.1030  -21.7980   -3.1530 O.2     1  UNL1       -0.3560
     24  C         18.5100  -21.5970   -3.1910 C.3     1  UNL1        0.2100
     25  C         24.0810  -22.5900  -10.9580 C.3     1  UNL1        0.1360
     26  N         24.4400  -23.6560  -11.8960 N.pl3   1  UNL1       -0.2890
     27  H         25.1510  -24.2740  -11.5080 H       1  UNL1        0.1280
     28  C         24.7760  -23.3250  -13.2170 C.2     1  UNL1        0.0080
     29  C         24.5820  -22.0620  -13.7840 C.2     1  UNL1        0.0240
     30  C         24.8770  -21.8180  -15.1310 C.2     1  UNL1        0.0080
     31  C         25.3510  -22.8420  -15.9540 C.2     1  UNL1       -0.0620
     32  C         25.6330  -22.5790  -17.4040 C.3     1  UNL1        0.0480
     33  C         25.4940  -24.1210  -15.4150 C.2     1  UNL1        0.0080
     34  C         25.2020  -24.3560  -14.0680 C.2     1  UNL1        0.0240
     35  O         16.2280  -21.7400  -10.5320 O.2     1  UNL1       -0.3560
     36  C         15.8330  -22.7690   -9.6330 C.3     1  UNL1        0.2100
@<TRIPOS>BOND
     1    32    31    1
     2    31    33    2
     3    31    30    1
     4    33    34    1
     5    30    29    2
     6    34    28    2
     7    29    28    1
     8    28    26    1
     9     7     8    1
    10     7     6    2
    11    26    27    1
    12    26    25    1
    13     8     9    2
    14     5     6    1
    15     5     4    2
    16     6    11    1
    17    25     4    1
    18     9    35    1
    19     9    10    1
    20     4     2    1
    21    35    36    1
    22    11    10    2
    23    11     1    1
    24     2     1   am
    25     2     3    2
    26     1    12    1
    27    12    13    1
    28    15    14    1
    29    13    14   am
    30    13    16    2
    31    14    17    1
    32    18    17    2
    33    18    19    1
    34    17    22    1
    35    19    20    2
    36    22    21    2
    37    20    21    1
    38    21    23    1
    39    24    23    1
