@<TRIPOS>MOLECULE
44518_out_ligand_01.pdbqt
 32 35 0 0 0
SMALL
GASTEIGER

@<TRIPOS>ATOM
      1  C         22.4260  -23.1860   -8.9210 C.2     1  UNL1       -0.0400
      2  C         21.4440  -24.1710   -9.1560 C.2     1  UNL1        0.0110
      3  C         20.1980  -24.1160   -8.5190 C.2     1  UNL1        0.0310
      4  C         19.9430  -23.0710   -7.6500 C.2     1  UNL1        0.0430
      5  C         20.9080  -22.0900   -7.4170 C.2     1  UNL1       -0.0290
      6  C         22.1500  -22.1350   -8.0360 C.2     1  UNL1        0.0180
      7  C         20.4210  -21.0670   -6.4430 C.2     1  UNL1        0.0610
      8  C         18.9980  -21.5560   -6.1440 C.2     1  UNL1        0.1370
      9  N         18.7850  -22.8050   -6.8970 N.am    1  UNL1       -0.3130
     10  C         17.6800  -23.6370   -6.8070 C.2     1  UNL1        0.2580
     11  O         17.5480  -24.7370   -7.3370 O.2     1  UNL1       -0.2670
     12  C         23.7720  -23.2890   -9.5970 C.3     1  UNL1        0.1620
     13  N         23.6220  -23.3590  -11.0350 N.am    1  UNL1       -0.3390
     14  C         24.5760  -22.8230  -11.8730 C.2     1  UNL1        0.3210
     15  O         25.6310  -22.3590  -11.4640 O.2     1  UNL1       -0.2470
     16  N         24.1800  -22.9100  -13.1880 N.am    1  UNL1       -0.3060
     17  H         23.3540  -23.4620  -13.3760 H       1  UNL1        0.1710
     18  H         22.6720  -23.3540  -11.3740 H       1  UNL1        0.1640
     19  C         24.8580  -22.4280  -14.3270 C.2     1  UNL1        0.0750
     20  C         25.9960  -23.0230  -14.8750 C.2     1  UNL1        0.0340
     21  C         26.6050  -22.4670  -16.0090 C.2     1  UNL1        0.0210
     22  C         26.0790  -21.3140  -16.5930 C.2     1  UNL1        0.0140
     23 BR         26.9110  -20.5730  -18.1190 Br      1  UNL1       -0.0510
     24  C         24.9490  -20.7070  -16.0560 C.2     1  UNL1        0.0630
     25  C         24.3530  -21.2690  -14.9320 C.2     1  UNL1        0.1440
     26  F         23.2620  -20.6780  -14.4140 F       1  UNL1       -0.2040
     27  C         16.5650  -23.1770   -5.9520 C.2     1  UNL1        0.0320
     28  C         15.5110  -22.4740   -6.5410 C.2     1  UNL1        0.0170
     29  C         14.4520  -22.0320   -5.7500 C.2     1  UNL1        0.0010
     30  C         14.4570  -22.2810   -4.3760 C.2     1  UNL1        0.0000
     31  C         15.5230  -22.9640   -3.7870 C.2     1  UNL1        0.0010
     32  C         16.5850  -23.4090   -4.5730 C.2     1  UNL1        0.0170
@<TRIPOS>BOND
     1    23    22    1
     2    22    24    2
     3    22    21    1
     4    24    25    1
     5    21    20    2
     6    25    26    1
     7    25    19    2
     8    20    19    1
     9    19    16    1
    10    17    16    1
    11    16    14   am
    12    14    15    2
    13    14    13   am
    14    18    13    1
    15    13    12    1
    16    12     1    1
    17     2     1    2
    18     2     3    1
    19     1     6    1
    20     3     4    2
    21     6     5    2
    22     4     5    1
    23     4     9    1
    24     5     7    1
    25    11    10    2
    26     9    10   am
    27     9     8    1
    28    10    27    1
    29    28    27    2
    30    28    29    1
    31     7     8    2
    32    27    32    1
    33    29    30    2
    34    32    31    2
    35    30    31    1
