@<TRIPOS>MOLECULE
44524_out_ligand_01.pdbqt
 35 37 0 0 0
SMALL
GASTEIGER

@<TRIPOS>ATOM
      1  C         27.0360  -20.7810  -15.9470 C.3     1  UNL1        0.0500
      2  C         26.4230  -21.2600  -14.6540 C.2     1  UNL1       -0.0340
      3  C         26.6300  -20.3870  -13.5100 C.2     1  UNL1        0.0330
      4  C         26.1880  -20.7090  -12.2810 C.2     1  UNL1        0.0120
      5  C         26.4180  -19.7720  -11.1230 C.3     1  UNL1        0.0680
      6  N         25.4890  -21.9040  -12.0920 N.am    1  UNL1       -0.3080
      7  C         25.1550  -22.7420  -13.1650 C.2     1  UNL1        0.2690
      8  O         24.3790  -23.6900  -13.0340 O.2     1  UNL1       -0.2660
      9  C         25.7200  -22.4020  -14.5050 C.2     1  UNL1        0.1180
     10  C         25.4700  -23.3130  -15.5730 C.1     1  UNL1        0.1050
     11  N         25.2820  -24.0430  -16.4590 N.1     1  UNL1       -0.1910
     12  C         25.0300  -22.3170  -10.7520 C.3     1  UNL1        0.2350
     13  C         23.6160  -21.8480  -10.3830 C.2     1  UNL1        0.2400
     14  O         23.4480  -21.1060   -9.4130 O.2     1  UNL1       -0.2710
     15  N         22.6110  -22.4320  -11.1380 N.am    1  UNL1       -0.3260
     16  H         22.8920  -23.2070  -11.7320 H       1  UNL1        0.1690
     17  C         21.2350  -22.1270  -11.1290 C.2     1  UNL1        0.0350
     18  C         20.7850  -21.1920  -12.0730 C.2     1  UNL1        0.0290
     19  C         19.4480  -20.7900  -12.1020 C.2     1  UNL1        0.0030
     20  C         18.5410  -21.3300  -11.1900 C.2     1  UNL1        0.0170
     21  C         18.9740  -22.2800  -10.2560 C.2     1  UNL1        0.0340
     22  C         20.3240  -22.6640  -10.2160 C.2     1  UNL1        0.0460
     23  C         18.0400  -22.8730   -9.2600 C.2     1  UNL1        0.2520
     24  O         16.8480  -22.5750   -9.2710 O.2     1  UNL1       -0.2680
     25  N         18.6010  -23.7420   -8.3450 N.am    1  UNL1       -0.3530
     26  H         19.5960  -23.9080   -8.3390 H       1  UNL1        0.1630
     27  C         17.7930  -24.4430   -7.3710 C.3     1  UNL1        0.1610
     28  C         17.5200  -23.5570   -6.1810 C.2     1  UNL1       -0.0350
     29  C         16.3600  -23.7510   -5.4070 C.2     1  UNL1        0.0510
     30  C         16.1210  -22.9520   -4.2920 C.2     1  UNL1        0.1190
     31  F         15.0150  -23.1500   -3.5620 F       1  UNL1       -0.2060
     32  C         17.0240  -21.9660   -3.9120 C.2     1  UNL1        0.0840
     33  C         18.1770  -21.7840   -4.6670 C.2     1  UNL1        0.1190
     34  F         19.0680  -20.8440   -4.3040 F       1  UNL1       -0.2060
     35  C         18.4340  -22.5640   -5.7950 C.2     1  UNL1        0.0510
@<TRIPOS>BOND
     1    11    10    3
     2     1     2    1
     3    10     9    1
     4     2     9    2
     5     2     3    1
     6     9     7    1
     7     3     4    2
     8     7     8    2
     9     7     6   am
    10     4     6    1
    11     4     5    1
    12    19    18    1
    13    19    20    2
    14     6    12    1
    15    18    17    2
    16    16    15    1
    17    20    21    1
    18    15    17    1
    19    15    13   am
    20    17    22    1
    21    12    13    1
    22    13    14    2
    23    21    22    2
    24    21    23    1
    25    24    23    2
    26    23    25   am
    27    25    26    1
    28    25    27    1
    29    27    28    1
    30    28    35    2
    31    28    29    1
    32    35    33    1
    33    29    30    2
    34    33    34    1
    35    33    32    2
    36    30    32    1
    37    30    31    1
