@<TRIPOS>MOLECULE
44520_out_ligand_01.pdbqt
 32 36 0 0 0
SMALL
GASTEIGER

@<TRIPOS>ATOM
      1  O         24.6320  -23.2920  -11.1900 O.2     1  UNL1       -0.2920
      2  C         24.0450  -22.6260  -12.0410 C.2     1  UNL1        0.1620
      3  C         24.6730  -22.3600  -13.3910 C.3     1  UNL1        0.0950
      4  C         24.2440  -20.9970  -13.9250 C.3     1  UNL1        0.0560
      5  C         22.7140  -20.9060  -14.0010 C.3     1  UNL1        0.0690
      6  C         22.0560  -21.3580  -12.7250 C.2     1  UNL1        0.0270
      7  N         20.7620  -20.9310  -12.5110 N.am    1  UNL1       -0.3250
      8  C         20.0140  -21.2330  -11.3950 C.2     1  UNL1        0.2610
      9  O         18.8660  -20.8170  -11.2690 O.2     1  UNL1       -0.2670
     10  C         20.6700  -22.0840  -10.3590 C.2     1  UNL1        0.1010
     11  C         21.9350  -22.4900  -10.5900 C.2     1  UNL1        0.0400
     12  C         22.6550  -22.1260  -11.7960 C.2     1  UNL1        0.0340
     13  H         20.2970  -20.3470  -13.1990 H       1  UNL1        0.1690
     14  C         20.0030  -22.5100   -9.0840 C.2     1  UNL1        0.2610
     15  O         20.6780  -22.7200   -8.0810 O.2     1  UNL1       -0.2670
     16  N         18.6310  -22.6310   -9.1700 N.am    1  UNL1       -0.3230
     17  H         18.2100  -22.4240  -10.0770 H       1  UNL1        0.1690
     18  C         17.7260  -23.0090   -8.1570 C.2     1  UNL1        0.0370
     19  C         16.6950  -23.9370   -8.3310 C.2     1  UNL1        0.0320
     20  C         15.8440  -24.2620   -7.2690 C.2     1  UNL1        0.0420
     21  C         16.0210  -23.6650   -6.0250 C.2     1  UNL1        0.1020
     22  C         17.0310  -22.7170   -5.8480 C.2     1  UNL1        0.1040
     23  O         15.1640  -24.0480   -5.0260 O.2     1  UNL1       -0.3460
     24  C         17.8870  -22.4020   -6.9030 C.2     1  UNL1        0.0690
     25  O         17.2450  -22.0590   -4.6620 O.2     1  UNL1       -0.3460
     26  C         16.1250  -22.1990   -3.7810 C.3     1  UNL1        0.2020
     27  C         15.6480  -23.6410   -3.7410 C.3     1  UNL1        0.2020
     28  C         24.8510  -20.6940  -15.2550 C.2     1  UNL1        0.0570
     29  C         25.9430  -19.9650  -15.6780 C.2     1  UNL1        0.0350
     30  C         25.9830  -20.0860  -17.0890 C.2     1  UNL1        0.0270
     31  C         24.9180  -20.8820  -17.4350 C.2     1  UNL1        0.1420
     32  O         24.2290  -21.2590  -16.3290 O.2     1  UNL1       -0.3270
@<TRIPOS>BOND
     1    31    30    2
     2    31    32    1
     3    30    29    1
     4    32    28    1
     5    29    28    2
     6    28     4    1
     7     5     4    1
     8     5     6    1
     9     4     3    1
    10     3     2    1
    11    13     7    1
    12     6     7    1
    13     6    12    2
    14     7     8   am
    15     2    12    1
    16     2     1    2
    17    12    11    1
    18     8     9    2
    19     8    10    1
    20    11    10    2
    21    10    14    1
    22    17    16    1
    23    16    14   am
    24    16    18    1
    25    14    15    2
    26    19    18    2
    27    19    20    1
    28    18    24    1
    29    20    21    2
    30    24    22    2
    31    21    22    1
    32    21    23    1
    33    22    25    1
    34    23    27    1
    35    25    26    1
    36    26    27    1
