@<TRIPOS>MOLECULE
44526_out_ligand_01.pdbqt
 33 35 0 0 0
SMALL
GASTEIGER

@<TRIPOS>ATOM
      1  C         26.1930  -20.3550  -16.3340 C.3     1  UNL1        0.0500
      2  C         25.9730  -21.0300  -15.0060 C.2     1  UNL1       -0.0340
      3  C         26.3030  -20.2220  -13.8460 C.2     1  UNL1        0.0330
      4  C         26.1890  -20.6950  -12.5940 C.2     1  UNL1        0.0120
      5  C         26.5440  -19.8210  -11.4200 C.3     1  UNL1        0.0680
      6  N         25.7320  -21.9970  -12.3900 N.am    1  UNL1       -0.3080
      7  C         25.3320  -22.8170  -13.4510 C.2     1  UNL1        0.2690
      8  O         24.8290  -23.9270  -13.2640 O.2     1  UNL1       -0.2660
      9  C         25.5040  -22.2820  -14.8360 C.2     1  UNL1        0.1180
     10  C         25.1510  -23.1320  -15.9200 C.1     1  UNL1        0.1050
     11  N         24.8760  -23.7940  -16.8330 N.1     1  UNL1       -0.1910
     12  C         25.5830  -22.5600  -11.0410 C.3     1  UNL1        0.2350
     13  C         24.2130  -22.2240  -10.4410 C.2     1  UNL1        0.2400
     14  O         24.0080  -21.1320   -9.9170 O.2     1  UNL1       -0.2710
     15  N         23.2980  -23.2550  -10.5830 N.am    1  UNL1       -0.3260
     16  H         23.6210  -24.0690  -11.1110 H       1  UNL1        0.1690
     17  C         21.9600  -23.2910  -10.1510 C.2     1  UNL1        0.0340
     18  C         21.0430  -22.4990  -10.8530 C.2     1  UNL1        0.0300
     19  C         19.6940  -22.4760  -10.4880 C.2     1  UNL1        0.0190
     20  C         19.2430  -23.2430   -9.4090 C.2     1  UNL1        0.0320
     21  C         20.1510  -24.0500   -8.7160 C.2     1  UNL1        0.0190
     22  C         21.5040  -24.0690   -9.0850 C.2     1  UNL1        0.0300
     23  C         17.7970  -23.1900   -9.0560 C.2     1  UNL1        0.2510
     24  O         17.0440  -22.4400   -9.6680 O.2     1  UNL1       -0.2680
     25  N         17.3920  -23.9900   -8.0080 N.am    1  UNL1       -0.3530
     26  H         18.0930  -24.3880   -7.4010 H       1  UNL1        0.1630
     27  C         16.0480  -23.9140   -7.4780 C.3     1  UNL1        0.1610
     28  C         16.0630  -23.4290   -6.0530 C.2     1  UNL1       -0.0410
     29  C         14.9910  -22.6890   -5.5330 C.2     1  UNL1        0.0090
     30  C         15.0050  -22.2590   -4.2050 C.2     1  UNL1        0.0010
     31  C         16.0870  -22.5700   -3.3820 C.2     1  UNL1        0.0000
     32  C         17.1550  -23.3110   -3.8850 C.2     1  UNL1        0.0010
     33  C         17.1430  -23.7400   -5.2120 C.2     1  UNL1        0.0090
@<TRIPOS>BOND
     1    11    10    3
     2     1     2    1
     3    10     9    1
     4     2     9    2
     5     2     3    1
     6     9     7    1
     7     3     4    2
     8     7     8    2
     9     7     6   am
    10     4     6    1
    11     4     5    1
    12     6    12    1
    13    16    15    1
    14    12    13    1
    15    18    19    1
    16    18    17    2
    17    15    13   am
    18    15    17    1
    19    19    20    2
    20    13    14    2
    21    17    22    1
    22    24    23    2
    23    20    23    1
    24    20    21    1
    25    22    21    2
    26    23    25   am
    27    25    27    1
    28    25    26    1
    29    27    28    1
    30    28    29    2
    31    28    33    1
    32    29    30    1
    33    33    32    2
    34    30    31    2
    35    32    31    1
