@<TRIPOS>MOLECULE
44537_out_ligand_01.pdbqt
 37 41 0 0 0
SMALL
GASTEIGER

@<TRIPOS>ATOM
      1  C         16.2740  -21.8410  -10.0070 C.3     1  UNL1        0.1210
      2  C         17.6670  -21.7180  -10.5780 C.2     1  UNL1       -0.0480
      3  C         18.1600  -20.4720  -10.9930 C.2     1  UNL1        0.0090
      4  C         19.4450  -20.3590  -11.5350 C.2     1  UNL1        0.0170
      5  C         20.2470  -21.4980  -11.6780 C.2     1  UNL1        0.0320
      6  C         19.7640  -22.7410  -11.2570 C.2     1  UNL1        0.0170
      7  C         18.4800  -22.8520  -10.7180 C.2     1  UNL1        0.0090
      8  C         21.6190  -21.4290  -12.2490 C.2     1  UNL1        0.2510
      9  O         21.7920  -21.0260  -13.3950 O.2     1  UNL1       -0.2680
     10  N         22.6520  -21.7990  -11.4110 N.am    1  UNL1       -0.3570
     11  H         22.4670  -21.9160  -10.4230 H       1  UNL1        0.1620
     12  C         24.0370  -21.6890  -11.8330 C.3     1  UNL1        0.1270
     13  C         24.6650  -23.0550  -12.1170 C.3     1  UNL1        0.0580
     14  C         24.8200  -23.3030  -13.5960 C.2     1  UNL1       -0.0570
     15  C         25.1950  -24.5640  -14.0750 C.2     1  UNL1        0.0070
     16  C         25.3180  -24.7900  -15.4470 C.2     1  UNL1        0.0010
     17  C         25.0640  -23.7600  -16.3510 C.2     1  UNL1        0.0000
     18  C         24.6860  -22.5020  -15.8840 C.2     1  UNL1        0.0010
     19  C         24.5620  -22.2740  -14.5130 C.2     1  UNL1        0.0070
     20  S         15.9380  -23.5430   -9.4630 S.3     1  UNL1       -0.0870
     21  C         16.0330  -23.3480   -7.7440 C.ar    1  UNL1        0.1700
     22  N         15.1620  -22.6780   -7.0260 N.ar    1  UNL1       -0.2220
     23  C         15.6230  -22.7500   -5.7360 C.ar    1  UNL1        0.0890
     24  C         15.0840  -22.2010   -4.5740 C.2     1  UNL1        0.0530
     25  C         16.8000  -23.4870   -5.6700 C.ar    1  UNL1        0.0830
     26  C         15.7950  -22.4410   -3.4100 C.2     1  UNL1        0.1180
     27  N         16.9440  -23.1540   -3.3400 N.2     1  UNL1       -0.2710
     28  C         17.4650  -23.6910   -4.4690 C.2     1  UNL1        0.1480
     29  N         17.0370  -23.8810   -6.9730 N.ar    1  UNL1       -0.3180
     30  C         18.1820  -24.6660   -7.4120 C.3     1  UNL1        0.1730
     31  C         19.4010  -23.8110   -7.6390 C.2     1  UNL1       -0.0010
     32  C         19.4770  -22.4940   -7.1600 C.2     1  UNL1        0.0120
     33  C         20.6220  -21.7230   -7.3840 C.2     1  UNL1        0.0010
     34  C         21.7040  -22.2580   -8.0830 C.2     1  UNL1        0.0030
     35  C         21.6440  -23.5660   -8.5560 C.2     1  UNL1        0.0430
     36  C         20.5020  -24.3280   -8.3300 C.2     1  UNL1        0.1240
     37  F         20.4650  -25.5850   -8.7940 F       1  UNL1       -0.2050
@<TRIPOS>BOND
     1    17    18    2
     2    17    16    1
     3    18    19    1
     4    16    15    2
     5    19    14    2
     6    15    14    1
     7    14    13    1
     8     9     8    2
     9     8     5    1
    10     8    10   am
    11    13    12    1
    12    12    10    1
    13     5     4    2
    14     5     6    1
    15     4     3    1
    16    10    11    1
    17     6     7    2
    18     3     2    2
    19     7     2    1
    20     2     1    1
    21     1    20    1
    22    20    21    1
    23    37    36    1
    24    35    36    1
    25    35    34    2
    26    36    31    2
    27    34    33    1
    28    21    22   ar
    29    21    29   ar
    30    31    30    1
    31    31    32    1
    32    30    29    1
    33    33    32    2
    34    22    23   ar
    35    29    25   ar
    36    23    25   ar
    37    23    24    1
    38    25    28    1
    39    24    26    2
    40    28    27    2
    41    26    27    1
