@<TRIPOS>MOLECULE
44543_out_ligand_01.pdbqt
 39 43 0 0 0
SMALL
GASTEIGER

@<TRIPOS>ATOM
      1  C         21.4380  -21.5610  -12.5770 C.2     1  UNL1        0.0360
      2  C         22.7190  -21.5100  -12.1690 C.2     1  UNL1        0.0740
      3  S         23.2390  -21.7990  -10.5620 S.3     1  UNL1       -0.0830
      4  C         24.7310  -22.6940  -10.9100 C.2     1  UNL1        0.0320
      5  C         25.1970  -23.5420   -9.8880 C.2     1  UNL1        0.0210
      6  C         26.3850  -24.2510  -10.0340 C.2     1  UNL1        0.0020
      7  C         27.1210  -24.1100  -11.1990 C.2     1  UNL1        0.0020
      8  C         26.6660  -23.2650  -12.2180 C.2     1  UNL1        0.0310
      9  C         25.4570  -22.5500  -12.1040 C.2     1  UNL1        0.0550
     10  N         24.9970  -21.6880  -13.1590 N.am    1  UNL1       -0.3080
     11  C         23.7300  -21.1000  -13.1910 C.2     1  UNL1        0.2650
     12  O         23.3980  -20.2880  -14.0620 O.2     1  UNL1       -0.2670
     13  C         20.2780  -21.9010  -11.7500 C.2     1  UNL1       -0.0350
     14  C         20.3610  -22.9190  -10.7930 C.2     1  UNL1        0.0120
     15  C         19.2540  -23.2350  -10.0000 C.2     1  UNL1        0.0180
     16  C         18.0540  -22.5330  -10.1660 C.2     1  UNL1        0.0320
     17  C         17.9770  -21.5000  -11.1070 C.2     1  UNL1        0.0180
     18  C         19.0840  -21.1870  -11.8990 C.2     1  UNL1        0.0120
     19  C         16.8500  -22.8340   -9.3450 C.2     1  UNL1        0.2510
     20  O         15.9190  -22.0380   -9.3070 O.2     1  UNL1       -0.2680
     21  N         16.8520  -24.0440   -8.6840 N.am    1  UNL1       -0.3570
     22  H         17.6510  -24.6580   -8.7680 H       1  UNL1        0.1620
     23  C         15.7930  -24.4150   -7.7700 C.3     1  UNL1        0.1230
     24  C         16.1190  -23.9890   -6.3430 C.3     1  UNL1        0.0240
     25  C         17.6060  -24.1830   -6.0400 C.3     1  UNL1        0.0400
     26  C         18.2940  -22.8750   -5.7440 C.2     1  UNL1       -0.0580
     27  C         17.9320  -22.1150   -4.6230 C.2     1  UNL1        0.0070
     28  C         18.5700  -20.9020   -4.3560 C.2     1  UNL1        0.0010
     29  C         19.5710  -20.4370   -5.2060 C.2     1  UNL1        0.0000
     30  C         19.9340  -21.1820   -6.3270 C.2     1  UNL1        0.0010
     31  C         19.2980  -22.3930   -6.5970 C.2     1  UNL1        0.0070
     32  C         25.8550  -21.4120  -14.3160 C.3     1  UNL1        0.1740
     33  C         25.3620  -21.9390  -15.6480 C.2     1  UNL1       -0.0010
     34  C         25.2940  -21.0610  -16.7460 C.2     1  UNL1        0.0120
     35  C         24.8180  -21.4980  -17.9850 C.2     1  UNL1        0.0010
     36  C         24.3890  -22.8140  -18.1440 C.2     1  UNL1        0.0030
     37  C         24.4310  -23.6900  -17.0620 C.2     1  UNL1        0.0430
     38  C         24.9050  -23.2490  -15.8290 C.2     1  UNL1        0.1240
     39  F         24.9110  -24.1250  -14.8150 F       1  UNL1       -0.2050
@<TRIPOS>BOND
     1    36    35    2
     2    36    37    1
     3    35    34    1
     4    37    38    2
     5    34    33    2
     6    38    33    1
     7    38    39    1
     8    33    32    1
     9    32    10    1
    10    12    11    2
    11    11    10   am
    12    11     2    1
    13    10     9    1
    14     1     2    2
    15     1    13    1
    16     8     9    1
    17     8     7    2
    18     2     3    1
    19     9     4    2
    20    18    13    2
    21    18    17    1
    22    13    14    1
    23     7     6    1
    24    17    16    2
    25     4     3    1
    26     4     5    1
    27    14    15    2
    28    16    15    1
    29    16    19    1
    30     6     5    2
    31    19    20    2
    32    19    21   am
    33    22    21    1
    34    21    23    1
    35    23    24    1
    36    31    30    1
    37    31    26    2
    38    24    25    1
    39    30    29    2
    40    25    26    1
    41    26    27    1
    42    29    28    1
    43    27    28    2
