@<TRIPOS>MOLECULE
44555_out_ligand_01.pdbqt
 37 40 0 0 0
SMALL
GASTEIGER

@<TRIPOS>ATOM
      1  C         20.3070  -22.4880   -7.4540 C.2     1  UNL1        0.0340
      2  C         20.4130  -21.3120   -6.6990 C.2     1  UNL1        0.0200
      3  C         19.4590  -21.0250   -5.7190 C.2     1  UNL1        0.0450
      4  C         18.3990  -21.9040   -5.4980 C.2     1  UNL1        0.1390
      5  F         17.5210  -21.5950   -4.5370 F       1  UNL1       -0.2040
      6  C         18.2840  -23.0660   -6.2490 C.2     1  UNL1        0.1180
      7  C         19.2280  -23.3590   -7.2410 C.2     1  UNL1        0.0450
      8  C         21.2960  -22.8270   -8.5170 C.2     1  UNL1        0.2560
      9  O         21.5660  -24.0080   -8.6940 O.2     1  UNL1       -0.2670
     10  N         21.8440  -21.7390   -9.1710 N.am    1  UNL1       -0.3230
     11  H         21.6320  -20.8220   -8.8030 H       1  UNL1        0.1690
     12  C         22.7550  -21.7620  -10.2480 C.2     1  UNL1        0.0350
     13  C         22.3760  -21.8950  -11.5870 C.2     1  UNL1        0.0320
     14  C         23.3400  -21.9020  -12.6000 C.2     1  UNL1        0.0390
     15  C         24.6890  -21.7930  -12.2710 C.2     1  UNL1        0.0760
     16  C         25.0830  -21.6330  -10.9450 C.2     1  UNL1        0.0390
     17  C         24.1160  -21.6240   -9.9370 C.2     1  UNL1        0.0320
     18  O         25.6300  -21.7650  -13.2660 O.2     1  UNL1       -0.3110
     19  C         25.2860  -22.2770  -14.5000 C.2     1  UNL1        0.0760
     20  C         24.9450  -21.5280  -15.6290 C.2     1  UNL1        0.0370
     21  C         24.6220  -22.1730  -16.8270 C.2     1  UNL1        0.0030
     22  C         24.6380  -23.5640  -16.9010 C.2     1  UNL1        0.0000
     23  C         24.9780  -24.3160  -15.7780 C.2     1  UNL1        0.0030
     24  C         25.3020  -23.6740  -14.5820 C.2     1  UNL1        0.0370
     25  S         16.9110  -24.1410   -6.0010 S.O2    1  UNL1        0.2610
     26  O         17.0390  -25.3140   -6.8340 O.2     1  UNL1       -0.2000
     27  O         16.7030  -24.2600   -4.5740 O.2     1  UNL1       -0.2000
     28  N         15.6170  -23.2130   -6.5530 N.3     1  UNL1       -0.3150
     29  H         14.7690  -23.7810   -6.6080 H       1  UNL1        0.1720
     30  C         15.8670  -22.2650   -7.6500 C.3     1  UNL1        0.1370
     31  C         15.8750  -23.0240   -8.9790 C.3     1  UNL1        0.0580
     32  C         16.8690  -22.4430   -9.9530 C.2     1  UNL1       -0.0570
     33  C         16.6360  -21.1960  -10.5480 C.2     1  UNL1        0.0070
     34  C         17.5460  -20.6710  -11.4670 C.2     1  UNL1        0.0010
     35  C         18.6930  -21.3860  -11.8020 C.2     1  UNL1        0.0000
     36  C         18.9320  -22.6290  -11.2180 C.2     1  UNL1        0.0010
     37  C         18.0230  -23.1580  -10.3010 C.2     1  UNL1        0.0070
@<TRIPOS>BOND
     1    22    21    2
     2    22    23    1
     3    21    20    1
     4    23    24    2
     5    20    19    2
     6    24    19    1
     7    19    18    1
     8    18    15    1
     9    14    15    2
    10    14    13    1
    11    15    16    1
    12    35    34    2
    13    35    36    1
    14    13    12    2
    15    34    33    1
    16    36    37    2
    17    16    17    2
    18    33    32    2
    19    37    32    1
    20    12    17    1
    21    12    10    1
    22    32    31    1
    23    10    11    1
    24    10     8   am
    25    31    30    1
    26     9     8    2
    27     8     1    1
    28    30    28    1
    29     1     7    2
    30     1     2    1
    31     7     6    1
    32    26    25    2
    33     2     3    2
    34    29    28    1
    35    28    25    1
    36     6    25    1
    37     6     4    2
    38    25    27    2
    39     3     4    1
    40     4     5    1
