@<TRIPOS>MOLECULE
44559_out_ligand_01.pdbqt
 33 36 0 0 0
SMALL
GASTEIGER

@<TRIPOS>ATOM
      1  C         21.3210  -22.9370   -9.9570 C.2     1  UNL1        0.1060
      2  C         22.5910  -23.4860   -9.6480 C.2     1  UNL1        0.0670
      3  C         23.5230  -22.8030  -10.4110 C.2     1  UNL1        0.1060
      4  O         22.8630  -21.8660  -11.1640 O.2     1  UNL1       -0.3110
      5  C         21.5340  -21.9390  -10.8770 C.2     1  UNL1        0.0720
      6  C         20.6560  -20.9840  -11.5830 C.3     1  UNL1        0.0780
      7  C         24.9420  -22.9730  -10.4800 C.2     1  UNL1        0.1010
      8  N         25.6000  -24.0400   -9.9280 N.pl3   1  UNL1       -0.2750
      9  N         26.9220  -24.0500  -10.1620 N.2     1  UNL1       -0.1860
     10  H         25.2080  -24.8090   -9.3950 H       1  UNL1        0.1890
     11  C         27.1110  -22.9610  -10.9110 C.2     1  UNL1        0.1580
     12  C         25.9250  -22.2170  -11.1000 C.2     1  UNL1        0.0820
     13  C         25.7900  -20.9910  -11.8590 C.2     1  UNL1        0.2570
     14  O         25.9260  -19.9020  -11.3040 O.2     1  UNL1       -0.2670
     15  N         25.4550  -21.0930  -13.2040 N.am    1  UNL1       -0.3440
     16  C         24.9950  -22.3130  -13.8780 C.3     1  UNL1        0.1520
     17  C         25.4100  -19.8760  -14.0100 C.3     1  UNL1        0.1520
     18  C         23.9970  -21.9730  -14.9920 C.3     1  UNL1        0.1870
     19  O         24.5260  -21.0870  -15.9880 O.3     1  UNL1       -0.3880
     20  C         25.5420  -20.1990  -15.4990 C.3     1  UNL1        0.1870
     21  S         19.8070  -23.4130   -9.3030 S.O2    1  UNL1        0.2480
     22  O         18.9470  -23.5090  -10.4630 O.2     1  UNL1       -0.2050
     23  O         20.1420  -24.5460   -8.4710 O.2     1  UNL1       -0.2050
     24  N         19.2520  -22.1150   -8.3570 N.pl3   1  UNL1       -0.1810
     25  H         18.9260  -21.3790   -8.9850 H       1  UNL1        0.1460
     26  C         18.2510  -22.4790   -7.4000 C.2     1  UNL1        0.0230
     27  C         17.0200  -22.9540   -7.8390 C.2     1  UNL1        0.0250
     28  C         16.0260  -23.2650   -6.9110 C.2     1  UNL1        0.0090
     29  C         16.2490  -23.0930   -5.5350 C.2     1  UNL1       -0.0560
     30  C         15.1480  -23.4300   -4.5650 C.3     1  UNL1        0.0490
     31  C         17.4920  -22.5960   -5.0930 C.2     1  UNL1       -0.0540
     32  C         18.4830  -22.2840   -6.0380 C.2     1  UNL1        0.0310
     33  C         17.7680  -22.3610   -3.6320 C.3     1  UNL1        0.0490
@<TRIPOS>BOND
     1    19    20    1
     2    19    18    1
     3    20    17    1
     4    18    16    1
     5    17    15    1
     6    16    15    1
     7    15    13   am
     8    13    14    2
     9    13    12    1
    10     6     5    1
    11     4     5    1
    12     4     3    1
    13    12    11    1
    14    12     7    2
    15    11     9    2
    16     5     1    2
    17     7     3    1
    18     7     8    1
    19    22    21    2
    20     3     2    2
    21     9     8    1
    22     1     2    1
    23     1    21    1
    24     8    10    1
    25    21    23    2
    26    21    24    1
    27    25    24    1
    28    24    26    1
    29    27    26    2
    30    27    28    1
    31    26    32    1
    32    28    29    2
    33    32    31    2
    34    29    31    1
    35    29    30    1
    36    31    33    1
