@<TRIPOS>MOLECULE
44560_out_ligand_01.pdbqt
 28 31 0 0 0
SMALL
GASTEIGER

@<TRIPOS>ATOM
      1  C         17.5640  -22.1900  -10.1420 C.2     1  UNL1        0.1430
      2  C         16.2950  -21.7140  -10.4060 C.2     1  UNL1        0.0450
      3  C         15.3960  -22.5080   -9.6570 C.2     1  UNL1        0.0380
      4  C         16.1620  -23.4330   -8.9770 C.2     1  UNL1        0.0780
      5  O         17.4840  -23.2400   -9.2610 O.2     1  UNL1       -0.3070
      6  C         15.8490  -24.5330   -8.0250 C.3     1  UNL1        0.2400
      7  O         16.8870  -24.5580   -7.0480 O.2     1  UNL1       -0.3440
      8  C         16.7090  -23.8170   -5.9040 C.2     1  UNL1        0.0800
      9  C         15.6780  -24.0320   -4.9830 C.2     1  UNL1        0.0370
     10  C         15.5740  -23.2340   -3.8440 C.2     1  UNL1        0.0040
     11  C         16.4960  -22.2150   -3.6170 C.2     1  UNL1        0.0120
     12  C         17.5370  -21.9760   -4.5230 C.2     1  UNL1       -0.0230
     13  C         18.4650  -20.9460   -4.2890 C.2     1  UNL1        0.0120
     14  C         17.6530  -22.7800   -5.6840 C.2     1  UNL1        0.0070
     15  C         19.5040  -20.6990   -5.1860 C.2     1  UNL1        0.0010
     16  C         19.6300  -21.4780   -6.3290 C.2     1  UNL1        0.0010
     17  C         18.7150  -22.5050   -6.5750 C.2     1  UNL1        0.0150
     18  C         18.8600  -21.7590  -10.6260 C.2     1  UNL1        0.2750
     19  O         19.0150  -20.8520  -11.4390 O.2     1  UNL1       -0.2650
     20  N         19.9190  -22.4580  -10.0790 N.am    1  UNL1       -0.3510
     21  H         19.6880  -23.0980   -9.3270 H       1  UNL1        0.1630
     22  C         21.3120  -22.0860  -10.3020 C.3     1  UNL1        0.0840
     23  C         22.1610  -22.5770   -9.1200 C.3     1  UNL1        0.0250
     24  C         23.6700  -22.6770   -9.3330 C.3     1  UNL1        0.0020
     25  C         24.2850  -21.5600  -10.1680 C.3     1  UNL1        0.0000
     26  C         24.2370  -21.8510  -11.6660 C.3     1  UNL1        0.0000
     27  C         22.8570  -21.7450  -12.3040 C.3     1  UNL1        0.0020
     28  C         21.7700  -22.6110  -11.6680 C.3     1  UNL1        0.0250
@<TRIPOS>BOND
     1    27    28    1
     2    27    26    1
     3    28    22    1
     4    26    25    1
     5    19    18    2
     6    18     1    1
     7    18    20   am
     8     2     1    2
     9     2     3    1
    10    22    20    1
    11    22    23    1
    12    25    24    1
    13     1     5    1
    14    20    21    1
    15     3     4    2
    16    24    23    1
    17     5     4    1
    18     4     6    1
    19     6     7    1
    20     7     8    1
    21    17    16    2
    22    17    14    1
    23    16    15    1
    24     8    14    2
    25     8     9    1
    26    14    12    1
    27    15    13    2
    28     9    10    2
    29    12    13    1
    30    12    11    2
    31    10    11    1
