@<TRIPOS>MOLECULE
44575_out_ligand_01.pdbqt
 34 37 0 0 0
SMALL
GASTEIGER

@<TRIPOS>ATOM
      1  C         21.7550  -22.3510  -11.5190 C.2     1  UNL1        0.0370
      2  C         20.8760  -21.3450  -11.9440 C.2     1  UNL1        0.0290
      3  C         19.6170  -21.1980  -11.3590 C.2     1  UNL1        0.0030
      4  C         19.2260  -22.0480  -10.3270 C.2     1  UNL1        0.0170
      5  C         20.1030  -23.0440   -9.8810 C.2     1  UNL1        0.0340
      6  C         21.3600  -23.2000  -10.4840 C.2     1  UNL1        0.0460
      7  N         23.0080  -22.4130  -12.1630 N.am    1  UNL1       -0.3090
      8  C         24.2340  -22.0020  -11.6820 C.2     1  UNL1        0.3270
      9  N         25.2940  -22.1310  -12.5920 N.am    1  UNL1       -0.2960
     10  O         24.4340  -21.6250  -10.5300 O.2     1  UNL1       -0.2460
     11  C         26.6300  -22.3520  -12.0390 C.3     1  UNL1        0.1440
     12  C         25.1670  -22.3560  -13.9980 C.2     1  UNL1        0.0800
     13  C         26.9780  -23.8300  -12.0850 C.3     1  UNL1        0.1010
     14  S         27.0980  -24.4260  -13.7990 S.3     1  UNL1       -0.1060
     15  C         25.9170  -23.3670  -14.6310 C.2     1  UNL1        0.1210
     16  N         25.7990  -23.6560  -15.9510 N.2     1  UNL1       -0.2440
     17  C         24.9460  -22.9250  -16.6970 C.2     1  UNL1        0.0320
     18  C         24.8380  -23.2670  -18.1530 C.3     1  UNL1        0.0700
     19  C         24.2110  -21.8750  -16.1670 C.2     1  UNL1        0.0350
     20  C         24.3360  -21.5540  -14.8080 C.2     1  UNL1       -0.0300
     21  C         23.6140  -20.3260  -14.3190 C.3     1  UNL1        0.0500
     22  H         23.0340  -22.9340  -13.0270 H       1  UNL1        0.1700
     23  C         19.7240  -23.9670   -8.7750 C.2     1  UNL1        0.2520
     24  O         20.4660  -24.8850   -8.4530 O.2     1  UNL1       -0.2680
     25  N         18.5290  -23.6900   -8.1440 N.am    1  UNL1       -0.3530
     26  H         18.0960  -22.7910   -8.3020 H       1  UNL1        0.1630
     27  C         18.1270  -24.4080   -6.9560 C.3     1  UNL1        0.1610
     28  C         17.0290  -23.6690   -6.2310 C.2     1  UNL1       -0.0400
     29  C         16.9520  -23.6920   -4.8280 C.2     1  UNL1        0.0120
     30  C         15.9190  -23.0230   -4.1700 C.2     1  UNL1        0.0430
     31  C         14.9630  -22.3370   -4.9090 C.2     1  UNL1        0.1160
     32  F         13.9710  -21.6980   -4.2730 F       1  UNL1       -0.2060
     33  C         15.0160  -22.3080   -6.2980 C.2     1  UNL1        0.0430
     34  C         16.0490  -22.9750   -6.9590 C.2     1  UNL1        0.0120
@<TRIPOS>BOND
     1    18    17    1
     2    17    19    2
     3    17    16    1
     4    19    20    1
     5    16    15    2
     6    20    21    1
     7    20    12    2
     8    15    12    1
     9    15    14    1
    10    12     9    1
    11    14    13    1
    12    22     7    1
    13     9    11    1
    14     9     8   am
    15     7     8   am
    16     7     1    1
    17    13    11    1
    18     2     1    2
    19     2     3    1
    20     8    10    2
    21     1     6    1
    22     3     4    2
    23     6     5    2
    24     4     5    1
    25     5    23    1
    26    23    24    2
    27    23    25   am
    28    26    25    1
    29    25    27    1
    30    34    33    1
    31    34    28    2
    32    27    28    1
    33    33    31    2
    34    28    29    1
    35    31    32    1
    36    31    30    1
    37    29    30    2
