@<TRIPOS>MOLECULE
44582_out_ligand_01.pdbqt
 33 36 0 0 0
SMALL
GASTEIGER

@<TRIPOS>ATOM
      1  C         23.9980  -22.2630  -10.5500 C.2     1  UNL1        0.0980
      2  C         24.3150  -23.3500   -9.7120 C.2     1  UNL1        0.1600
      3  N         23.2450  -23.9940   -9.2520 N.2     1  UNL1       -0.1770
      4  N         22.1870  -23.3150   -9.7740 N.pl3   1  UNL1       -0.2190
      5  C         20.8200  -23.5990   -9.5910 C.2     1  UNL1        0.0430
      6  C         20.5360  -24.7700   -8.6860 C.3     1  UNL1        0.0710
      7  C         19.8860  -22.8420  -10.2230 C.2     1  UNL1       -0.0050
      8  C         20.4550  -21.6790  -11.0240 C.2     1  UNL1        0.0410
      9  C         19.5140  -20.6960  -11.6860 C.3     1  UNL1        0.0710
     10  N         21.7210  -21.4350  -11.1930 N.2     1  UNL1       -0.2330
     11  C         22.6140  -22.2520  -10.5720 C.2     1  UNL1        0.1680
     12  C         24.8870  -21.3330  -11.2240 C.2     1  UNL1        0.2570
     13  N         24.7980  -21.3570  -12.6010 N.am    1  UNL1       -0.3520
     14  H         23.9960  -21.7940  -13.0330 H       1  UNL1        0.1630
     15  O         25.6540  -20.5760  -10.6390 O.2     1  UNL1       -0.2670
     16  C         25.5390  -20.4020  -13.3880 C.3     1  UNL1        0.1610
     17  C         25.4290  -20.7220  -14.8540 C.2     1  UNL1       -0.0380
     18  C         25.8600  -19.8090  -15.8220 C.2     1  UNL1        0.0090
     19  C         25.7310  -20.1090  -17.1780 C.2     1  UNL1        0.0030
     20  C         25.1630  -21.3220  -17.5820 C.2     1  UNL1        0.0370
     21  C         24.7200  -22.2380  -16.6290 C.2     1  UNL1        0.0680
     22  C         24.8520  -21.9310  -15.2720 C.2     1  UNL1        0.0450
     23  O         24.1430  -23.4510  -16.8860 O.2     1  UNL1       -0.3560
     24  C         23.4920  -23.6010  -18.1420 C.3     1  UNL1        0.2100
     25  C         18.3900  -23.0400  -10.1510 C.3     1  UNL1        0.0820
     26  C         17.7340  -22.8010   -8.8000 C.2     1  UNL1       -0.0470
     27  C         18.5180  -22.2180   -7.7810 C.2     1  UNL1        0.0140
     28  C         18.0010  -21.9600   -6.5060 C.2     1  UNL1       -0.0610
     29  C         18.8500  -21.2930   -5.4650 C.3     1  UNL1        0.0480
     30  C         16.6720  -22.2810   -6.2410 C.2     1  UNL1        0.0070
     31  C         15.8880  -22.8870   -7.2230 C.2     1  UNL1        0.0080
     32  C         16.4070  -23.1740   -8.4970 C.2     1  UNL1       -0.0550
     33  C         15.5020  -23.8530   -9.4880 C.3     1  UNL1        0.0490
@<TRIPOS>BOND
     1    24    23    1
     2    20    19    2
     3    20    21    1
     4    19    18    1
     5    23    21    1
     6    21    22    2
     7    18    17    2
     8    22    17    1
     9    17    16    1
    10    16    13    1
    11    14    13    1
    12    13    12   am
    13     9     8    1
    14    12    15    2
    15    12     1    1
    16    10     8    2
    17    10    11    1
    18     8     7    1
    19    11     1    2
    20    11     4    1
    21     1     2    1
    22     7    25    1
    23     7     5    2
    24    25    26    1
    25     4     5    1
    26     4     3    1
    27     2     3    2
    28     5     6    1
    29    33    32    1
    30    26    32    2
    31    26    27    1
    32    32    31    1
    33    27    28    2
    34    31    30    2
    35    28    30    1
    36    28    29    1
