@<TRIPOS>MOLECULE
44604_out_ligand_01.pdbqt
 34 37 0 0 0
SMALL
GASTEIGER

@<TRIPOS>ATOM
      1  C         23.5340  -22.7140  -10.9170 C.2     1  UNL1        0.2270
      2  N         22.8340  -21.7160  -11.5120 N.2     1  UNL1       -0.0330
      3  C         21.5960  -21.9420  -11.1400 C.cat   1  UNL1        0.7520
      4  N         20.4660  -21.2750  -11.4880 N.2     1  UNL1       -0.0650
      5  C         19.3470  -21.6940  -10.9710 C.2     1  UNL1        0.0580
      6  C         18.1080  -20.9710  -11.4550 C.3     1  UNL1        0.0720
      7  C         19.2110  -22.8280   -9.9600 C.2     1  UNL1       -0.0040
      8  C         20.3680  -23.4930   -9.7020 C.2     1  UNL1        0.0590
      9  C         20.5140  -24.6840   -8.7950 C.3     1  UNL1        0.0720
     10  N         21.5630  -23.0460  -10.2930 N.pl3   1  UNL1       -0.0610
     11  N         22.8220  -23.5480  -10.1520 N.pl3   1  UNL1       -0.1240
     12  S         25.2590  -22.8520  -11.1130 S.3     1  UNL1       -0.0790
     13  C         25.7170  -21.1580  -11.5370 C.3     1  UNL1        0.1850
     14  C         25.9680  -21.0080  -13.0310 C.2     1  UNL1        0.2310
     15  N         25.0240  -21.6620  -13.8050 N.am    1  UNL1       -0.3260
     16  H         24.2550  -22.0970  -13.3040 H       1  UNL1        0.1690
     17  O         26.9410  -20.3900  -13.4490 O.2     1  UNL1       -0.2720
     18  C         24.9570  -21.7330  -15.2110 C.2     1  UNL1        0.0370
     19  C         24.7920  -23.0030  -15.7760 C.2     1  UNL1        0.0290
     20  C         24.7150  -23.1600  -17.1600 C.2     1  UNL1        0.0050
     21  C         24.7920  -22.0450  -17.9960 C.2     1  UNL1        0.0370
     22  C         24.9520  -20.7740  -17.4480 C.2     1  UNL1        0.0700
     23  C         25.0370  -20.6260  -16.0570 C.2     1  UNL1        0.0660
     24  O         25.0230  -19.6020  -18.1530 O.2     1  UNL1       -0.3560
     25  C         26.2620  -18.9050  -18.1200 C.3     1  UNL1        0.2100
     26  C         17.8560  -23.1430   -9.3660 C.3     1  UNL1        0.0820
     27  C         17.7190  -22.9450   -7.8640 C.2     1  UNL1       -0.0470
     28  C         18.5040  -21.9410   -7.2570 C.2     1  UNL1        0.0140
     29  C         18.4720  -21.7100   -5.8780 C.2     1  UNL1       -0.0610
     30  C         19.3250  -20.6480   -5.2510 C.3     1  UNL1        0.0480
     31  C         17.6080  -22.4670   -5.0900 C.2     1  UNL1        0.0070
     32  C         16.7920  -23.4370   -5.6720 C.2     1  UNL1        0.0080
     33  C         16.8220  -23.6780   -7.0580 C.2     1  UNL1       -0.0550
     34  C         15.9000  -24.7300   -7.6080 C.3     1  UNL1        0.0490
@<TRIPOS>BOND
     1    24    25    1
     2    24    22    1
     3    21    22    2
     4    21    20    1
     5    22    23    1
     6    20    19    2
     7    23    18    2
     8    19    18    1
     9    18    15    1
    10    15    16    1
    11    15    14   am
    12    17    14    2
    13    14    13    1
    14    13    12    1
    15     2     3    2
    16     2     1    2
    17     4     3    1
    18     4     5    2
    19     6     5    1
    20     3    10    1
    21    12     1    1
    22     5     7    1
    23     1    11    1
    24    10    11    1
    25    10     8    1
    26     7     8    2
    27     7    26    1
    28     8     9    1
    29    26    27    1
    30    27    28    2
    31    27    33    1
    32    34    33    1
    33    28    29    1
    34    33    32    2
    35    29    30    1
    36    29    31    2
    37    32    31    1
