@<TRIPOS>MOLECULE
44602_out_ligand_01.pdbqt
 35 38 0 0 0
SMALL
GASTEIGER

@<TRIPOS>ATOM
      1  C         21.7660  -21.7130  -11.6110 C.2     1  UNL1        0.0360
      2  C         21.3290  -22.6730  -10.6960 C.2     1  UNL1        0.0300
      3  C         19.9710  -22.7800  -10.3730 C.2     1  UNL1        0.0190
      4  C         19.0290  -21.9350  -10.9710 C.2     1  UNL1        0.0320
      5  C         19.4620  -20.9650  -11.8810 C.2     1  UNL1        0.0190
      6  C         20.8210  -20.8610  -12.2000 C.2     1  UNL1        0.0300
      7  N         23.1080  -21.5520  -12.0060 N.am    1  UNL1       -0.3090
      8  C         24.2230  -21.4430  -11.1990 C.2     1  UNL1        0.3270
      9  N         25.4420  -21.3830  -11.8930 N.am    1  UNL1       -0.2960
     10  O         24.1840  -21.3240   -9.9770 O.2     1  UNL1       -0.2460
     11  C         26.5390  -20.6530  -11.2570 C.3     1  UNL1        0.1440
     12  C         25.6400  -21.7160  -13.2690 C.2     1  UNL1        0.0800
     13  C         26.6400  -19.2530  -11.8380 C.3     1  UNL1        0.1010
     14  S         27.0960  -19.3030  -13.5980 S.3     1  UNL1       -0.1060
     15  C         26.3520  -20.8460  -14.1190 C.2     1  UNL1        0.1210
     16  N         26.5260  -21.0880  -15.4420 N.2     1  UNL1       -0.2440
     17  C         26.0190  -22.2230  -15.9630 C.2     1  UNL1        0.0320
     18  C         26.2310  -22.4620  -17.4280 C.3     1  UNL1        0.0700
     19  C         25.3520  -23.1610  -15.1870 C.2     1  UNL1        0.0350
     20  C         25.1800  -22.9320  -13.8150 C.2     1  UNL1       -0.0300
     21  C         24.5650  -24.0430  -13.0040 C.3     1  UNL1        0.0500
     22  H         23.2610  -21.3650  -12.9850 H       1  UNL1        0.1700
     23  C         17.5950  -22.0910  -10.6000 C.2     1  UNL1        0.2510
     24  O         16.7940  -21.1920  -10.8300 O.2     1  UNL1       -0.2680
     25  N         17.2560  -23.2660   -9.9580 N.am    1  UNL1       -0.3550
     26  H         18.0000  -23.7570   -9.4800 H       1  UNL1        0.1620
     27  C         15.9520  -23.4110   -9.3330 C.3     1  UNL1        0.1530
     28  C         16.0820  -23.9180   -7.8840 C.3     1  UNL1        0.2920
     29  N         15.8180  -22.8730   -6.8640 N.3     1  UNL1        0.0900
     30  C         16.9980  -22.0780   -6.5190 C.3     1  UNL1        0.2720
     31  C         18.0520  -22.7310   -5.6220 C.3     1  UNL1        0.0300
     32  C         17.5680  -23.2160   -4.2520 C.3     1  UNL1        0.0020
     33  C         16.3810  -22.4390   -3.6900 C.2     1  UNL1        0.0020
     34  C         15.0530  -22.6160   -4.4440 C.2     1  UNL1        0.0300
     35  C         15.1020  -23.4610   -5.7230 C.3     1  UNL1        0.2720
@<TRIPOS>BOND
     1    18    17    1
     2    17    16    2
     3    17    19    1
     4    16    15    1
     5    19    20    2
     6    15    14    1
     7    15    12    2
     8    20    12    1
     9    20    21    1
    10    14    13    1
    11    12     9    1
    12    22     7    1
    13     6     5    1
    14     6     1    2
    15     7     1    1
    16     7     8   am
    17     9    11    1
    18     9     8   am
    19     5     4    2
    20    13    11    1
    21     1     2    1
    22     8    10    2
    23     4    23    1
    24     4     3    1
    25    24    23    2
    26     2     3    2
    27    23    25   am
    28    25    26    1
    29    25    27    1
    30    27    28    1
    31    28    29    1
    32    29    30    1
    33    29    35    1
    34    30    31    1
    35    35    34    1
    36    31    32    1
    37    34    33    2
    38    32    33    1
