@<TRIPOS>MOLECULE
44613_out_ligand_01.pdbqt
 31 34 0 0 0
SMALL
GASTEIGER

@<TRIPOS>ATOM
      1  C         19.2400  -21.5010  -11.4300 C.2     1  UNL1        0.2230
      2  N         18.5410  -22.3840  -10.7430 N.2     1  UNL1       -0.2030
      3  C         17.3080  -21.7870  -10.6580 C.2     1  UNL1        0.1580
      4  N         17.2240  -20.5820  -11.2320 N.4     1  UNL1       -0.1110
      5  O         18.5050  -20.3900  -11.7520 O.2     1  UNL1       -0.1890
      6  C         20.6090  -21.6970  -11.7820 C.ar    1  UNL1        0.0960
      7  C         21.6270  -22.4170  -11.1720 C.ar    1  UNL1       -0.0150
      8  C         22.7960  -22.2590  -11.9930 C.ar    1  UNL1       -0.0000
      9  C         24.1210  -22.7410  -11.9170 C.2     1  UNL1        0.0210
     10  C         22.4530  -21.4380  -13.0650 C.ar    1  UNL1        0.0430
     11  C         25.0540  -22.3970  -12.9110 C.2     1  UNL1       -0.0610
     12  C         24.6690  -21.5570  -13.9600 C.2     1  UNL1        0.0090
     13  C         26.4700  -22.8850  -12.8080 C.3     1  UNL1        0.0480
     14  C         23.3630  -21.0670  -14.0600 C.2     1  UNL1        0.0310
     15  N         21.1290  -21.1120  -12.9100 N.ar    1  UNL1       -0.3510
     16  H         20.5960  -20.5260  -13.5380 H       1  UNL1        0.1660
     17  C         21.5500  -23.2170   -9.9080 C.3     1  UNL1        0.0370
     18  C         22.5270  -22.7280   -8.8510 C.3     1  UNL1        0.0100
     19  C         16.1640  -22.4140   -9.9530 C.3     1  UNL1        0.1030
     20  C         16.2890  -22.3760   -8.4270 C.3     1  UNL1        0.1330
     21  N         16.5820  -23.6770   -7.8050 N.am    1  UNL1       -0.3520
     22  C         15.7290  -24.7960   -8.1840 C.3     1  UNL1        0.1520
     23  C         17.3680  -23.8460   -6.6620 C.2     1  UNL1        0.2560
     24  O         17.3650  -24.8680   -5.9780 O.2     1  UNL1       -0.2670
     25  C         18.2290  -22.7450   -6.1990 C.2     1  UNL1        0.0700
     26  C         19.3650  -22.4160   -6.9460 C.2     1  UNL1        0.0200
     27  C         20.1740  -21.3520   -6.5410 C.2     1  UNL1        0.0010
     28  C         19.8370  -20.6090   -5.4070 C.2     1  UNL1        0.0030
     29  C         18.6880  -20.9240   -4.6790 C.2     1  UNL1        0.0430
     30  C         17.8830  -21.9860   -5.0840 C.2     1  UNL1        0.1320
     31  F         16.7810  -22.2660   -4.3730 F       1  UNL1       -0.2050
@<TRIPOS>BOND
     1    14    12    2
     2    14    10    1
     3    12    11    1
     4    16    15    1
     5    10    15   ar
     6    10     8   ar
     7    11    13    1
     8    11     9    2
     9    15     6   ar
    10     8     9    1
    11     8     7   ar
    12     6     1    1
    13     6     7   ar
    14     5     1    1
    15     5     4    1
    16     1     2    2
    17     4     3    1
    18     7    17    1
    19     2     3    2
    20     3    19    1
    21    19    20    1
    22    17    18    1
    23    20    21    1
    24    22    21    1
    25    21    23   am
    26    26    27    1
    27    26    25    2
    28    23    25    1
    29    23    24    2
    30    27    28    2
    31    25    30    1
    32    28    29    1
    33    30    29    2
    34    30    31    1
