@<TRIPOS>MOLECULE
44636_out_ligand_01.pdbqt
 36 39 0 0 0
SMALL
GASTEIGER

@<TRIPOS>ATOM
      1  C         22.6010  -21.9350  -12.1590 C.2     1  UNL1        0.0320
      2  C         21.5710  -21.1670  -12.7100 C.2     1  UNL1        0.0180
      3  C         20.2740  -21.2630  -12.1940 C.2     1  UNL1        0.0170
      4  C         19.9840  -22.1110  -11.1140 C.2     1  UNL1        0.0190
      5  C         21.0300  -22.8620  -10.5550 C.2     1  UNL1        0.0170
      6  C         22.3260  -22.7720  -11.0720 C.2     1  UNL1        0.0180
      7  C         18.6150  -22.1970  -10.6210 C.2     1  UNL1        0.2060
      8  N         18.0780  -23.0440   -9.7700 N.2     1  UNL1       -0.2040
      9  C         16.8020  -22.5640   -9.6480 C.2     1  UNL1        0.1580
     10  N         16.5150  -21.5090  -10.4210 N.4     1  UNL1       -0.1110
     11  O         17.7290  -21.2560  -11.0660 O.2     1  UNL1       -0.1910
     12  C         15.8150  -23.1640   -8.7240 C.3     1  UNL1        0.1030
     13  C         15.7580  -22.4520   -7.3650 C.3     1  UNL1        0.1330
     14  N         15.9470  -23.3300   -6.1970 N.am    1  UNL1       -0.3520
     15  C         14.8300  -24.1880   -5.8290 C.3     1  UNL1        0.1520
     16  C         17.1840  -23.6200   -5.6060 C.2     1  UNL1        0.2560
     17  O         17.3560  -24.5400   -4.8090 O.2     1  UNL1       -0.2670
     18  C         18.3330  -22.7410   -5.8780 C.2     1  UNL1        0.0700
     19  C         19.2240  -23.0540   -6.9140 C.2     1  UNL1        0.0200
     20  C         20.2940  -22.1990   -7.1870 C.2     1  UNL1        0.0010
     21  C         20.4630  -21.0310   -6.4400 C.2     1  UNL1        0.0030
     22  C         19.5550  -20.7070   -5.4290 C.2     1  UNL1        0.0430
     23  C         18.4860  -21.5590   -5.1610 C.2     1  UNL1        0.1320
     24  F         17.6230  -21.2180   -4.1930 F       1  UNL1       -0.2050
     25  C         24.0000  -21.8740  -12.6650 C.2     1  UNL1        0.2510
     26  N         24.1690  -21.9550  -14.0290 N.am    1  UNL1       -0.3530
     27  H         23.3900  -22.1830  -14.6350 H       1  UNL1        0.1630
     28  O         24.9360  -21.7770  -11.8780 O.2     1  UNL1       -0.2680
     29  C         25.4910  -21.9460  -14.6110 C.3     1  UNL1        0.1610
     30  C         25.7920  -20.6080  -15.2280 C.2     1  UNL1       -0.0410
     31  C         25.7490  -20.4380  -16.6170 C.2     1  UNL1        0.0090
     32  C         26.0590  -19.2030  -17.1920 C.2     1  UNL1        0.0070
     33  C         26.4330  -18.1200  -16.3870 C.2     1  UNL1       -0.0620
     34  C         26.7290  -16.7820  -16.9930 C.3     1  UNL1        0.0480
     35  C         26.4760  -18.2880  -14.9970 C.2     1  UNL1        0.0070
     36  C         26.1700  -19.5230  -14.4250 C.2     1  UNL1        0.0090
@<TRIPOS>BOND
     1    32    31    1
     2    32    33    2
     3    34    33    1
     4    31    30    2
     5    33    35    1
     6    30    29    1
     7    30    36    1
     8    35    36    2
     9    27    26    1
    10    29    26    1
    11    26    25   am
    12     2     3    1
    13     2     1    2
    14    25     1    1
    15    25    28    2
    16     3     4    2
    17     1     6    1
    18     4     7    1
    19     4     5    1
    20     6     5    2
    21    11     7    1
    22    11    10    1
    23     7     8    2
    24    10     9    1
    25     8     9    2
    26     9    12    1
    27    12    13    1
    28    13    14    1
    29    20    19    1
    30    20    21    2
    31    19    18    2
    32    21    22    1
    33    14    15    1
    34    14    16   am
    35    18    16    1
    36    18    23    1
    37    16    17    2
    38    22    23    2
    39    23    24    1
