@<TRIPOS>MOLECULE
44635_out_ligand_01.pdbqt
 34 37 0 0 0
SMALL
GASTEIGER

@<TRIPOS>ATOM
      1  C         19.9580  -20.6370  -12.3060 C.3     1  UNL1        0.0500
      2  C         19.0120  -21.3410  -11.3670 C.2     1  UNL1       -0.0350
      3  C         17.6550  -20.9770  -11.4040 C.2     1  UNL1        0.0100
      4  C         16.7280  -21.5880  -10.5620 C.2     1  UNL1        0.0170
      5  C         17.1530  -22.5730   -9.6690 C.2     1  UNL1        0.0340
      6  C         18.5000  -22.9590   -9.6340 C.2     1  UNL1        0.0470
      7  C         19.4420  -22.3480  -10.4720 C.2     1  UNL1        0.0420
      8  C         16.1910  -23.2530   -8.7610 C.2     1  UNL1        0.2520
      9  O         15.6190  -24.2720   -9.1220 O.2     1  UNL1       -0.2680
     10  N         16.0180  -22.6690   -7.5220 N.am    1  UNL1       -0.3530
     11  H         16.5650  -21.8580   -7.2730 H       1  UNL1        0.1630
     12  C         15.0800  -23.2090   -6.5370 C.3     1  UNL1        0.0810
     13  C         14.3850  -22.0560   -5.8090 C.3     1  UNL1        0.0320
     14  C         15.8370  -24.1400   -5.5730 C.3     1  UNL1        0.0290
     15  C         17.3640  -24.1250   -5.7080 C.3     1  UNL1        0.0400
     16  C         18.0030  -22.8380   -5.2500 C.2     1  UNL1       -0.0580
     17  C         17.7730  -22.3520   -3.9560 C.2     1  UNL1        0.0070
     18  C         18.3540  -21.1540   -3.5360 C.2     1  UNL1        0.0010
     19  C         19.1700  -20.4310   -4.4040 C.2     1  UNL1        0.0000
     20  C         19.4070  -20.9070   -5.6930 C.2     1  UNL1        0.0010
     21  C         18.8280  -22.1060   -6.1130 C.2     1  UNL1        0.0070
     22  N         20.8150  -22.6910  -10.4550 N.am    1  UNL1       -0.3210
     23  C         21.7360  -22.5230   -9.4300 C.2     1  UNL1        0.2760
     24  O         21.5060  -22.0660   -8.3170 O.2     1  UNL1       -0.2660
     25  H         21.1700  -23.1580  -11.2770 H       1  UNL1        0.1690
     26  C         23.0890  -22.9620   -9.8180 C.ar    1  UNL1        0.1440
     27  N         23.8300  -23.6420   -8.9360 N.ar    1  UNL1       -0.2050
     28  S         25.2740  -24.0400   -9.6230 S.2     1  UNL1        0.0120
     29  C         24.9710  -23.3210  -11.1520 C.ar    1  UNL1        0.0360
     30  C         25.7940  -23.2720  -12.2890 C.2     1  UNL1        0.0210
     31  C         23.7020  -22.7390  -11.1170 C.ar    1  UNL1        0.0170
     32  C         25.3200  -22.6060  -13.4220 C.2     1  UNL1        0.0010
     33  C         24.0690  -22.0010  -13.4190 C.2     1  UNL1        0.0010
     34  C         23.2580  -22.0570  -12.2800 C.2     1  UNL1        0.0150
@<TRIPOS>BOND
     1    32    33    2
     2    32    30    1
     3    33    34    1
     4     1     2    1
     5    30    29    2
     6    34    31    2
     7     3     2    2
     8     3     4    1
     9     2     7    1
    10    25    22    1
    11    29    31   ar
    12    29    28   ar
    13    31    26   ar
    14     4     5    2
    15     7    22    1
    16     7     6    2
    17    22    23   am
    18    26    23    1
    19    26    27   ar
    20     5     6    1
    21     5     8    1
    22    28    27   ar
    23    23    24    2
    24     9     8    2
    25     8    10   am
    26    10    11    1
    27    10    12    1
    28    12    13    1
    29    12    14    1
    30    21    20    1
    31    21    16    2
    32    15    14    1
    33    15    16    1
    34    20    19    2
    35    16    17    1
    36    19    18    1
    37    17    18    2
