@<TRIPOS>MOLECULE
44640_out_ligand_01.pdbqt
 32 36 0 0 0
SMALL
GASTEIGER

@<TRIPOS>ATOM
      1  C         16.0100  -23.2690   -7.7420 C.ar    1  UNL1        0.1710
      2  N         15.1430  -22.5890   -7.0240 N.ar    1  UNL1       -0.2210
      3  C         15.5610  -22.7440   -5.7280 C.ar    1  UNL1        0.1050
      4  C         15.0330  -22.2620   -4.5260 C.2     1  UNL1        0.0370
      5  C         15.6970  -22.6140   -3.3500 C.2     1  UNL1        0.0220
      6  C         16.8360  -23.4130   -3.4260 C.2     1  UNL1        0.1190
      7  N         17.3880  -23.9000   -4.5630 N.2     1  UNL1       -0.2410
      8  C         16.7050  -23.5300   -5.6660 C.ar    1  UNL1        0.1610
      9  N         16.9900  -23.8450   -6.9710 N.ar    1  UNL1       -0.3040
     10  S         15.9480  -23.4240   -9.4680 S.3     1  UNL1       -0.0870
     11  C         16.3840  -21.7380   -9.9870 C.3     1  UNL1        0.1210
     12  C         17.7490  -21.6730  -10.6310 C.2     1  UNL1       -0.0480
     13  C         18.5210  -22.8350  -10.7800 C.2     1  UNL1        0.0090
     14  C         19.7920  -22.7740  -11.3530 C.2     1  UNL1        0.0170
     15  C         20.3080  -21.5500  -11.7930 C.2     1  UNL1        0.0320
     16  C         19.5540  -20.3820  -11.6310 C.2     1  UNL1        0.0170
     17  C         18.2820  -20.4460  -11.0540 C.2     1  UNL1        0.0090
     18  C         21.6690  -21.5310  -12.3970 C.2     1  UNL1        0.2520
     19  O         21.8440  -21.0280  -13.5010 O.2     1  UNL1       -0.2680
     20  N         22.6820  -22.0720  -11.6250 N.am    1  UNL1       -0.3520
     21  H         22.4940  -22.2920  -10.6550 H       1  UNL1        0.1630
     22  C         24.0420  -22.0750  -12.0600 C.3     1  UNL1        0.0840
     23  C         25.0930  -22.8220  -11.2840 C.3     1  UNL1        0.0270
     24  C         24.6550  -23.3260  -12.6280 C.3     1  UNL1        0.0270
     25  C         18.0880  -24.6970   -7.3890 C.3     1  UNL1        0.1710
     26  C         19.3450  -23.9080   -7.6670 C.2     1  UNL1       -0.0370
     27  C         19.4820  -22.5880   -7.2020 C.2     1  UNL1        0.0090
     28  C         20.6430  -21.8560   -7.4590 C.2     1  UNL1        0.0040
     29  C         21.6850  -22.4340   -8.1810 C.2     1  UNL1        0.0420
     30  C         21.5550  -23.7390   -8.6390 C.2     1  UNL1        0.1170
     31  F         22.5570  -24.2980   -9.3300 F       1  UNL1       -0.2060
     32  C         20.4030  -24.4790   -8.3880 C.2     1  UNL1        0.0510
@<TRIPOS>BOND
     1    19    18    2
     2    24    22    1
     3    24    23    1
     4    18    15    1
     5    18    20   am
     6    22    20    1
     7    22    23    1
     8    15    16    2
     9    15    14    1
    10    16    17    1
    11    20    21    1
    12    14    13    2
    13    17    12    2
    14    13    12    1
    15    12    11    1
    16    11    10    1
    17    10     1    1
    18    31    30    1
    19    30    32    1
    20    30    29    2
    21    32    26    2
    22    29    28    1
    23     1     2   ar
    24     1     9   ar
    25    26    25    1
    26    26    27    1
    27    28    27    2
    28    25     9    1
    29     2     3   ar
    30     9     8   ar
    31     3     8   ar
    32     3     4    1
    33     8     7    1
    34     7     6    2
    35     4     5    2
    36     6     5    1
