@<TRIPOS>MOLECULE
4465_out_ligand_01.pdbqt
 30 33 0 0 0
SMALL
GASTEIGER

@<TRIPOS>ATOM
      1  C         22.3320  -22.0200  -10.5780 C.3     1  UNL1        0.2130
      2  C         22.0860  -23.2490   -9.6730 C.2     1  UNL1        0.2520
      3  O         22.9410  -23.9330   -9.1280 O.2     1  UNL1       -0.2700
      4  N         20.6990  -23.4760   -9.6420 N.am    1  UNL1       -0.3150
      5  C         20.0010  -22.5440  -10.4410 C.2     1  UNL1        0.0520
      6  C         18.6410  -22.3800  -10.7050 C.2     1  UNL1       -0.0340
      7  C         17.5450  -23.2280  -10.1350 C.3     1  UNL1        0.0500
      8  C         18.2750  -21.3440  -11.5900 C.2     1  UNL1        0.0090
      9  C         19.2250  -20.4950  -12.1760 C.2     1  UNL1        0.0010
     10  C         20.5760  -20.6610  -11.8960 C.2     1  UNL1        0.0120
     11  C         20.9420  -21.6860  -11.0350 C.2     1  UNL1        0.0010
     12  C         20.1450  -24.5520   -8.8520 C.3     1  UNL1        0.1340
     13  C         19.5840  -24.0490   -7.5190 C.3     1  UNL1        0.0470
     14  C         19.8980  -22.5710   -7.2930 C.3     1  UNL1        0.1770
     15  O         18.7350  -21.8100   -6.9740 O.2     1  UNL1       -0.3500
     16  C         18.2360  -21.8440   -5.6950 C.2     1  UNL1        0.0790
     17  C         18.8650  -21.2590   -4.5930 C.2     1  UNL1        0.0370
     18  C         18.2820  -21.3290   -3.3290 C.2     1  UNL1        0.0040
     19  C         17.0670  -21.9880   -3.1540 C.2     1  UNL1        0.0120
     20  C         16.4200  -22.5950   -4.2390 C.2     1  UNL1       -0.0230
     21  C         15.1960  -23.2610   -4.0570 C.2     1  UNL1        0.0120
     22  C         17.0060  -22.5350   -5.5260 C.2     1  UNL1        0.0070
     23  C         14.5440  -23.8670   -5.1320 C.2     1  UNL1        0.0010
     24  C         15.1080  -23.8160   -6.4000 C.2     1  UNL1        0.0010
     25  C         16.3250  -23.1580   -6.5940 C.2     1  UNL1        0.0150
     26  N         23.2060  -22.3630  -11.6810 N.am    1  UNL1       -0.3440
     27  C         24.5000  -21.9040  -11.7070 C.2     1  UNL1        0.2140
     28  C         25.3570  -22.5270  -12.7770 C.3     1  UNL1        0.1170
     29  O         24.9350  -21.0490  -10.9430 O.2     1  UNL1       -0.2740
     30  H         22.9880  -23.2120  -12.1840 H       1  UNL1        0.1630
@<TRIPOS>BOND
     1    28    27    1
     2    30    26    1
     3     9    10    2
     4     9     8    1
     5    10    11    1
     6    27    26   am
     7    27    29    2
     8    26     1    1
     9     8     6    2
    10    11     1    1
    11    11     5    2
    12     6     5    1
    13     6     7    1
    14     1     2    1
    15     5     4    1
    16     2     4   am
    17     2     3    2
    18     4    12    1
    19    12    13    1
    20    13    14    1
    21    14    15    1
    22    15    16    1
    23    25    24    2
    24    25    22    1
    25    24    23    1
    26    16    22    2
    27    16    17    1
    28    22    20    1
    29    23    21    2
    30    17    18    2
    31    20    21    1
    32    20    19    2
    33    18    19    1
