@<TRIPOS>MOLECULE
44653_out_ligand_01.pdbqt
 33 37 0 0 0
SMALL
GASTEIGER

@<TRIPOS>ATOM
      1  C         21.8930  -22.3260   -9.4640 C.ar    1  UNL1        0.1920
      2  N         22.4970  -21.7500   -8.4480 N.ar    1  UNL1       -0.1220
      3  N         21.6500  -21.8140   -7.3700 N.ar    1  UNL1       -0.1280
      4  C         20.5430  -22.4210   -7.7560 C.ar    1  UNL1        0.1740
      5  N         20.6540  -22.7620   -9.0850 N.ar    1  UNL1       -0.3000
      6  C         19.4090  -22.6410   -6.9160 C.ar    1  UNL1        0.0820
      7  S         18.4700  -24.0580   -7.0930 S.2     1  UNL1       -0.0630
      8  C         17.3840  -23.5660   -5.8790 C.ar    1  UNL1        0.1100
      9  N         16.3160  -24.3300   -5.5630 N.2     1  UNL1       -0.2530
     10  C         17.7320  -22.3450   -5.3040 C.ar    1  UNL1        0.0270
     11  C         15.5430  -23.8180   -4.5860 C.2     1  UNL1        0.1180
     12  C         15.7670  -22.6200   -3.9290 C.2     1  UNL1        0.0200
     13  C         16.8800  -21.8610   -4.2870 C.2     1  UNL1        0.0180
     14  C         18.9350  -21.8330   -5.8980 C.ar    1  UNL1        0.0600
     15  N         19.5360  -20.6760   -5.5000 N.pl3   1  UNL1       -0.3970
     16  H         20.5390  -20.5760   -5.6610 H       1  UNL1        0.1560
     17  H         19.3010  -20.2990   -4.5850 H       1  UNL1        0.1560
     18  C         19.6580  -23.4290   -9.8990 C.3     1  UNL1        0.1980
     19  C         18.7250  -22.4480  -10.5020 C.2     1  UNL1        0.0700
     20  C         18.8670  -21.4510  -11.4460 C.2     1  UNL1        0.0360
     21  C         17.5950  -20.8480  -11.5820 C.2     1  UNL1        0.0270
     22  C         16.7600  -21.5120  -10.7150 C.2     1  UNL1        0.1420
     23  O         17.4370  -22.4800  -10.0500 O.2     1  UNL1       -0.3250
     24  S         22.5480  -22.5090  -11.0520 S.3     1  UNL1       -0.0860
     25  C         24.2750  -22.9190  -10.6340 C.3     1  UNL1        0.1210
     26  C         25.2480  -22.1530  -11.5040 C.2     1  UNL1       -0.0420
     27  C         25.7200  -22.6540  -12.7350 C.2     1  UNL1       -0.0550
     28  C         26.6130  -21.8780  -13.4920 C.2     1  UNL1        0.0080
     29  C         25.2720  -23.9820  -13.2800 C.3     1  UNL1        0.0490
     30  C         27.0510  -20.6340  -13.0350 C.2     1  UNL1        0.0070
     31  C         26.6050  -20.1340  -11.8110 C.2     1  UNL1       -0.0610
     32  C         27.0650  -18.8000  -11.3030 C.3     1  UNL1        0.0480
     33  C         25.7070  -20.8990  -11.0530 C.2     1  UNL1        0.0150
@<TRIPOS>BOND
     1    28    30    2
     2    28    27    1
     3    29    27    1
     4    30    31    1
     5    27    26    2
     6    31    32    1
     7    31    33    2
     8    21    20    1
     9    21    22    2
    10    26    33    1
    11    26    25    1
    12    20    19    2
    13    24    25    1
    14    24     1    1
    15    22    23    1
    16    19    23    1
    17    19    18    1
    18    18     5    1
    19     1     5   ar
    20     1     2   ar
    21     5     4   ar
    22     2     3   ar
    23     4     3   ar
    24     4     6    1
    25     7     6   ar
    26     7     8   ar
    27     6    14   ar
    28    14    15    1
    29    14    10   ar
    30     8     9    2
    31     8    10   ar
    32    16    15    1
    33     9    11    1
    34    15    17    1
    35    10    13    2
    36    11    12    2
    37    13    12    1
