@<TRIPOS>MOLECULE
44656_out_ligand_01.pdbqt
 31 34 0 0 0
SMALL
GASTEIGER

@<TRIPOS>ATOM
      1  C         24.2890  -22.8340  -11.2990 C.ar    1  UNL1        0.2130
      2  N         25.2780  -22.6570  -12.1500 N.ar    1  UNL1       -0.1200
      3  N         24.7900  -21.9400  -13.2190 N.ar    1  UNL1       -0.1280
      4  C         23.5070  -21.7280  -13.0060 C.ar    1  UNL1        0.1750
      5  C         22.5130  -21.0770  -13.7630 C.2     1  UNL1        0.0570
      6  C         21.2520  -21.0500  -13.3070 C.2     1  UNL1        0.0380
      7  C         20.9750  -21.7150  -11.9930 C.2     1  UNL1        0.0880
      8  N         21.8750  -22.2840  -11.2450 N.2     1  UNL1       -0.1630
      9  N         23.1300  -22.2770  -11.7940 N.ar    1  UNL1       -0.1870
     10  S         24.3870  -23.6200   -9.7610 S.3     1  UNL1       -0.0790
     11  C         23.3560  -22.5370   -8.7370 C.3     1  UNL1        0.1850
     12  C         22.0100  -23.1780   -8.4330 C.2     1  UNL1        0.2310
     13  N         21.1440  -22.3310   -7.7610 N.am    1  UNL1       -0.3270
     14  H         21.4030  -21.3440   -7.7470 H       1  UNL1        0.1690
     15  O         21.7730  -24.3360   -8.7680 O.2     1  UNL1       -0.2720
     16  C         19.8770  -22.6380   -7.2320 C.2     1  UNL1        0.0340
     17  C         19.2210  -23.8480   -7.4350 C.2     1  UNL1        0.0300
     18  C         17.9730  -24.0870   -6.8390 C.2     1  UNL1        0.0170
     19  C         17.3670  -23.1150   -6.0360 C.2     1  UNL1        0.0090
     20  C         18.0260  -21.8960   -5.8310 C.2     1  UNL1        0.0170
     21  C         19.2730  -21.6650   -6.4250 C.2     1  UNL1        0.0300
     22  C         16.0430  -23.4210   -5.4170 C.2     1  UNL1        0.1550
     23  C         14.8580  -22.5600   -5.7670 C.3     1  UNL1        0.0960
     24  O         15.9350  -24.3560   -4.6260 O.2     1  UNL1       -0.2930
     25  C         19.5620  -21.6960  -11.5230 C.2     1  UNL1       -0.0050
     26  C         19.0780  -22.8030  -10.8080 C.2     1  UNL1        0.0170
     27  C         17.7500  -22.8270  -10.3760 C.2     1  UNL1        0.0430
     28  C         16.9120  -21.7540  -10.6700 C.2     1  UNL1        0.1160
     29  F         15.6380  -21.7800  -10.2630 F       1  UNL1       -0.2060
     30  C         17.3750  -20.6560  -11.3910 C.2     1  UNL1        0.0430
     31  C         18.7040  -20.6250  -11.8250 C.2     1  UNL1        0.0170
@<TRIPOS>BOND
     1     5     6    2
     2     5     4    1
     3     6     7    1
     4     3     4   ar
     5     3     2   ar
     6     4     9   ar
     7     2     1   ar
     8     7    25    1
     9     7     8    2
    10    31    25    2
    11    31    30    1
    12     9     1   ar
    13     9     8    1
    14    25    26    1
    15    30    28    2
    16     1    10    1
    17    26    27    2
    18    28    27    1
    19    28    29    1
    20    10    11    1
    21    15    12    2
    22    11    12    1
    23    12    13   am
    24    13    14    1
    25    13    16    1
    26    17    16    2
    27    17    18    1
    28    16    21    1
    29    18    19    2
    30    21    20    2
    31    19    20    1
    32    19    22    1
    33    23    22    1
    34    22    24    2
