@<TRIPOS>MOLECULE
44666_out_ligand_01.pdbqt
 28 31 0 0 0
SMALL
GASTEIGER

@<TRIPOS>ATOM
      1  C         18.7350  -23.2360   -9.0020 C.2     1  UNL1       -0.0050
      2  C         20.1280  -23.7090   -9.3810 C.2     1  UNL1        0.0410
      3  C         20.7400  -24.8740   -8.6310 C.3     1  UNL1        0.0710
      4  N         20.8550  -23.2090  -10.3350 N.2     1  UNL1       -0.2330
      5  C         20.3140  -22.2030  -11.0780 C.2     1  UNL1        0.1680
      6  C         20.8260  -21.4470  -12.1180 C.2     1  UNL1        0.0980
      7  C         19.7530  -20.6140  -12.4910 C.2     1  UNL1        0.1600
      8  N         18.6490  -20.8190  -11.7770 N.2     1  UNL1       -0.1770
      9  N         18.9990  -21.7780  -10.8770 N.pl3   1  UNL1       -0.2190
     10  C         18.2090  -22.3080   -9.8400 C.2     1  UNL1        0.0430
     11  C         16.8100  -21.7640   -9.7400 C.3     1  UNL1        0.0710
     12  C         22.1690  -21.5110  -12.6650 C.2     1  UNL1        0.2570
     13  O         22.4650  -21.1080  -13.7850 O.2     1  UNL1       -0.2670
     14  N         23.1030  -22.0710  -11.8110 N.am    1  UNL1       -0.3520
     15  H         22.8640  -22.1370  -10.8310 H       1  UNL1        0.1630
     16  C         24.5070  -22.0850  -12.1610 C.3     1  UNL1        0.0840
     17  C         25.0040  -23.4790  -12.5250 C.3     1  UNL1        0.0250
     18  C         26.5130  -23.3330  -12.4160 C.3     1  UNL1        0.0020
     19  C         26.7210  -22.4460  -11.1930 C.3     1  UNL1        0.0020
     20  C         25.4160  -21.6680  -11.0020 C.3     1  UNL1        0.0250
     21  C         18.0780  -23.8060   -7.7650 C.3     1  UNL1        0.0820
     22  C         18.1020  -22.9270   -6.5220 C.2     1  UNL1       -0.0480
     23  C         19.1220  -21.9610   -6.4150 C.2     1  UNL1        0.0080
     24  C         19.2100  -21.1200   -5.3060 C.2     1  UNL1        0.0010
     25  C         18.2740  -21.2230   -4.2860 C.2     1  UNL1        0.0010
     26  C         17.2440  -22.1570   -4.3810 C.2     1  UNL1        0.0070
     27  C         17.1300  -23.0030   -5.5000 C.2     1  UNL1       -0.0550
     28  C         15.9820  -23.9740   -5.5350 C.3     1  UNL1        0.0490
@<TRIPOS>BOND
     1    13    12    2
     2    12     6    1
     3    12    14   am
     4    17    18    1
     5    17    16    1
     6     7     6    1
     7     7     8    2
     8    18    19    1
     9    16    14    1
    10    16    20    1
    11     6     5    2
    12    14    15    1
    13     8     9    1
    14    19    20    1
    15     5     9    1
    16     5     4    1
    17     9    10    1
    18     4     2    2
    19    10    11    1
    20    10     1    2
    21     2     1    1
    22     2     3    1
    23     1    21    1
    24    21    22    1
    25    22    23    2
    26    22    27    1
    27    23    24    1
    28    28    27    1
    29    27    26    2
    30    24    25    2
    31    26    25    1
