@<TRIPOS>MOLECULE
44672_out_ligand_01.pdbqt
 30 33 0 0 0
SMALL
GASTEIGER

@<TRIPOS>ATOM
      1  C         23.7560  -21.7470  -11.1140 C.2     1  UNL1       -0.0400
      2  C         22.6480  -22.2250  -11.8430 C.2     1  UNL1        0.0110
      3  C         21.4410  -22.5330  -11.2050 C.2     1  UNL1        0.0310
      4  C         21.3510  -22.3520   -9.8350 C.2     1  UNL1        0.0430
      5  C         22.4400  -21.8730   -9.1080 C.2     1  UNL1       -0.0290
      6  C         23.6420  -21.5660   -9.7280 C.2     1  UNL1        0.0180
      7  C         22.1280  -21.7840   -7.6500 C.2     1  UNL1        0.0610
      8  C         20.6450  -22.1790   -7.6150 C.2     1  UNL1        0.1370
      9  N         20.2560  -22.5780   -8.9810 N.am    1  UNL1       -0.3130
     10  C         19.0440  -23.1290   -9.3620 C.2     1  UNL1        0.2580
     11  O         18.7490  -23.5540  -10.4750 O.2     1  UNL1       -0.2670
     12  C         25.0430  -21.3970  -11.8170 C.3     1  UNL1        0.1610
     13  N         25.0100  -21.8390  -13.1930 N.am    1  UNL1       -0.3530
     14  C         25.0440  -20.9550  -14.2470 C.2     1  UNL1        0.2550
     15  O         25.2100  -19.7480  -14.0990 O.2     1  UNL1       -0.2680
     16  H         24.7590  -22.8050  -13.3630 H       1  UNL1        0.1630
     17  C         24.8640  -21.5140  -15.6170 C.2     1  UNL1        0.0700
     18  C         24.3910  -22.8300  -15.7420 C.2     1  UNL1        0.0200
     19  C         24.2040  -23.4030  -17.0040 C.2     1  UNL1        0.0010
     20  C         24.4910  -22.6690  -18.1530 C.2     1  UNL1        0.0030
     21  C         24.9630  -21.3620  -18.0410 C.2     1  UNL1        0.0430
     22  C         25.1460  -20.7940  -16.7800 C.2     1  UNL1        0.1320
     23  F         25.6050  -19.5330  -16.7240 F       1  UNL1       -0.2050
     24  C         18.0040  -23.2420   -8.3190 C.2     1  UNL1        0.0320
     25  C         16.9230  -22.3540   -8.3010 C.2     1  UNL1        0.0180
     26  C         15.9400  -22.4880   -7.3170 C.2     1  UNL1        0.0250
     27  C         16.0390  -23.5110   -6.3710 C.2     1  UNL1        0.0340
     28 CL         14.8280  -23.6690   -5.1600 Cl      1  UNL1       -0.0840
     29  C         17.1080  -24.4090   -6.4040 C.2     1  UNL1        0.0250
     30  C         18.0920  -24.2800   -7.3860 C.2     1  UNL1        0.0180
@<TRIPOS>BOND
     1    20    21    2
     2    20    19    1
     3    21    22    1
     4    19    18    2
     5    22    23    1
     6    22    17    2
     7    18    17    1
     8    17    14    1
     9    14    15    2
    10    14    13   am
    11    16    13    1
    12    13    12    1
    13     2     3    1
    14     2     1    2
    15    12     1    1
    16     3     4    2
    17     1     6    1
    18    11    10    2
    19     4     5    1
    20     4     9    1
    21     6     5    2
    22    10     9   am
    23    10    24    1
    24     5     7    1
    25     9     8    1
    26    24    25    2
    27    24    30    1
    28    25    26    1
    29     7     8    2
    30    30    29    2
    31    26    27    2
    32    29    27    1
    33    27    28    1
