@<TRIPOS>MOLECULE
44681_out_ligand_01.pdbqt
 38 42 0 0 0
SMALL
GASTEIGER

@<TRIPOS>ATOM
      1  C         20.2820  -21.5530  -11.7800 C.2     1  UNL1        0.0320
      2  C         19.7610  -22.7830  -11.3640 C.2     1  UNL1        0.0170
      3  C         18.4830  -22.8530  -10.8090 C.2     1  UNL1        0.0090
      4  C         17.7090  -21.6930  -10.6550 C.2     1  UNL1       -0.0480
      5  C         18.2470  -20.4590  -11.0500 C.2     1  UNL1        0.0090
      6  C         19.5250  -20.3870  -11.6080 C.2     1  UNL1        0.0170
      7  C         16.3360  -21.7680  -10.0320 C.3     1  UNL1        0.1210
      8  S         15.9610  -23.4470   -9.4440 S.3     1  UNL1       -0.0870
      9  C         16.1620  -23.2360   -7.7370 C.ar    1  UNL1        0.1700
     10  N         15.3890  -22.4760   -6.9940 N.ar    1  UNL1       -0.2220
     11  C         15.8240  -22.6700   -5.7090 C.ar    1  UNL1        0.0890
     12  C         15.3380  -22.1250   -4.5200 C.2     1  UNL1        0.0530
     13  C         16.9010  -23.5520   -5.6730 C.ar    1  UNL1        0.0830
     14  C         15.9850  -22.5310   -3.3650 C.2     1  UNL1        0.1180
     15  N         17.0290  -23.3940   -3.3230 N.2     1  UNL1       -0.2710
     16  C         17.5010  -23.9190   -4.4760 C.2     1  UNL1        0.1480
     17  N         17.1360  -23.8620   -6.9990 N.ar    1  UNL1       -0.3190
     18  C         18.2380  -24.6740   -7.4930 C.3     1  UNL1        0.1700
     19  C         19.4830  -23.8450   -7.7160 C.2     1  UNL1       -0.0400
     20  C         19.5750  -22.5330   -7.2170 C.2     1  UNL1        0.0120
     21  C         20.7260  -21.7710   -7.4280 C.2     1  UNL1        0.0430
     22  C         21.7870  -22.3130   -8.1370 C.2     1  UNL1        0.1160
     23  F         22.8920  -21.5790   -8.3320 F       1  UNL1       -0.2060
     24  C         21.7220  -23.6060   -8.6400 C.2     1  UNL1        0.0430
     25  C         20.5730  -24.3730   -8.4290 C.2     1  UNL1        0.0120
     26  C         21.6430  -21.5360  -12.3800 C.2     1  UNL1        0.2510
     27  O         21.8230  -21.0150  -13.4740 O.2     1  UNL1       -0.2680
     28  N         22.6540  -22.0780  -11.6090 N.am    1  UNL1       -0.3570
     29  H         22.4500  -22.3840  -10.6650 H       1  UNL1        0.1620
     30  C         24.0440  -22.0220  -12.0170 C.3     1  UNL1        0.1230
     31  C         24.5120  -23.3290  -12.6570 C.3     1  UNL1        0.0240
     32  C         25.7610  -23.1560  -13.5230 C.3     1  UNL1        0.0400
     33  C         25.4040  -22.7630  -14.9380 C.2     1  UNL1       -0.0580
     34  C         25.5590  -21.4380  -15.3670 C.2     1  UNL1        0.0070
     35  C         25.2400  -21.0760  -16.6780 C.2     1  UNL1        0.0010
     36  C         24.7700  -22.0360  -17.5730 C.2     1  UNL1        0.0000
     37  C         24.6200  -23.3590  -17.1570 C.2     1  UNL1        0.0010
     38  C         24.9350  -23.7220  -15.8460 C.2     1  UNL1        0.0070
@<TRIPOS>BOND
     1    36    37    2
     2    36    35    1
     3    37    38    1
     4    35    34    2
     5    38    33    2
     6    34    33    1
     7    33    32    1
     8    32    31    1
     9    27    26    2
    10    31    30    1
    11    26     1    1
    12    26    28   am
    13    30    28    1
    14     1     6    2
    15     1     2    1
    16    28    29    1
    17     6     5    1
    18     2     3    2
    19     5     4    2
    20     3     4    1
    21     4     7    1
    22     7     8    1
    23     8     9    1
    24    24    25    1
    25    24    22    2
    26    25    19    2
    27    23    22    1
    28    22    21    1
    29     9    17   ar
    30     9    10   ar
    31    19    18    1
    32    19    20    1
    33    18    17    1
    34    21    20    2
    35    17    13   ar
    36    10    11   ar
    37    11    13   ar
    38    11    12    1
    39    13    16    1
    40    12    14    2
    41    16    15    2
    42    14    15    1
