@<TRIPOS>MOLECULE
44692_out_ligand_01.pdbqt
 29 31 0 0 0
SMALL
GASTEIGER

@<TRIPOS>ATOM
      1  C         19.2360  -23.2110   -7.4090 C.2     1  UNL1       -0.0050
      2  C         20.1740  -22.1760   -7.2610 C.2     1  UNL1        0.0150
      3  C         21.4250  -22.2470   -7.8850 C.2     1  UNL1        0.0180
      4  C         21.7600  -23.3540   -8.6750 C.2     1  UNL1        0.0320
      5  C         20.8210  -24.3730   -8.8620 C.2     1  UNL1        0.0180
      6  C         19.5730  -24.3000   -8.2320 C.2     1  UNL1        0.0150
      7  C         17.9140  -23.1490   -6.7560 C.2     1  UNL1        0.0930
      8  N         17.8840  -23.7710   -5.5460 N.2     1  UNL1       -0.2580
      9  C         16.7090  -23.7990   -4.8870 C.2     1  UNL1        0.1170
     10  C         15.5500  -23.2250   -5.3710 C.2     1  UNL1        0.0220
     11  C         15.5960  -22.5730   -6.6020 C.2     1  UNL1        0.0330
     12  C         16.7890  -22.5130   -7.3240 C.2     1  UNL1        0.0640
     13  N         16.9060  -21.8240   -8.5600 N.am    1  UNL1       -0.3250
     14  C         16.7810  -22.3420   -9.8390 C.2     1  UNL1        0.2210
     15  O         16.5570  -23.5100  -10.1330 O.2     1  UNL1       -0.2730
     16  H         17.0890  -20.8300   -8.4980 H       1  UNL1        0.1690
     17  C         16.9630  -21.2610  -10.8920 C.3     1  UNL1        0.0980
     18  C         18.3890  -21.1780  -11.4060 C.3     1  UNL1        0.0140
     19  C         23.1040  -23.3810   -9.3240 C.2     1  UNL1        0.2560
     20  O         23.9800  -24.0700   -8.8130 O.2     1  UNL1       -0.2670
     21  N         23.2100  -22.6430  -10.4900 N.am    1  UNL1       -0.3230
     22  H         22.3590  -22.2380  -10.8560 H       1  UNL1        0.1690
     23  C         24.3620  -22.4600  -11.2850 C.2     1  UNL1        0.0360
     24  C         25.3630  -21.5270  -11.0050 C.2     1  UNL1        0.0290
     25  C         26.4750  -21.4000  -11.8460 C.2     1  UNL1        0.0040
     26  C         26.5940  -22.2040  -12.9770 C.2     1  UNL1        0.0190
     27  C         25.5970  -23.1320  -13.2610 C.2     1  UNL1        0.0130
     28 BR         25.7480  -24.2270  -14.7960 Br      1  UNL1       -0.0510
     29  C         24.4850  -23.2620  -12.4260 C.2     1  UNL1        0.0480
@<TRIPOS>BOND
     1    28    27    1
     2    27    26    2
     3    27    29    1
     4    26    25    1
     5    29    23    2
     6    25    24    2
     7    18    17    1
     8    23    24    1
     9    23    21    1
    10    17    14    1
    11    22    21    1
    12    21    19   am
    13    15    14    2
    14    14    13   am
    15    19    20    2
    16    19     4    1
    17     5     4    2
    18     5     6    1
    19     4     3    1
    20    13    16    1
    21    13    12    1
    22     6     1    2
    23     3     2    2
    24     1     2    1
    25     1     7    1
    26    12     7    2
    27    12    11    1
    28     7     8    1
    29    11    10    2
    30     8     9    2
    31    10     9    1
