@<TRIPOS>MOLECULE
44695_out_ligand_01.pdbqt
 32 35 0 0 0
SMALL
GASTEIGER

@<TRIPOS>ATOM
      1  C         22.6220  -22.1640  -12.1430 C.2     1  UNL1        0.0340
      2  C         21.5200  -21.4270  -12.5980 C.2     1  UNL1        0.0300
      3  C         20.3130  -21.4320  -11.8900 C.2     1  UNL1        0.0190
      4  C         20.1980  -22.1810  -10.7150 C.2     1  UNL1        0.0320
      5  C         21.3010  -22.8950  -10.2390 C.2     1  UNL1        0.0190
      6  C         22.5050  -22.8910  -10.9560 C.2     1  UNL1        0.0300
      7  C         18.9270  -22.2140   -9.9410 C.2     1  UNL1        0.2560
      8  O         17.9270  -21.7140  -10.4420 O.2     1  UNL1       -0.2670
      9  N         19.0460  -22.7850   -8.6860 N.am    1  UNL1       -0.3220
     10  H         19.9870  -22.9770   -8.3820 H       1  UNL1        0.1690
     11  C         18.0170  -23.0430   -7.7420 C.2     1  UNL1        0.0460
     12  C         16.9640  -23.9180   -8.0450 C.2     1  UNL1        0.0300
     13  C         15.9720  -24.1990   -7.1100 C.2     1  UNL1        0.0030
     14  C         16.0180  -23.6110   -5.8520 C.2     1  UNL1        0.0120
     15  C         17.0520  -22.7310   -5.5080 C.2     1  UNL1       -0.0240
     16  C         17.0640  -22.1520   -4.2270 C.2     1  UNL1        0.0120
     17  C         18.0730  -22.4260   -6.4480 C.2     1  UNL1        0.0010
     18  C         18.0670  -21.2640   -3.8460 C.2     1  UNL1        0.0010
     19  C         19.0710  -20.9400   -4.7450 C.2     1  UNL1        0.0010
     20  C         19.0760  -21.5110   -6.0230 C.2     1  UNL1        0.0140
     21  N         23.7910  -22.1120  -12.9250 N.am    1  UNL1       -0.3270
     22  C         25.0040  -21.5290  -12.6150 C.2     1  UNL1        0.2310
     23  O         25.2760  -20.9830  -11.5460 O.2     1  UNL1       -0.2720
     24  H         23.7330  -22.5220  -13.8500 H       1  UNL1        0.1690
     25  C         26.0980  -21.6730  -13.6710 C.3     1  UNL1        0.1850
     26  S         25.9150  -20.6150  -15.1450 S.3     1  UNL1       -0.0810
     27  C         25.1220  -21.7010  -16.2150 C.2     1  UNL1        0.1890
     28  N         23.9750  -22.3110  -16.0510 N.2     1  UNL1       -0.1230
     29  N         23.7520  -23.0710  -17.1800 N.2     1  UNL1       -0.1430
     30  C         24.7760  -22.8980  -17.9870 C.2     1  UNL1        0.2330
     31  N         25.6680  -22.0420  -17.4130 N.pl3   1  UNL1       -0.3270
     32  H         26.5450  -21.7150  -17.7910 H       1  UNL1        0.1680
@<TRIPOS>BOND
     1    30    31    1
     2    30    29    2
     3    32    31    1
     4    31    27    1
     5    29    28    1
     6    27    28    2
     7    27    26    1
     8    26    25    1
     9    24    21    1
    10    25    22    1
    11    21    22   am
    12    21     1    1
    13    22    23    2
    14     2     1    2
    15     2     3    1
    16     1     6    1
    17     3     4    2
    18     6     5    2
    19     4     5    1
    20     4     7    1
    21     8     7    2
    22     7     9   am
    23     9    10    1
    24     9    11    1
    25    12    11    2
    26    12    13    1
    27    11    17    1
    28    13    14    2
    29    17    20    1
    30    17    15    2
    31    20    19    2
    32    14    15    1
    33    15    16    1
    34    19    18    1
    35    16    18    2
