@<TRIPOS>MOLECULE
44693_out_ligand_01.pdbqt
 34 38 0 0 0
SMALL
GASTEIGER

@<TRIPOS>ATOM
      1  C         16.2740  -23.2100   -7.7970 C.ar    1  UNL1        0.1700
      2  N         15.3940  -22.5460   -7.0840 N.ar    1  UNL1       -0.2220
      3  C         15.8030  -22.6920   -5.7820 C.ar    1  UNL1        0.0890
      4  C         15.2380  -22.1760   -4.6130 C.2     1  UNL1        0.0530
      5  C         15.8810  -22.5140   -3.4350 C.2     1  UNL1        0.1180
      6  N         16.9870  -23.2870   -3.3510 N.2     1  UNL1       -0.2710
      7  C         17.5420  -23.7790   -4.4880 C.2     1  UNL1        0.1480
      8  C         16.9470  -23.4800   -5.7050 C.ar    1  UNL1        0.0830
      9  N         17.2360  -23.8040   -7.0190 N.ar    1  UNL1       -0.3190
     10  S         16.2360  -23.2980   -9.5260 S.3     1  UNL1       -0.0870
     11  C         16.7110  -21.5940   -9.9400 C.3     1  UNL1        0.1210
     12  C         18.0120  -21.5680  -10.7070 C.2     1  UNL1       -0.0480
     13  C         18.5240  -20.3520  -11.1860 C.2     1  UNL1        0.0090
     14  C         19.7530  -20.3090  -11.8540 C.2     1  UNL1        0.0170
     15  C         20.4940  -21.4850  -12.0390 C.2     1  UNL1        0.0320
     16  C         19.9760  -22.7040  -11.5830 C.2     1  UNL1        0.0170
     17  C         18.7470  -22.7460  -10.9160 C.2     1  UNL1        0.0090
     18  C         21.8180  -21.4860  -12.7210 C.2     1  UNL1        0.2520
     19  O         21.9570  -20.9110  -13.7940 O.2     1  UNL1       -0.2680
     20  N         22.8300  -22.1870  -12.0930 N.am    1  UNL1       -0.3520
     21  H         22.6390  -22.6850  -11.2330 H       1  UNL1        0.1630
     22  C         24.1750  -22.2380  -12.6460 C.3     1  UNL1        0.0840
     23  C         24.9710  -23.4140  -12.0860 C.3     1  UNL1        0.0250
     24  C         25.4650  -22.9280  -10.7250 C.3     1  UNL1        0.0020
     25  C         25.5300  -21.4040  -10.8210 C.3     1  UNL1        0.0020
     26  C         25.0110  -21.0380  -12.2100 C.3     1  UNL1        0.0250
     27  C         18.3150  -24.6810   -7.4460 C.3     1  UNL1        0.1700
     28  C         19.5800  -23.9230   -7.7730 C.2     1  UNL1       -0.0400
     29  C         19.7700  -22.6010   -7.3250 C.2     1  UNL1        0.0120
     30  C         20.9350  -21.9030   -7.6410 C.2     1  UNL1        0.0430
     31  C         21.9200  -22.5170   -8.4040 C.2     1  UNL1        0.1160
     32  F         23.0360  -21.8440   -8.7160 F       1  UNL1       -0.2060
     33  C         21.7570  -23.8220   -8.8590 C.2     1  UNL1        0.0430
     34  C         20.5870  -24.5210   -8.5520 C.2     1  UNL1        0.0120
@<TRIPOS>BOND
     1    19    18    2
     2    18    20   am
     3    18    15    1
     4    22    26    1
     5    22    20    1
     6    22    23    1
     7    26    25    1
     8    20    21    1
     9    23    24    1
    10    15    14    2
    11    15    16    1
    12    14    13    1
    13    16    17    2
    14    13    12    2
    15    17    12    1
    16    25    24    1
    17    12    11    1
    18    11    10    1
    19    10     1    1
    20    33    34    1
    21    33    31    2
    22    32    31    1
    23    34    28    2
    24    31    30    1
    25     1     2   ar
    26     1     9   ar
    27    28    27    1
    28    28    29    1
    29    30    29    2
    30    27     9    1
    31     2     3   ar
    32     9     8   ar
    33     3     8   ar
    34     3     4    1
    35     8     7    1
    36     4     5    2
    37     7     6    2
    38     5     6    1
