@<TRIPOS>MOLECULE
44744_out_ligand_01.pdbqt
 36 40 0 0 0
SMALL
GASTEIGER

@<TRIPOS>ATOM
      1  C         23.3900  -22.1490  -11.5640 C.2     1  UNL1        0.0750
      2  C         22.1240  -22.1220  -12.1530 C.2     1  UNL1        0.0270
      3  C         20.9920  -21.9920  -11.3430 C.2     1  UNL1        0.0310
      4  C         21.1140  -21.8950   -9.9490 C.2     1  UNL1        0.0340
      5  C         22.3870  -21.9360   -9.3750 C.2     1  UNL1        0.0310
      6  C         23.5250  -22.0710  -10.1780 C.2     1  UNL1        0.0270
      7  N         19.9210  -21.7640   -9.2130 N.am    1  UNL1       -0.3260
      8  C         19.4940  -22.5280   -8.1350 C.2     1  UNL1        0.2350
      9  O         20.1110  -23.4580   -7.6190 O.2     1  UNL1       -0.2720
     10  H         19.2990  -21.0180   -9.5050 H       1  UNL1        0.1690
     11  C         18.1180  -22.1100   -7.5810 C.2     1  UNL1        0.1490
     12  C         18.1390  -22.0070   -6.0730 C.2     1  UNL1       -0.0070
     13  C         18.9310  -21.0410   -5.4320 C.2     1  UNL1        0.0110
     14  C         17.3880  -22.8940   -5.2990 C.2     1  UNL1        0.0830
     15  C         18.9720  -20.9730   -4.0390 C.2     1  UNL1        0.0010
     16  C         18.2250  -21.8680   -3.2760 C.2     1  UNL1        0.0030
     17  C         17.4340  -22.8290   -3.9050 C.2     1  UNL1        0.0380
     18  O         16.5850  -23.8720   -5.8330 O.2     1  UNL1       -0.3100
     19  C         16.3410  -23.8540   -7.1850 C.2     1  UNL1        0.0830
     20  C         15.3570  -24.7320   -7.6440 C.2     1  UNL1        0.0380
     21  C         17.0250  -23.0280   -8.0800 C.2     1  UNL1       -0.0070
     22  C         15.0430  -24.7820   -9.0020 C.2     1  UNL1        0.0030
     23  C         15.7130  -23.9560   -9.9010 C.2     1  UNL1        0.0010
     24  C         16.7010  -23.0830   -9.4450 C.3     1  UNL1        0.0110
     25  S         24.8220  -22.3530  -12.5940 S.O2    1  UNL1        0.2480
     26  O         25.9730  -21.7650  -11.9410 O.2     1  UNL1       -0.2050
     27  O         24.8480  -23.7490  -12.9850 O.2     1  UNL1       -0.2050
     28  N         24.4470  -21.5040  -13.9710 N.pl3   1  UNL1       -0.1480
     29  H         23.4620  -21.2840  -14.0550 H       1  UNL1        0.1490
     30  C         25.0070  -21.9460  -15.1620 C.cat   1  UNL1        0.2150
     31  N         26.2540  -21.5870  -15.4670 N.2     1  UNL1       -0.2300
     32  C         26.6680  -21.9260  -16.6980 C.2     1  UNL1        0.1220
     33  C         25.8660  -22.5600  -17.6210 C.2     1  UNL1        0.0460
     34  C         24.5730  -22.8330  -17.2150 C.2     1  UNL1        0.0350
     35  C         23.6140  -23.5030  -18.1530 C.3     1  UNL1        0.0700
     36  N         24.1180  -22.5090  -15.9870 N.2     1  UNL1       -0.2230
@<TRIPOS>BOND
     1    35    34    1
     2    33    34    1
     3    33    32    2
     4    34    36    2
     5    32    31    1
     6    36    30    1
     7    31    30    2
     8    30    28    1
     9    29    28    1
    10    28    25    1
    11    27    25    2
    12    25    26    2
    13    25     1    1
    14     2     1    2
    15     2     3    1
    16     1     6    1
    17     3     4    2
    18     6     5    2
    19     4     5    1
    20     4     7    1
    21    23    24    1
    22    23    22    2
    23    10     7    1
    24    24    21    1
    25     7     8   am
    26    22    20    1
    27     8     9    2
    28     8    11    1
    29    21    11    2
    30    21    19    1
    31    20    19    2
    32    11    12    1
    33    19    18    1
    34    12    13    2
    35    12    14    1
    36    18    14    1
    37    13    15    1
    38    14    17    2
    39    15    16    2
    40    17    16    1
