@<TRIPOS>MOLECULE
44741_out_ligand_01.pdbqt
 35 38 0 0 0
SMALL
GASTEIGER

@<TRIPOS>ATOM
      1  C         20.5890  -22.7300   -8.0750 C.2     1  UNL1        0.0420
      2  C         20.1140  -24.0090   -8.3660 C.2     1  UNL1        0.0330
      3  C         19.0700  -24.5530   -7.6140 C.2     1  UNL1        0.0390
      4  C         18.5090  -23.8240   -6.5630 C.2     1  UNL1        0.0780
      5  C         18.9690  -22.5320   -6.2870 C.2     1  UNL1        0.0390
      6  C         20.0140  -21.9890   -7.0390 C.2     1  UNL1        0.0330
      7  O         17.4490  -24.4060   -5.9060 O.2     1  UNL1       -0.2910
      8  C         16.3990  -23.5780   -5.5490 C.2     1  UNL1        0.1850
      9  N         16.1830  -23.4100   -4.2150 N.2     1  UNL1       -0.2360
     10  C         15.1550  -22.6140   -3.8530 C.2     1  UNL1        0.1190
     11  C         14.3220  -21.9800   -4.7600 C.2     1  UNL1        0.0200
     12  C         14.5530  -22.1820   -6.1180 C.2     1  UNL1        0.0230
     13  C         15.6030  -23.0100   -6.5400 C.2     1  UNL1        0.0850
     14  C         15.8090  -23.1790   -8.0050 C.2     1  UNL1        0.2560
     15  O         15.5100  -24.2500   -8.5260 O.2     1  UNL1       -0.2680
     16  N         16.3450  -22.1210   -8.7090 N.am    1  UNL1       -0.3520
     17  H         16.5580  -21.2630   -8.2140 H       1  UNL1        0.1630
     18  C         16.5940  -22.1330  -10.1410 C.3     1  UNL1        0.0840
     19  C         16.8450  -20.7440  -10.7430 C.3     1  UNL1        0.0250
     20  C         17.8070  -21.0030  -11.8910 C.3     1  UNL1        0.0020
     21  C         18.7220  -22.0850  -11.3390 C.3     1  UNL1        0.0020
     22  C         17.7810  -23.0110  -10.5730 C.3     1  UNL1        0.0250
     23  N         21.6690  -22.1650   -8.8060 N.pl3   1  UNL1       -0.2810
     24  H         22.1050  -21.3190   -8.4420 H       1  UNL1        0.1790
     25  S         22.7960  -23.1840   -9.5490 S.O2    1  UNL1        0.2630
     26  O         24.0750  -23.0620   -8.8800 O.2     1  UNL1       -0.2000
     27  O         22.1410  -24.4710   -9.6800 O.2     1  UNL1       -0.2000
     28  C         22.9510  -22.4930  -11.1830 C.2     1  UNL1        0.0800
     29  C         24.1310  -22.6720  -11.9050 C.2     1  UNL1        0.0280
     30  C         24.2330  -22.1380  -13.1930 C.2     1  UNL1        0.0380
     31  C         23.1630  -21.4410  -13.7670 C.2     1  UNL1        0.0680
     32  C         21.9810  -21.2780  -13.0390 C.2     1  UNL1        0.0380
     33  C         21.8700  -21.8100  -11.7480 C.2     1  UNL1        0.0280
     34  O         23.3970  -20.9780  -15.0340 O.2     1  UNL1       -0.3560
     35  C         24.7500  -20.9360  -15.4670 C.3     1  UNL1        0.2100
@<TRIPOS>BOND
     1    35    34    1
     2    34    31    1
     3    31    30    2
     4    31    32    1
     5    30    29    1
     6    32    33    2
     7    29    28    2
     8    20    21    1
     9    20    19    1
    10    33    28    1
    11    21    22    1
    12    28    25    1
    13    19    18    1
    14    22    18    1
    15    18    16    1
    16    27    25    2
    17    25    26    2
    18    25    23    1
    19    23    24    1
    20    23     1    1
    21    16    17    1
    22    16    14   am
    23    15    14    2
    24     2     1    2
    25     2     3    1
    26     1     6    1
    27    14    13    1
    28     3     4    2
    29     6     5    2
    30     4     5    1
    31     4     7    1
    32    13    12    2
    33    13     8    1
    34    12    11    1
    35     7     8    1
    36     8     9    2
    37    11    10    2
    38     9    10    1
