@<TRIPOS>MOLECULE
44740_out_ligand_01.pdbqt
 30 33 0 0 0
SMALL
GASTEIGER

@<TRIPOS>ATOM
      1  C         22.6160  -22.9200  -10.6950 C.2     1  UNL1        0.0320
      2  C         22.2100  -23.6750   -9.5920 C.2     1  UNL1        0.0180
      3  C         20.8630  -23.6880   -9.2110 C.2     1  UNL1        0.0160
      4  C         19.8870  -22.9530   -9.9140 C.2     1  UNL1        0.0120
      5  C         20.3230  -22.2090  -11.0290 C.2     1  UNL1        0.0160
      6  C         21.6680  -22.1980  -11.4210 C.2     1  UNL1        0.0180
      7  C         18.4670  -22.9680   -9.5070 C.2     1  UNL1        0.1620
      8  N         17.5890  -22.2540  -10.2420 N.2     1  UNL1       -0.2410
      9  C         16.3040  -22.2770   -9.8420 C.2     1  UNL1        0.1230
     10  C         15.8620  -22.9900   -8.7570 C.2     1  UNL1        0.0770
     11  C         16.8310  -23.7040   -8.0920 C.2     1  UNL1        0.1730
     12  N         18.1320  -23.6980   -8.4320 N.2     1  UNL1       -0.2040
     13  O         16.4080  -24.4260   -6.9810 O.2     1  UNL1       -0.2920
     14  C         16.4060  -23.7670   -5.7740 C.2     1  UNL1        0.0770
     15  C         15.1980  -23.2230   -5.3390 C.2     1  UNL1        0.0370
     16  C         15.1330  -22.5780   -4.1040 C.2     1  UNL1        0.0030
     17  C         16.2720  -22.4950   -3.2990 C.2     1  UNL1        0.0000
     18  C         17.4730  -23.0630   -3.7240 C.2     1  UNL1        0.0030
     19  C         17.5400  -23.7080   -4.9580 C.2     1  UNL1        0.0370
     20  C         24.0320  -22.8840  -11.1430 C.2     1  UNL1        0.2520
     21  O         24.9300  -22.7240  -10.3260 O.2     1  UNL1       -0.2680
     22  N         24.2440  -23.0700  -12.4940 N.am    1  UNL1       -0.3520
     23  H         23.4540  -23.2190  -13.1040 H       1  UNL1        0.1630
     24  C         25.5670  -22.9430  -13.0940 C.3     1  UNL1        0.0840
     25  C         25.9870  -24.2590  -13.7590 C.3     1  UNL1        0.0250
     26  C         25.2450  -24.6410  -15.0380 C.3     1  UNL1        0.0020
     27  C         25.1820  -23.5760  -16.1320 C.3     1  UNL1        0.0000
     28  C         26.4250  -22.6970  -16.2440 C.2     1  UNL1        0.0000
     29  C         26.6770  -21.7220  -15.0840 C.2     1  UNL1        0.0020
     30  C         25.6150  -21.6910  -13.9870 C.3     1  UNL1        0.0250
@<TRIPOS>BOND
     1    28    27    1
     2    28    29    2
     3    27    26    1
     4    29    30    1
     5    26    25    1
     6    30    24    1
     7    25    24    1
     8    23    22    1
     9    24    22    1
    10    22    20   am
    11     6     5    1
    12     6     1    2
    13    20     1    1
    14    20    21    2
    15     5     4    2
    16     1     2    1
    17     8     9    1
    18     8     7    2
    19     4     7    1
    20     4     3    1
    21     9    10    2
    22     2     3    2
    23     7    12    1
    24    10    11    1
    25    12    11    2
    26    11    13    1
    27    13    14    1
    28    14    15    2
    29    14    19    1
    30    15    16    1
    31    19    18    2
    32    16    17    2
    33    18    17    1
