@<TRIPOS>MOLECULE
44751_out_ligand_01.pdbqt
 36 39 0 0 0
SMALL
GASTEIGER

@<TRIPOS>ATOM
      1  C         18.3110  -22.0630  -10.6440 C.2     1  UNL1       -0.0400
      2  C         18.6830  -21.1330  -11.6180 C.2     1  UNL1        0.0100
      3  C         19.9970  -21.0980  -12.0990 C.2     1  UNL1        0.0160
      4  C         20.9650  -21.9880  -11.6160 C.2     1  UNL1        0.0100
      5  C         20.5830  -22.9340  -10.6560 C.2     1  UNL1        0.0160
      6  C         19.2700  -22.9710  -10.1760 C.2     1  UNL1        0.0100
      7  C         22.3330  -21.9090  -12.1310 C.2     1  UNL1        0.1380
      8  N         23.3900  -22.5380  -11.6500 N.2     1  UNL1       -0.2400
      9  C         24.4410  -22.1830  -12.4590 C.2     1  UNL1        0.1490
     10  C         24.0410  -21.3370  -13.4770 C.2     1  UNL1        0.0640
     11  N         22.6950  -21.1800  -13.2370 N.pl3   1  UNL1       -0.3380
     12  H         22.0740  -20.6440  -13.8240 H       1  UNL1        0.1670
     13  C         24.7620  -20.7010  -14.5930 C.2     1  UNL1        0.0280
     14  C         25.5690  -19.5810  -14.3240 C.2     1  UNL1        0.0530
     15  C         26.2890  -18.9300  -15.3310 C.2     1  UNL1        0.0690
     16  C         26.1970  -19.3940  -16.6390 C.2     1  UNL1        0.0390
     17  C         25.3990  -20.5030  -16.9350 C.2     1  UNL1        0.0400
     18  C         24.6870  -21.1700  -15.9260 C.2     1  UNL1        0.0810
     19  O         27.0260  -17.8590  -14.9070 O.2     1  UNL1       -0.3560
     20  C         26.9290  -16.6650  -15.6740 C.3     1  UNL1        0.2100
     21  O         23.8870  -22.2620  -16.1700 O.2     1  UNL1       -0.3550
     22  C         24.5370  -23.4790  -16.5270 C.3     1  UNL1        0.2100
     23  C         16.8970  -22.1200  -10.1280 C.3     1  UNL1        0.1610
     24  N         16.8700  -22.0710   -8.6870 N.am    1  UNL1       -0.3530
     25  C         16.2670  -23.0360   -7.9180 C.2     1  UNL1        0.2540
     26  O         15.7910  -24.0590   -8.4040 O.2     1  UNL1       -0.2680
     27  H         17.1320  -21.2040   -8.2340 H       1  UNL1        0.1630
     28  C         16.1940  -22.8020   -6.4360 C.2     1  UNL1        0.0650
     29  C         14.8990  -22.7060   -5.8900 C.2     1  UNL1        0.0200
     30  C         14.7060  -22.4880   -4.5270 C.2     1  UNL1        0.0010
     31  C         15.8060  -22.3600   -3.6900 C.2     1  UNL1        0.0030
     32  C         17.0990  -22.4550   -4.2110 C.2     1  UNL1        0.0380
     33  C         17.3100  -22.6890   -5.5780 C.2     1  UNL1        0.0840
     34  O         18.5620  -22.7740   -6.1330 O.2     1  UNL1       -0.3500
     35  C         19.3610  -21.5930   -6.2430 C.3     1  UNL1        0.1710
     36  C         20.6080  -21.8420   -7.0770 C.3     1  UNL1        0.0340
@<TRIPOS>BOND
     1    17    16    2
     2    17    18    1
     3    16    15    1
     4    22    21    1
     5    21    18    1
     6    18    13    2
     7    20    19    1
     8    15    19    1
     9    15    14    2
    10    13    14    1
    11    13    10    1
    12    12    11    1
    13    10    11    1
    14    10     9    2
    15    11     7    1
    16     9     8    1
    17     7     8    2
    18     7     4    1
    19     3     2    1
    20     3     4    2
    21     2     1    2
    22     4     5    1
    23     5     6    2
    24     1     6    1
    25     1    23    1
    26    23    24    1
    27    24    27    1
    28    24    25   am
    29    26    25    2
    30    25    28    1
    31    36    35    1
    32    28    29    2
    33    28    33    1
    34    35    34    1
    35    34    33    1
    36    29    30    1
    37    33    32    2
    38    30    31    2
    39    32    31    1
