@<TRIPOS>MOLECULE
44762_out_ligand_01.pdbqt
 33 35 0 0 0
SMALL
GASTEIGER

@<TRIPOS>ATOM
      1  C         26.1970  -20.5270  -16.4700 C.3     1  UNL1        0.0500
      2  C         25.9110  -21.1210  -15.1170 C.2     1  UNL1       -0.0340
      3  C         26.2990  -20.2970  -13.9840 C.2     1  UNL1        0.0330
      4  C         26.0640  -20.6730  -12.7160 C.2     1  UNL1        0.0120
      5  C         26.4870  -19.7900  -11.5670 C.3     1  UNL1        0.0680
      6  N         25.4490  -21.9040  -12.4660 N.am    1  UNL1       -0.3080
      7  C         25.1500  -22.8060  -13.4990 C.2     1  UNL1        0.2690
      8  O         24.7860  -23.9690  -13.2700 O.2     1  UNL1       -0.2660
      9  C         25.3480  -22.3290  -14.9020 C.2     1  UNL1        0.1180
     10  C         24.9340  -23.1950  -15.9560 C.1     1  UNL1        0.1050
     11  N         24.6080  -23.8710  -16.8460 N.1     1  UNL1       -0.1910
     12  C         25.1320  -22.3320  -11.0900 C.3     1  UNL1        0.2350
     13  C         23.7520  -21.8900  -10.5860 C.2     1  UNL1        0.2400
     14  O         23.6680  -21.0870   -9.6560 O.2     1  UNL1       -0.2710
     15  N         22.6920  -22.3810  -11.3330 N.am    1  UNL1       -0.3260
     16  H         22.9400  -22.8510  -12.1930 H       1  UNL1        0.1690
     17  C         21.3150  -22.2420  -11.0760 C.2     1  UNL1        0.0350
     18  C         20.5630  -21.5050  -12.0070 C.2     1  UNL1        0.0290
     19  C         19.1870  -21.3370  -11.8490 C.2     1  UNL1        0.0030
     20  C         18.5450  -21.8950  -10.7440 C.2     1  UNL1        0.0170
     21  C         19.2880  -22.6200   -9.7980 C.2     1  UNL1        0.0340
     22  C         20.6670  -22.8070   -9.9760 C.2     1  UNL1        0.0460
     23  C         18.6470  -23.2010   -8.5850 C.2     1  UNL1        0.2520
     24  O         19.0880  -24.2240   -8.0710 O.2     1  UNL1       -0.2680
     25  N         17.5800  -22.4840   -8.0740 N.am    1  UNL1       -0.3520
     26  H         17.4390  -21.5480   -8.4240 H       1  UNL1        0.1630
     27  C         17.0130  -22.7980   -6.7600 C.3     1  UNL1        0.0840
     28  C         17.7970  -22.0330   -5.6760 C.3     1  UNL1        0.0250
     29  C         17.7810  -22.6580   -4.2780 C.3     1  UNL1        0.0020
     30  C         16.4660  -23.2510   -3.7850 C.3     1  UNL1        0.0000
     31  C         15.2130  -22.4940   -4.2120 C.3     1  UNL1        0.0000
     32  C         14.7100  -22.9250   -5.5920 C.3     1  UNL1        0.0020
     33  C         15.5300  -22.4040   -6.7730 C.3     1  UNL1        0.0250
@<TRIPOS>BOND
     1    11    10    3
     2     1     2    1
     3    10     9    1
     4     2     9    2
     5     2     3    1
     6     9     7    1
     7     3     4    2
     8     7     8    2
     9     7     6   am
    10     4     6    1
    11     4     5    1
    12     6    12    1
    13    16    15    1
    14    18    19    1
    15    18    17    2
    16    19    20    2
    17    15    17    1
    18    15    13   am
    19    12    13    1
    20    17    22    1
    21    20    21    1
    22    13    14    2
    23    22    21    2
    24    21    23    1
    25    23    25   am
    26    23    24    2
    27    26    25    1
    28    25    27    1
    29    33    27    1
    30    33    32    1
    31    27    28    1
    32    28    29    1
    33    32    31    1
    34    29    30    1
    35    31    30    1
