@<TRIPOS>MOLECULE
44769_out_ligand_01.pdbqt
 35 39 0 0 0
SMALL
GASTEIGER

@<TRIPOS>ATOM
      1  C         22.4880  -22.7630  -10.4230 C.2     1  UNL1        0.0980
      2  C         22.4080  -22.1480  -11.6890 C.2     1  UNL1        0.1600
      3  N         21.1920  -21.6930  -11.9830 N.2     1  UNL1       -0.1770
      4  N         20.4400  -21.9930  -10.8970 N.pl3   1  UNL1       -0.2100
      5  C         19.0900  -21.7320  -10.6920 C.2     1  UNL1        0.1460
      6  C         18.5050  -22.1040   -9.5380 C.2     1  UNL1        0.0690
      7  C         19.3910  -22.7800   -8.5440 C.2     1  UNL1        0.0720
      8  N         20.6480  -23.0490   -8.7320 N.2     1  UNL1       -0.2280
      9  C         21.2030  -22.6480   -9.9170 C.2     1  UNL1        0.1690
     10  C         23.6350  -23.3720   -9.7640 C.2     1  UNL1        0.2570
     11  O         23.5490  -24.1010   -8.7810 O.2     1  UNL1       -0.2670
     12  N         24.8510  -23.0750  -10.3410 N.am    1  UNL1       -0.3560
     13  H         24.8710  -22.7110  -11.2900 H       1  UNL1        0.1620
     14  C         26.0670  -23.7590   -9.9400 C.3     1  UNL1        0.1290
     15  C         27.1210  -23.7440  -11.0490 C.3     1  UNL1        0.0800
     16  C         26.5380  -23.4710  -12.3970 C.2     1  UNL1        0.0520
     17  C         26.7470  -22.3990  -13.2380 C.2     1  UNL1        0.1160
     18  N         25.9680  -22.6440  -14.3360 N.pl3   1  UNL1       -0.3590
     19  C         25.3260  -23.8320  -14.1300 C.2     1  UNL1        0.2070
     20  H         25.8790  -22.0570  -15.1530 H       1  UNL1        0.1660
     21  N         25.6470  -24.3580  -12.9700 N.2     1  UNL1       -0.2470
     22  C         18.7320  -23.2000   -7.2850 C.2     1  UNL1        0.0040
     23  C         18.1120  -24.4560   -7.3070 C.2     1  UNL1        0.0140
     24  C         17.4140  -24.9010   -6.1910 C.2     1  UNL1        0.0020
     25  C         17.3390  -24.0950   -5.0560 C.2     1  UNL1        0.0120
     26  C         17.9780  -22.8440   -5.0070 C.2     1  UNL1       -0.0250
     27  C         17.9070  -22.0590   -3.8440 C.2     1  UNL1        0.0120
     28  C         18.7070  -22.3780   -6.1290 C.2     1  UNL1       -0.0130
     29  C         18.5580  -20.8290   -3.7660 C.2     1  UNL1        0.0010
     30  C         19.2970  -20.3690   -4.8470 C.2     1  UNL1        0.0010
     31  C         19.3770  -21.1360   -6.0130 C.2     1  UNL1        0.0130
     32  C         18.3710  -21.0510  -11.7930 C.3     1  UNL1        0.4340
     33  F         17.3710  -20.2560  -11.3140 F       1  UNL1       -0.1650
     34  F         17.7720  -21.9150  -12.6490 F       1  UNL1       -0.1650
     35  F         19.1720  -20.2320  -12.5190 F       1  UNL1       -0.1650
@<TRIPOS>BOND
     1    20    18    1
     2    18    19    1
     3    18    17    1
     4    19    21    2
     5    17    16    2
     6    21    16    1
     7    34    32    1
     8    35    32    1
     9    16    15    1
    10     3     2    2
    11     3     4    1
    12    32    33    1
    13    32     5    1
    14     2     1    1
    15    13    12    1
    16    15    14    1
    17     4     5    1
    18     4     9    1
    19     5     6    2
    20     1     9    2
    21     1    10    1
    22    12    14    1
    23    12    10   am
    24     9     8    1
    25    10    11    2
    26     6     7    1
    27     8     7    2
    28     7    22    1
    29    23    22    2
    30    23    24    1
    31    22    28    1
    32    24    25    2
    33    28    31    1
    34    28    26    2
    35    31    30    2
    36    25    26    1
    37    26    27    1
    38    30    29    1
    39    27    29    2
