@<TRIPOS>MOLECULE
44770_out_ligand_01.pdbqt
 33 36 0 0 0
SMALL
GASTEIGER

@<TRIPOS>ATOM
      1  N         17.3310  -22.7880   -8.2890 N.3     1  UNL1       -0.2060
      2  C         16.4250  -22.6770   -9.4660 C.3     1  UNL1        0.1070
      3  C         16.9470  -21.6320  -10.4440 C.3     1  UNL1        0.0160
      4  C         18.3090  -22.0280  -11.0180 C.3     1  UNL1        0.0140
      5  C         19.1290  -22.8850  -10.0400 C.3     1  UNL1        0.0610
      6  C         18.7810  -22.5580   -8.5840 C.3     1  UNL1        0.1190
      7  C         20.6050  -22.8010  -10.3240 C.ar    1  UNL1        0.1050
      8  N         21.5130  -23.5190   -9.6910 N.ar    1  UNL1       -0.1460
      9  N         22.7930  -23.2630  -10.1350 N.ar    1  UNL1       -0.1360
     10  C         22.8080  -22.3600  -11.0960 C.ar    1  UNL1        0.1890
     11  S         21.2660  -21.7600  -11.5300 S.2     1  UNL1       -0.0450
     12  C         24.0360  -21.9020  -11.7360 C.2     1  UNL1        0.2830
     13  O         25.0670  -21.6650  -11.1120 O.2     1  UNL1       -0.2650
     14  N         23.8860  -21.7760  -13.1120 N.am    1  UNL1       -0.3210
     15  H         22.9590  -22.0170  -13.4490 H       1  UNL1        0.1690
     16  C         24.8320  -21.3690  -14.0770 C.2     1  UNL1        0.0410
     17  C         25.0920  -20.0210  -14.3560 C.2     1  UNL1        0.0300
     18  C         26.0350  -19.6550  -15.3200 C.2     1  UNL1        0.0020
     19  C         26.7330  -20.6310  -16.0200 C.2     1  UNL1        0.0010
     20  C         26.4900  -21.9770  -15.7560 C.2     1  UNL1        0.0090
     21  C         25.5440  -22.3620  -14.7880 C.2     1  UNL1       -0.0350
     22  C         25.3300  -23.8340  -14.5510 C.3     1  UNL1        0.0500
     23  S         16.9730  -24.1290   -7.2880 S.O2    1  UNL1        0.2440
     24  O         15.7420  -24.7300   -7.7510 O.2     1  UNL1       -0.2060
     25  O         18.1930  -24.9070   -7.2030 O.2     1  UNL1       -0.2060
     26  C         16.6600  -23.3720   -5.7010 C.2     1  UNL1        0.0810
     27  C         15.3930  -23.4340   -5.0890 C.2     1  UNL1       -0.0390
     28  C         15.2310  -22.8040   -3.8440 C.2     1  UNL1        0.0090
     29  C         14.2210  -24.1640   -5.6820 C.3     1  UNL1        0.0500
     30  C         16.2920  -22.1350   -3.2270 C.2     1  UNL1        0.0070
     31  C         17.5520  -22.0950   -3.8280 C.2     1  UNL1       -0.0600
     32  C         18.6840  -21.3580   -3.1770 C.3     1  UNL1        0.0480
     33  C         17.7280  -22.7100   -5.0720 C.2     1  UNL1        0.0320
@<TRIPOS>BOND
     1    19    20    2
     2    19    18    1
     3    20    21    1
     4    18    17    2
     5    21    22    1
     6    21    16    2
     7    17    16    1
     8    16    14    1
     9    15    14    1
    10    14    12   am
    11    12    13    2
    12    12    10    1
    13    11    10   ar
    14    11     7   ar
    15    10     9   ar
    16     4     3    1
    17     4     5    1
    18     3     2    1
    19     7     5    1
    20     7     8   ar
    21     9     8   ar
    22     5     6    1
    23     2     1    1
    24     6     1    1
    25     1    23    1
    26    24    23    2
    27    23    25    2
    28    23    26    1
    29    26    27    2
    30    26    33    1
    31    29    27    1
    32    27    28    1
    33    33    31    2
    34    28    30    2
    35    31    30    1
    36    31    32    1
