@<TRIPOS>MOLECULE
44771_out_ligand_01.pdbqt
 33 36 0 0 0
SMALL
GASTEIGER

@<TRIPOS>ATOM
      1  C         22.5910  -21.8950  -12.0560 C.2     1  UNL1        0.0980
      2  C         21.8880  -20.9250  -12.7910 C.2     1  UNL1        0.1600
      3  N         20.5980  -20.8590  -12.4730 N.2     1  UNL1       -0.1770
      4  N         20.4250  -21.8130  -11.5170 N.pl3   1  UNL1       -0.2190
      5  C         19.2250  -22.1800  -10.8740 C.2     1  UNL1        0.0430
      6  C         17.9940  -21.4590  -11.3600 C.3     1  UNL1        0.0710
      7  C         19.2440  -23.1430   -9.9150 C.2     1  UNL1       -0.0050
      8  C         20.6230  -23.7590   -9.6710 C.2     1  UNL1        0.0410
      9  C         20.7630  -24.8540   -8.6320 C.3     1  UNL1        0.0710
     10  N         21.7240  -23.4260  -10.2800 N.2     1  UNL1       -0.2330
     11  C         21.6340  -22.4440  -11.2200 C.2     1  UNL1        0.1680
     12  C         23.9930  -22.2350  -12.1840 C.2     1  UNL1        0.2570
     13  N         24.2440  -23.5430  -12.5340 N.am    1  UNL1       -0.3560
     14  H         23.4400  -24.1420  -12.7080 H       1  UNL1        0.1620
     15  O         24.8790  -21.4040  -12.0220 O.2     1  UNL1       -0.2670
     16  C         25.5770  -24.0220  -12.8300 C.3     1  UNL1        0.1270
     17  C         25.6950  -24.5310  -14.2670 C.3     1  UNL1        0.0580
     18  C         25.5310  -23.4210  -15.2730 C.2     1  UNL1       -0.0570
     19  C         24.6700  -23.5670  -16.3660 C.2     1  UNL1        0.0070
     20  C         24.5320  -22.5370  -17.3000 C.2     1  UNL1        0.0070
     21  C         25.2590  -21.3500  -17.1630 C.2     1  UNL1       -0.0620
     22  C         25.0790  -20.2370  -18.1530 C.3     1  UNL1        0.0480
     23  C         26.1190  -21.2030  -16.0680 C.2     1  UNL1        0.0070
     24  C         26.2590  -22.2310  -15.1350 C.2     1  UNL1        0.0070
     25  C         18.1290  -23.7020   -9.0520 C.3     1  UNL1        0.0820
     26  C         17.8980  -23.1470   -7.6620 C.2     1  UNL1       -0.0470
     27  C         18.7940  -22.1770   -7.1670 C.2     1  UNL1        0.0140
     28  C         18.6530  -21.6420   -5.8810 C.2     1  UNL1       -0.0610
     29  C         19.5960  -20.5850   -5.3880 C.3     1  UNL1        0.0480
     30  C         17.5850  -22.0640   -5.0860 C.2     1  UNL1        0.0070
     31  C         16.6920  -23.0270   -5.5570 C.2     1  UNL1        0.0080
     32  C         16.8350  -23.5820   -6.8380 C.2     1  UNL1       -0.0550
     33  C         15.8430  -24.6210   -7.2900 C.3     1  UNL1        0.0490
@<TRIPOS>BOND
     1    22    21    1
     2    20    21    2
     3    20    19    1
     4    21    23    1
     5    19    18    2
     6    23    24    2
     7    18    24    1
     8    18    17    1
     9    17    16    1
    10    16    13    1
    11     2     3    2
    12     2     1    1
    13    14    13    1
    14    13    12   am
    15     3     4    1
    16    12     1    1
    17    12    15    2
    18     1    11    2
    19     4    11    1
    20     4     5    1
    21     6     5    1
    22    11    10    1
    23     5     7    2
    24    10     8    2
    25     7     8    1
    26     7    25    1
    27     8     9    1
    28    25    26    1
    29    26    27    2
    30    26    32    1
    31    33    32    1
    32    27    28    1
    33    32    31    2
    34    28    29    1
    35    28    30    2
    36    31    30    1
