@<TRIPOS>MOLECULE
44789_out_ligand_01.pdbqt
 32 34 0 0 0
SMALL
GASTEIGER

@<TRIPOS>ATOM
      1  C         20.4800  -22.4860   -7.4420 C.2     1  UNL1        0.0720
      2  C         19.2830  -23.2000   -7.2700 C.2     1  UNL1        0.0450
      3  C         18.3280  -22.7580   -6.3470 C.2     1  UNL1        0.0800
      4  C         18.5630  -21.6230   -5.5660 C.2     1  UNL1        0.0280
      5  C         19.7540  -20.9160   -5.7270 C.2     1  UNL1        0.0450
      6  C         20.6990  -21.3470   -6.6590 C.2     1  UNL1        0.1320
      7  F         21.8280  -20.6320   -6.7800 F       1  UNL1       -0.2050
      8  S         16.8270  -23.6830   -6.1250 S.O2    1  UNL1        0.2580
      9  O         17.0850  -25.0690   -6.4360 O.2     1  UNL1       -0.2010
     10  O         16.2480  -23.2760   -4.8640 O.2     1  UNL1       -0.2010
     11  N         15.8460  -23.0290   -7.3220 N.3     1  UNL1       -0.3150
     12  H         14.9050  -22.8420   -6.9680 H       1  UNL1        0.1720
     13  C         15.9350  -23.6000   -8.6780 C.3     1  UNL1        0.1370
     14  C         15.7500  -22.5020   -9.7310 C.3     1  UNL1        0.0580
     15  C         17.0370  -22.1110  -10.4230 C.2     1  UNL1       -0.0570
     16  C         17.1470  -20.8700  -11.0650 C.2     1  UNL1        0.0090
     17  C         18.3310  -20.5130  -11.7160 C.2     1  UNL1        0.0240
     18  C         19.4090  -21.3950  -11.7260 C.2     1  UNL1        0.0340
     19 CL         20.8670  -20.9550  -12.5270 Cl      1  UNL1       -0.0840
     20  C         19.3140  -22.6320  -11.0910 C.2     1  UNL1        0.0240
     21  C         18.1310  -22.9890  -10.4400 C.2     1  UNL1        0.0090
     22  C         21.4540  -22.9740   -8.4670 C.2     1  UNL1        0.2590
     23  N         22.1550  -22.0080   -9.1650 N.am    1  UNL1       -0.3230
     24  H         21.9500  -21.0390   -8.9460 H       1  UNL1        0.1690
     25  O         21.5570  -24.1880   -8.6160 O.2     1  UNL1       -0.2670
     26  C         23.1280  -22.2020  -10.1690 C.2     1  UNL1        0.0350
     27  C         23.0090  -23.1230  -11.2100 C.2     1  UNL1        0.0300
     28  C         24.0260  -23.2510  -12.1640 C.2     1  UNL1        0.0090
     29  C         25.1720  -22.4540  -12.0990 C.2     1  UNL1       -0.0620
     30  C         26.2730  -22.6190  -13.1040 C.3     1  UNL1        0.0480
     31  C         25.2990  -21.5420  -11.0480 C.2     1  UNL1        0.0090
     32  C         24.2840  -21.4140  -10.0950 C.2     1  UNL1        0.0300
@<TRIPOS>BOND
     1    30    29    1
     2    19    18    1
     3    28    29    2
     4    28    27    1
     5    29    31    1
     6    18    17    2
     7    18    20    1
     8    17    16    1
     9    27    26    2
    10    20    21    2
    11    16    15    2
    12    31    32    2
    13    21    15    1
    14    15    14    1
    15    26    32    1
    16    26    23    1
    17    14    13    1
    18    23    24    1
    19    23    22   am
    20    13    11    1
    21    25    22    2
    22    22     1    1
    23     1     2    2
    24     1     6    1
    25    11    12    1
    26    11     8    1
    27     2     3    1
    28     7     6    1
    29     6     5    2
    30     9     8    2
    31     3     8    1
    32     3     4    2
    33     8    10    2
    34     5     4    1
