@<TRIPOS>MOLECULE
44796_out_ligand_01.pdbqt
 33 36 0 0 0
SMALL
GASTEIGER

@<TRIPOS>ATOM
      1  C         20.9790  -22.7250  -10.1210 C.2     1  UNL1        0.0340
      2  C         20.4110  -21.8070  -11.0140 C.2     1  UNL1        0.0180
      3  C         21.1180  -21.4080  -12.1500 C.2     1  UNL1        0.0200
      4  C         22.3890  -21.9390  -12.3980 C.ar    1  UNL1        0.0590
      5  C         23.1630  -21.5400  -13.5880 C.ar    1  UNL1        0.2620
      6  O         22.6540  -20.7400  -14.3710 O.2     1  UNL1       -0.2670
      7  N         24.4360  -22.1070  -13.7520 N.ar    1  UNL1       -0.2860
      8  C         24.9590  -23.0640  -12.8830 C.ar    1  UNL1        0.1810
      9  S         26.4260  -23.8680  -13.0090 S.2     1  UNL1       -0.0400
     10  N         24.1960  -23.4010  -11.7970 N.ar    1  UNL1       -0.3320
     11  C         22.9420  -22.8640  -11.5240 C.ar    1  UNL1        0.0510
     12  C         22.2460  -23.2680  -10.3830 C.2     1  UNL1        0.0470
     13  H         24.5950  -24.0950  -11.1750 H       1  UNL1        0.1680
     14  C         20.1940  -23.1320   -8.9240 C.2     1  UNL1        0.2560
     15  N         19.1650  -22.2720   -8.5880 N.am    1  UNL1       -0.3230
     16  H         18.9580  -21.5230   -9.2350 H       1  UNL1        0.1690
     17  O         20.4990  -24.1810   -8.3690 O.2     1  UNL1       -0.2670
     18  C         18.2920  -22.3750   -7.4850 C.2     1  UNL1        0.0350
     19  C         17.0230  -22.9430   -7.5450 C.2     1  UNL1        0.0300
     20  C         16.2230  -23.0130   -6.4010 C.2     1  UNL1        0.0090
     21  C         16.6760  -22.5190   -5.1700 C.2     1  UNL1       -0.0560
     22  C         15.7830  -22.6140   -3.9630 C.3     1  UNL1        0.0490
     23  C         17.9600  -21.9480   -5.0950 C.2     1  UNL1       -0.0540
     24  C         18.7530  -21.8840   -6.2550 C.2     1  UNL1        0.0370
     25  C         18.4980  -21.4020   -3.8010 C.3     1  UNL1        0.0490
     26  C         25.1870  -21.6390  -14.9280 C.3     1  UNL1        0.1730
     27  C         25.8640  -20.2990  -14.6990 C.2     1  UNL1       -0.0380
     28  C         26.4750  -20.0070  -13.4690 C.2     1  UNL1        0.0090
     29  C         27.0960  -18.7740  -13.2550 C.2     1  UNL1        0.0020
     30  C         27.1190  -17.8170  -14.2680 C.2     1  UNL1        0.0190
     31  C         26.5260  -18.1010  -15.4940 C.2     1  UNL1        0.0110
     32 BR         26.5610  -16.8080  -16.8740 Br      1  UNL1       -0.0510
     33  C         25.9050  -19.3320  -15.7160 C.2     1  UNL1        0.0270
@<TRIPOS>BOND
     1    32    31    1
     2    33    31    1
     3    33    27    2
     4    31    30    2
     5    26    27    1
     6    26     7    1
     7    27    28    1
     8     6     5    2
     9    30    29    1
    10     7     5   ar
    11     7     8   ar
    12     5     4   ar
    13    28    29    2
    14     9     8    2
    15     8    10   ar
    16     4     3    2
    17     4    11   ar
    18     3     2    1
    19    10    11   ar
    20    10    13    1
    21    11    12    2
    22     2     1    2
    23    12     1    1
    24     1    14    1
    25    16    15    1
    26    14    15   am
    27    14    17    2
    28    15    18    1
    29    19    18    2
    30    19    20    1
    31    18    24    1
    32    20    21    2
    33    24    23    2
    34    21    23    1
    35    21    22    1
    36    23    25    1
