@<TRIPOS>MOLECULE
4479_out_ligand_01.pdbqt
 29 32 0 0 0
SMALL
GASTEIGER

@<TRIPOS>ATOM
      1  O         19.3850  -22.0210  -11.0260 O.2     1  UNL1       -0.2670
      2  C         20.5020  -22.2780  -10.5950 C.2     1  UNL1        0.2560
      3  N         20.8140  -22.7210   -9.3210 N.am    1  UNL1       -0.3230
      4  H         21.7660  -23.0270   -9.1670 H       1  UNL1        0.1690
      5  C         21.6640  -22.1560  -11.5190 C.2     1  UNL1        0.0320
      6  C         21.5930  -21.3990  -12.6960 C.2     1  UNL1        0.0200
      7  C         22.7050  -21.3110  -13.5380 C.2     1  UNL1        0.0380
      8  C         23.8790  -22.0000  -13.2150 C.2     1  UNL1        0.0760
      9  C         23.9550  -22.7510  -12.0420 C.2     1  UNL1        0.0380
     10  C         22.8440  -22.8410  -11.2010 C.2     1  UNL1        0.0200
     11  O         25.0180  -21.9260  -13.9850 O.2     1  UNL1       -0.3110
     12  C         24.8650  -22.0430  -15.3480 C.2     1  UNL1        0.0760
     13  C         25.0780  -20.8950  -16.1100 C.2     1  UNL1        0.0370
     14  C         24.9690  -20.9540  -17.5000 C.2     1  UNL1        0.0030
     15  C         24.6640  -22.1630  -18.1250 C.2     1  UNL1        0.0000
     16  C         24.4750  -23.3170  -17.3630 C.2     1  UNL1        0.0030
     17  C         24.5830  -23.2610  -15.9720 C.2     1  UNL1        0.0370
     18  C         19.9260  -22.8900   -8.2370 C.2     1  UNL1        0.0360
     19  C         19.1720  -24.0920   -8.2170 C.2     1  UNL1        0.0300
     20  C         18.2630  -24.3700   -7.1890 C.2     1  UNL1        0.0200
     21  C         18.1340  -23.4260   -6.1950 C.2     1  UNL1        0.0480
     22  C         18.8680  -22.2530   -6.2030 C.2     1  UNL1        0.0500
     23  C         17.2910  -23.4130   -5.0010 C.2     1  UNL1        0.2590
     24  C         19.7710  -21.9550   -7.2070 C.2     1  UNL1        0.0470
     25  C         18.4900  -21.4950   -5.0080 C.2     1  UNL1        0.2590
     26  O         18.9360  -20.4160   -4.6790 O.2     1  UNL1       -0.2670
     27  N         17.5560  -22.2440   -4.3590 N.am    1  UNL1       -0.2890
     28  H         17.1190  -21.9640   -3.4960 H       1  UNL1        0.1720
     29  O         16.5200  -24.2920   -4.6750 O.2     1  UNL1       -0.2670
@<TRIPOS>BOND
     1    15    14    2
     2    15    16    1
     3    14    13    1
     4    16    17    2
     5    13    12    2
     6    17    12    1
     7    12    11    1
     8    11     8    1
     9     7     8    2
    10     7     6    1
    11     8     9    1
    12     6     5    2
    13     9    10    2
    14     5    10    1
    15     5     2    1
    16     1     2    2
    17     2     3   am
    18     3     4    1
    19     3    18    1
    20    18    19    2
    21    18    24    1
    22    19    20    1
    23    24    22    2
    24    20    21    2
    25    22    21    1
    26    22    25    1
    27    21    23    1
    28    25    26    2
    29    25    27   am
    30    23    29    2
    31    23    27   am
    32    27    28    1
