@<TRIPOS>MOLECULE
447_out_ligand_01.pdbqt
 36 38 0 0 0
SMALL
GASTEIGER

@<TRIPOS>ATOM
      1  C         20.8420  -22.8170   -7.9590 C.2     1  UNL1        0.0330
      2  C         20.5100  -21.7660   -7.0900 C.2     1  UNL1        0.0180
      3  C         19.3520  -21.8280   -6.3110 C.2     1  UNL1        0.0260
      4  C         18.5330  -22.9560   -6.3930 C.2     1  UNL1        0.0740
      5  C         18.8540  -24.0140   -7.2510 C.2     1  UNL1        0.0260
      6  C         20.0130  -23.9460   -8.0300 C.2     1  UNL1        0.0180
      7  C         22.0830  -22.6920   -8.7730 C.2     1  UNL1        0.2700
      8  O         22.9550  -21.8830   -8.4620 O.2     1  UNL1       -0.2660
      9  N         22.1720  -23.5000   -9.8890 N.am    1  UNL1       -0.2630
     10  H         21.3340  -23.8960  -10.3170 H       1  UNL1        0.1900
     11  N         23.2020  -23.2160  -10.8020 N.am    1  UNL1       -0.2630
     12  C         22.9080  -22.3560  -11.8420 C.2     1  UNL1        0.2730
     13  O         21.7560  -21.9980  -12.0790 O.2     1  UNL1       -0.2660
     14  H         24.1550  -23.3610  -10.4630 H       1  UNL1        0.1900
     15  C         24.0380  -21.8610  -12.6720 C.2     1  UNL1        0.0720
     16  C         23.9800  -22.0530  -14.0610 C.2     1  UNL1        0.0200
     17  C         25.0230  -21.6140  -14.8810 C.2     1  UNL1        0.0010
     18  C         26.1330  -20.9800  -14.3220 C.2     1  UNL1        0.0030
     19  C         26.1990  -20.7810  -12.9430 C.2     1  UNL1        0.0430
     20  C         25.1560  -21.2220  -12.1280 C.2     1  UNL1        0.1320
     21  F         25.2630  -21.0150  -10.8050 F       1  UNL1       -0.2050
     22  S         17.0350  -23.0410   -5.4400 S.O2    1  UNL1        0.2450
     23  O         16.6130  -24.4240   -5.3850 O.2     1  UNL1       -0.2060
     24  O         17.2400  -22.2490   -4.2470 O.2     1  UNL1       -0.2060
     25  N         15.9470  -22.2510   -6.4950 N.pl3   1  UNL1       -0.1810
     26  H         16.1370  -21.2500   -6.4000 H       1  UNL1        0.1460
     27  C         16.0860  -22.6530   -7.8640 C.2     1  UNL1        0.0230
     28  C         15.4670  -23.8130   -8.3300 C.2     1  UNL1        0.0240
     29  C         15.5650  -24.1550   -9.6780 C.2     1  UNL1        0.0030
     30  C         16.2720  -23.3320  -10.5580 C.2     1  UNL1        0.0160
     31  C         16.8780  -22.1510  -10.1010 C.2     1  UNL1        0.0490
     32  C         16.7770  -21.8180   -8.7420 C.2     1  UNL1        0.0400
     33  C         17.6600  -21.2700  -11.0420 C.3     1  UNL1        0.4170
     34  F         17.1310  -20.0220  -11.1770 F       1  UNL1       -0.1660
     35  F         18.9450  -21.0890  -10.6260 F       1  UNL1       -0.1660
     36  F         17.7460  -21.7760  -12.3040 F       1  UNL1       -0.1660
@<TRIPOS>BOND
     1    17    18    2
     2    17    16    1
     3    18    19    1
     4    16    15    2
     5    19    20    2
     6    15    20    1
     7    15    12    1
     8    36    33    1
     9    20    21    1
    10    13    12    2
    11    12    11   am
    12    34    33    1
    13    33    35    1
    14    33    31    1
    15    11    14    1
    16    11     9    1
    17    30    31    2
    18    30    29    1
    19    10     9    1
    20    31    32    1
    21     9     7   am
    22    29    28    2
    23     7     8    2
    24     7     1    1
    25    32    27    2
    26    28    27    1
    27     6     1    2
    28     6     5    1
    29     1     2    1
    30    27    25    1
    31     5     4    2
    32     2     3    2
    33    25    26    1
    34    25    22    1
    35     4     3    1
    36     4    22    1
    37    22    23    2
    38    22    24    2
