@<TRIPOS>MOLECULE
44813_out_ligand_01.pdbqt
 31 34 0 0 0
SMALL
GASTEIGER

@<TRIPOS>ATOM
      1  C         22.3880  -22.7790  -10.5970 C.2     1  UNL1        0.2580
      2  O         22.5280  -23.6860   -9.7830 O.2     1  UNL1       -0.2670
      3  N         21.1950  -22.1740  -10.9530 N.am    1  UNL1       -0.3130
      4  C         21.0490  -20.9230  -11.7290 C.2     1  UNL1        0.1370
      5  C         19.5520  -20.6030  -11.8220 C.2     1  UNL1        0.0610
      6  C         18.9500  -21.6730  -10.9690 C.2     1  UNL1       -0.0290
      7  C         17.6060  -21.8420  -10.6630 C.2     1  UNL1        0.0180
      8  C         17.2300  -22.9100   -9.8360 C.2     1  UNL1       -0.0400
      9  C         18.2180  -23.7940   -9.3550 C.2     1  UNL1        0.0110
     10  C         19.5680  -23.6190   -9.6810 C.2     1  UNL1        0.0310
     11  C         19.9210  -22.5520  -10.4890 C.2     1  UNL1        0.0430
     12  C         15.7780  -23.1350   -9.5030 C.3     1  UNL1        0.1610
     13  N         15.5180  -22.7880   -8.1270 N.am    1  UNL1       -0.3560
     14  C         15.4940  -23.7320   -7.1220 C.2     1  UNL1        0.2270
     15  O         15.6460  -24.9340   -7.3250 O.2     1  UNL1       -0.2730
     16  H         15.3740  -21.8130   -7.9060 H       1  UNL1        0.1620
     17  C         15.2530  -23.1640   -5.7340 C.3     1  UNL1        0.1820
     18  S         16.5590  -23.6810   -4.5760 S.3     1  UNL1       -0.1210
     19  C         17.8240  -22.4930   -4.9970 C.2     1  UNL1        0.0010
     20  C         18.0800  -21.3900   -4.1760 C.2     1  UNL1        0.0180
     21  C         19.0880  -20.4850   -4.5130 C.2     1  UNL1        0.0010
     22  C         19.8390  -20.6750   -5.6730 C.2     1  UNL1        0.0000
     23  C         19.5780  -21.7680   -6.5000 C.2     1  UNL1        0.0010
     24  C         18.5710  -22.6720   -6.1650 C.2     1  UNL1        0.0180
     25  C         23.6200  -22.2720  -11.2390 C.2     1  UNL1        0.0320
     26  C         23.8430  -22.5400  -12.5900 C.2     1  UNL1        0.0170
     27  C         24.9870  -22.0460  -13.2160 C.2     1  UNL1        0.0070
     28  C         25.9060  -21.2760  -12.4990 C.2     1  UNL1       -0.0620
     29  C         27.1210  -20.7130  -13.1720 C.3     1  UNL1        0.0480
     30  C         25.6570  -20.9870  -11.1500 C.2     1  UNL1        0.0070
     31  C         24.5140  -21.4780  -10.5200 C.2     1  UNL1        0.0170
@<TRIPOS>BOND
     1    27    26    1
     2    27    28    2
     3    29    28    1
     4    26    25    2
     5    28    30    1
     6     5     4    2
     7     5     6    1
     8     4     3    1
     9    25     1    1
    10    25    31    1
    11    30    31    2
    12     6     7    2
    13     6    11    1
    14     3     1   am
    15     3    11    1
    16     7     8    1
    17     1     2    2
    18    11    10    2
    19     8    12    1
    20     8     9    2
    21    10     9    1
    22    12    13    1
    23    13    16    1
    24    13    14   am
    25    15    14    2
    26    14    17    1
    27    23    24    1
    28    23    22    2
    29    24    19    2
    30    17    18    1
    31    22    21    1
    32    19    18    1
    33    19    20    1
    34    21    20    2
