@<TRIPOS>MOLECULE
44820_out_ligand_01.pdbqt
 38 42 0 0 0
SMALL
GASTEIGER

@<TRIPOS>ATOM
      1  C         15.9430  -22.7140   -7.4940 C.2     1  UNL1        0.0570
      2  C         17.0570  -22.6870   -8.2470 C.2     1  UNL1        0.1440
      3  O         18.3070  -22.9300   -7.6870 O.2     1  UNL1       -0.3030
      4  C         19.4040  -22.8720   -8.5040 C.2     1  UNL1        0.1030
      5  C         20.6480  -23.1120   -7.9210 C.2     1  UNL1        0.0400
      6  C         21.8030  -23.0700   -8.7060 C.2     1  UNL1        0.0200
      7  C         21.7100  -22.7780  -10.0740 C.2     1  UNL1        0.0340
      8  C         20.4560  -22.5540  -10.6580 C.2     1  UNL1        0.0490
      9  C         19.3100  -22.5970   -9.8660 C.2     1  UNL1        0.0700
     10  N         18.0580  -22.3670  -10.4340 N.am    1  UNL1       -0.3190
     11  C         16.8990  -22.3950   -9.7100 C.2     1  UNL1        0.2800
     12  O         15.8140  -22.1970  -10.2490 O.2     1  UNL1       -0.2650
     13  H         17.9640  -22.1740  -11.4230 H       1  UNL1        0.1690
     14  C         22.9080  -22.7310  -10.9550 C.2     1  UNL1        0.2520
     15  O         23.9300  -23.3150  -10.6190 O.2     1  UNL1       -0.2680
     16  N         22.7750  -22.0350  -12.1380 N.am    1  UNL1       -0.3520
     17  H         21.8920  -21.6020  -12.3710 H       1  UNL1        0.1630
     18  C         23.8950  -21.8620  -13.0580 C.3     1  UNL1        0.0880
     19  C         25.0400  -21.0970  -12.3980 C.3     1  UNL1        0.0550
     20  C         26.2360  -20.9700  -13.3490 C.3     1  UNL1        0.2750
     21  N         25.8520  -20.9200  -14.7620 N.3     1  UNL1        0.0920
     22  C         24.5530  -20.3020  -14.9810 C.3     1  UNL1        0.2750
     23  C         23.4460  -21.1570  -14.3480 C.3     1  UNL1        0.0550
     24  C         26.9200  -20.4550  -15.6570 C.3     1  UNL1        0.3110
     25  C         26.8400  -19.0160  -16.1260 C.2     1  UNL1       -0.0300
     26  C         26.4660  -18.7100  -17.4430 C.2     1  UNL1        0.0090
     27  C         26.3890  -17.3850  -17.8720 C.2     1  UNL1        0.0010
     28  C         26.6780  -16.3470  -16.9890 C.2     1  UNL1        0.0000
     29  C         27.0420  -16.6340  -15.6750 C.2     1  UNL1        0.0010
     30  C         27.1210  -17.9600  -15.2450 C.2     1  UNL1        0.0090
     31  C         15.9500  -22.9900   -6.0520 C.2     1  UNL1        0.0000
     32  C         15.0690  -23.9670   -5.5680 C.2     1  UNL1        0.0140
     33  C         15.0370  -24.2790   -4.2090 C.2     1  UNL1        0.0010
     34  C         15.8830  -23.6130   -3.3280 C.2     1  UNL1        0.0030
     35  C         16.7620  -22.6320   -3.7980 C.2     1  UNL1        0.0370
     36  C         16.8040  -22.3120   -5.1600 C.2     1  UNL1        0.0780
     37  O         17.6230  -21.3580   -5.7090 O.2     1  UNL1       -0.3550
     38  C         18.8130  -21.0320   -5.0050 C.3     1  UNL1        0.2100
@<TRIPOS>BOND
     1    27    26    1
     2    27    28    2
     3    26    25    2
     4    28    29    1
     5    25    24    1
     6    25    30    1
     7    29    30    2
     8    24    21    1
     9    22    21    1
    10    22    23    1
    11    21    20    1
    12    23    18    1
    13    20    19    1
    14    18    19    1
    15    18    16    1
    16    17    16    1
    17    16    14   am
    18    13    10    1
    19    14    15    2
    20    14     7    1
    21     8     7    2
    22     8     9    1
    23    10     9    1
    24    10    11   am
    25    12    11    2
    26     7     6    1
    27     9     4    2
    28    11     2    1
    29     6     5    2
    30     4     5    1
    31     4     3    1
    32     2     3    1
    33     2     1    2
    34     1    31    1
    35    31    32    2
    36    31    36    1
    37    37    36    1
    38    37    38    1
    39    32    33    1
    40    36    35    2
    41    33    34    2
    42    35    34    1
