@<TRIPOS>MOLECULE
44826_out_ligand_01.pdbqt
 32 35 0 0 0
SMALL
GASTEIGER

@<TRIPOS>ATOM
      1  C         19.4310  -22.6970  -10.0590 C.2     1  UNL1        0.0720
      2  C         18.8330  -23.4050   -9.0050 C.2     1  UNL1        0.0450
      3  C         17.4630  -23.2530   -8.7490 C.2     1  UNL1        0.0810
      4  C         16.6740  -22.4080   -9.5340 C.2     1  UNL1        0.0280
      5  C         17.2670  -21.7060  -10.5820 C.2     1  UNL1        0.0450
      6  C         18.6320  -21.8530  -10.8360 C.2     1  UNL1        0.1320
      7  F         19.1540  -21.1540  -11.8570 F       1  UNL1       -0.2050
      8  S         16.7330  -24.1730   -7.4040 S.O2    1  UNL1        0.2650
      9  O         17.8440  -24.8320   -6.7540 O.2     1  UNL1       -0.2000
     10  O         15.6310  -24.9340   -7.9600 O.2     1  UNL1       -0.2000
     11  N         16.0860  -22.9140   -6.4210 N.pl3   1  UNL1       -0.2710
     12  C         14.7410  -23.1850   -5.8380 C.3     1  UNL1        0.1420
     13  C         14.8600  -23.8590   -4.4800 C.3     1  UNL1        0.0260
     14  C         15.6170  -22.9650   -3.5110 C.3     1  UNL1        0.0420
     15  C         16.8420  -22.3410   -4.1250 C.2     1  UNL1       -0.0310
     16  C         17.7780  -21.7280   -3.2750 C.2     1  UNL1        0.0090
     17  C         17.0290  -22.2840   -5.5160 C.2     1  UNL1        0.0510
     18  C         18.8860  -21.0640   -3.8000 C.2     1  UNL1        0.0010
     19  C         19.0590  -20.9910   -5.1790 C.2     1  UNL1        0.0020
     20  C         18.1310  -21.5920   -6.0310 C.2     1  UNL1        0.0310
     21  C         20.8990  -22.8750  -10.2890 C.2     1  UNL1        0.2590
     22  O         21.4100  -23.9260   -9.9180 O.2     1  UNL1       -0.2670
     23  N         21.5630  -21.8290  -10.9050 N.am    1  UNL1       -0.3230
     24  H         21.0090  -21.0130  -11.1490 H       1  UNL1        0.1690
     25  C         22.9330  -21.7510  -11.2350 C.2     1  UNL1        0.0360
     26  C         23.9510  -21.5150  -10.3050 C.2     1  UNL1        0.0320
     27  C         25.2870  -21.4510  -10.7150 C.2     1  UNL1        0.0460
     28  C         25.6090  -21.6260  -12.0540 C.2     1  UNL1        0.1380
     29  F         26.8970  -21.5610  -12.4250 F       1  UNL1       -0.2040
     30  C         24.6090  -21.8610  -12.9910 C.2     1  UNL1        0.0740
     31 CL         24.9960  -22.0770  -14.6550 Cl      1  UNL1       -0.0810
     32  C         23.2730  -21.9250  -12.5840 C.2     1  UNL1        0.0560
@<TRIPOS>BOND
     1    31    30    1
     2    30    32    1
     3    30    28    2
     4    32    25    2
     5    29    28    1
     6    28    27    1
     7     7     6    1
     8    25    23    1
     9    25    26    1
    10    24    23    1
    11    23    21   am
    12     6     5    1
    13     6     1    2
    14    27    26    2
    15     5     4    2
    16    21     1    1
    17    21    22    2
    18     1     2    1
    19     4     3    1
    20     2     3    2
    21     3     8    1
    22    10     8    2
    23     8     9    2
    24     8    11    1
    25    11    12    1
    26    11    17    1
    27    20    17    1
    28    20    19    2
    29    12    13    1
    30    17    15    2
    31    19    18    1
    32    13    14    1
    33    15    14    1
    34    15    16    1
    35    18    16    2
