@<TRIPOS>MOLECULE
44839_out_ligand_01.pdbqt
 30 33 0 0 0
SMALL
GASTEIGER

@<TRIPOS>ATOM
      1  C         19.2430  -22.1860   -6.7010 C.2     1  UNL1        0.2580
      2  O         19.7000  -21.1620   -6.2010 O.2     1  UNL1       -0.2670
      3  N         19.8850  -23.0280   -7.5940 N.am    1  UNL1       -0.3130
      4  C         19.3610  -24.3010   -8.1240 C.2     1  UNL1        0.1370
      5  C         20.4830  -24.9590   -8.9370 C.2     1  UNL1        0.0610
      6  C         21.5130  -23.8790   -8.9730 C.2     1  UNL1       -0.0290
      7  C         22.7200  -23.8920   -9.6580 C.2     1  UNL1        0.0180
      8  C         23.5780  -22.7880   -9.5400 C.2     1  UNL1       -0.0400
      9  C         23.2040  -21.7040   -8.7180 C.2     1  UNL1        0.0110
     10  C         21.9870  -21.7090   -8.0280 C.2     1  UNL1        0.0310
     11  C         21.1500  -22.8020   -8.1660 C.2     1  UNL1        0.0430
     12  C         24.9040  -22.7830  -10.2560 C.3     1  UNL1        0.1610
     13  N         24.7510  -22.3050  -11.6140 N.am    1  UNL1       -0.3530
     14  C         25.1670  -23.0530  -12.6910 C.2     1  UNL1        0.2510
     15  O         25.6130  -24.1910  -12.5940 O.2     1  UNL1       -0.2680
     16  H         24.6290  -21.3100  -11.7230 H       1  UNL1        0.1630
     17  C         25.0900  -22.4000  -14.0290 C.2     1  UNL1        0.0320
     18  C         25.1320  -20.9980  -14.0840 C.2     1  UNL1        0.0180
     19  C         25.0650  -20.3340  -15.3110 C.2     1  UNL1        0.0200
     20  C         24.9640  -21.0730  -16.4890 C.2     1  UNL1        0.0110
     21 BR         24.8730  -20.1800  -18.1520 Br      1  UNL1       -0.0510
     22  C         24.9380  -22.4680  -16.4510 C.2     1  UNL1        0.0200
     23  C         25.0040  -23.1330  -15.2210 C.2     1  UNL1        0.0180
     24  C         17.8780  -22.5720   -6.2940 C.2     1  UNL1        0.0320
     25  C         16.7970  -22.1960   -7.0950 C.2     1  UNL1        0.0170
     26  C         15.5030  -22.5590   -6.7140 C.2     1  UNL1        0.0070
     27  C         15.2880  -23.2990   -5.5420 C.2     1  UNL1       -0.0620
     28  C         13.8940  -23.7050   -5.1600 C.3     1  UNL1        0.0480
     29  C         16.3860  -23.6920   -4.7640 C.2     1  UNL1        0.0070
     30  C         17.6810  -23.3310   -5.1390 C.2     1  UNL1        0.0170
@<TRIPOS>BOND
     1    21    20    1
     2    20    22    2
     3    20    19    1
     4    22    23    1
     5    19    18    2
     6    23    17    2
     7    18    17    1
     8    17    14    1
     9    14    15    2
    10    14    13   am
    11    16    13    1
    12    13    12    1
    13    12     8    1
    14     7     8    1
    15     7     6    2
    16     8     9    2
    17     6     5    1
    18     6    11    1
    19     5     4    2
    20     9    10    1
    21    11    10    2
    22    11     3    1
    23     4     3    1
    24     3     1   am
    25    25    26    1
    26    25    24    2
    27    26    27    2
    28     1    24    1
    29     1     2    2
    30    24    30    1
    31    27    28    1
    32    27    29    1
    33    30    29    2
