@<TRIPOS>MOLECULE
44877_out_ligand_01.pdbqt
 31 34 0 0 0
SMALL
GASTEIGER

@<TRIPOS>ATOM
      1  C         22.4100  -23.1520   -8.9220 C.2     1  UNL1       -0.0400
      2  C         21.4430  -24.1560   -9.1340 C.2     1  UNL1        0.0110
      3  C         20.2050  -24.1170   -8.4810 C.2     1  UNL1        0.0310
      4  C         19.9470  -23.0700   -7.6150 C.2     1  UNL1        0.0430
      5  C         20.9000  -22.0760   -7.3940 C.2     1  UNL1       -0.0290
      6  C         22.1320  -22.1040   -8.0320 C.2     1  UNL1        0.0180
      7  C         20.4260  -21.0790   -6.3890 C.2     1  UNL1        0.0610
      8  C         18.9820  -21.5350   -6.1420 C.2     1  UNL1        0.1370
      9  N         18.7900  -22.8110   -6.8560 N.am    1  UNL1       -0.3130
     10  C         17.6840  -23.6420   -6.7710 C.2     1  UNL1        0.2580
     11  O         17.5640  -24.7520   -7.2810 O.2     1  UNL1       -0.2670
     12  C         23.7510  -23.2270   -9.6080 C.3     1  UNL1        0.1620
     13  N         23.5940  -23.3090  -11.0440 N.am    1  UNL1       -0.3390
     14  C         24.4350  -22.6140  -11.8870 C.2     1  UNL1        0.3210
     15  O         25.2860  -21.8330  -11.4810 O.2     1  UNL1       -0.2470
     16  N         24.1590  -22.9090  -13.2030 N.am    1  UNL1       -0.3060
     17  H         23.3150  -23.4380  -13.3790 H       1  UNL1        0.1710
     18  H         23.2510  -24.1910  -11.3930 H       1  UNL1        0.1640
     19  C         24.8260  -22.4430  -14.3550 C.2     1  UNL1        0.0750
     20  C         25.9300  -23.0700  -14.9330 C.2     1  UNL1        0.0330
     21  C         26.5210  -22.5340  -16.0850 C.2     1  UNL1        0.0020
     22  C         26.0140  -21.3710  -16.6670 C.2     1  UNL1        0.0030
     23  C         24.9100  -20.7400  -16.0990 C.2     1  UNL1        0.0440
     24  C         24.3280  -21.2800  -14.9550 C.2     1  UNL1        0.1430
     25  F         23.2620  -20.6630  -14.4180 F       1  UNL1       -0.2040
     26  C         16.5460  -23.1560   -5.9630 C.2     1  UNL1        0.0320
     27  C         15.4780  -22.5260   -6.6090 C.2     1  UNL1        0.0170
     28  C         14.4020  -22.0560   -5.8580 C.2     1  UNL1        0.0010
     29  C         14.4020  -22.2050   -4.4690 C.2     1  UNL1        0.0000
     30  C         15.4810  -22.8160   -3.8260 C.2     1  UNL1        0.0010
     31  C         16.5610  -23.2890   -4.5710 C.2     1  UNL1        0.0170
@<TRIPOS>BOND
     1    22    23    2
     2    22    21    1
     3    23    24    1
     4    21    20    2
     5    24    25    1
     6    24    19    2
     7    20    19    1
     8    19    16    1
     9    17    16    1
    10    16    14   am
    11    14    15    2
    12    14    13   am
    13    18    13    1
    14    13    12    1
    15    12     1    1
    16     2     1    2
    17     2     3    1
    18     1     6    1
    19     3     4    2
    20     6     5    2
    21     4     5    1
    22     4     9    1
    23     5     7    1
    24    11    10    2
    25     9    10   am
    26     9     8    1
    27    10    26    1
    28    27    26    2
    29    27    28    1
    30     7     8    2
    31    26    31    1
    32    28    29    2
    33    31    30    2
    34    29    30    1
