@<TRIPOS>MOLECULE
44894_out_ligand_01.pdbqt
 31 35 0 0 0
SMALL
GASTEIGER

@<TRIPOS>ATOM
      1  N         22.9480  -22.3400  -11.6030 N.am    1  UNL1       -0.3210
      2  C         21.6120  -22.0640  -11.3670 C.2     1  UNL1        0.2790
      3  O         20.7850  -21.7680  -12.2220 O.2     1  UNL1       -0.2650
      4  H         23.4740  -22.5850  -10.7690 H       1  UNL1        0.1690
      5  C         21.2650  -22.1740   -9.9610 C.2     1  UNL1        0.1430
      6  C         22.0280  -22.0280   -8.8200 C.2     1  UNL1        0.0450
      7  C         21.1650  -22.2500   -7.7210 C.2     1  UNL1        0.0360
      8  C         19.9140  -22.5130   -8.2460 C.2     1  UNL1        0.0620
      9  O         19.9750  -22.4760   -9.6100 O.2     1  UNL1       -0.3090
     10  C         18.5820  -22.8490   -7.6280 C.3     1  UNL1        0.0100
     11  C         17.4030  -22.4840   -8.5700 C.3     1  UNL1        0.0210
     12  C         16.0540  -22.8470   -7.9270 C.3     1  UNL1       -0.0130
     13  C         15.8960  -22.0740   -6.6090 C.3     1  UNL1        0.0090
     14  C         16.0230  -24.3570   -7.6390 C.3     1  UNL1        0.0090
     15  C         17.0370  -22.4400   -5.6470 C.3     1  UNL1       -0.0130
     16  C         17.0040  -23.9510   -5.3680 C.3     1  UNL1        0.0090
     17  C         18.3840  -22.0760   -6.2960 C.3     1  UNL1        0.0210
     18  C         17.1650  -24.7340   -6.6810 C.3     1  UNL1       -0.0130
     19  C         18.5130  -24.3680   -7.3280 C.3     1  UNL1        0.0210
     20  C         23.6430  -22.3290  -12.8250 C.2     1  UNL1        0.0350
     21  C         23.4490  -21.3720  -13.8250 C.2     1  UNL1        0.0310
     22  C         24.1820  -21.4290  -15.0140 C.2     1  UNL1        0.0270
     23  C         25.1070  -22.4560  -15.2080 C.2     1  UNL1        0.0740
     24  C         25.3230  -23.4110  -14.2150 C.2     1  UNL1        0.0270
     25  C         24.5900  -23.3430  -13.0280 C.2     1  UNL1        0.0310
     26  S         26.0270  -22.5180  -16.7220 S.O2    1  UNL1        0.2390
     27  O         26.2170  -21.1680  -17.1940 O.2     1  UNL1       -0.2060
     28  O         27.1200  -23.4480  -16.5570 O.2     1  UNL1       -0.2060
     29  N         24.9360  -23.2870  -17.7490 N.3     1  UNL1       -0.2250
     30  H         25.4320  -24.0060  -18.2800 H       1  UNL1        0.1360
     31  H         24.1210  -23.6620  -17.2670 H       1  UNL1        0.1360
@<TRIPOS>BOND
     1    30    29    1
     2    29    31    1
     3    29    26    1
     4    27    26    2
     5    26    28    2
     6    26    23    1
     7    23    22    2
     8    23    24    1
     9    22    21    1
    10    24    25    2
    11    21    20    2
    12    25    20    1
    13    20     1    1
    14     3     2    2
    15     1     2   am
    16     1     4    1
    17     2     5    1
    18     5     9    1
    19     5     6    2
    20     9     8    1
    21     6     7    1
    22    11    12    1
    23    11    10    1
    24     8     7    2
    25     8    10    1
    26    12    14    1
    27    12    13    1
    28    14    18    1
    29    10    19    1
    30    10    17    1
    31    19    18    1
    32    18    16    1
    33    13    15    1
    34    17    15    1
    35    15    16    1
