@<TRIPOS>MOLECULE
44902_out_ligand_01.pdbqt
 31 34 0 0 0
SMALL
GASTEIGER

@<TRIPOS>ATOM
      1  C         17.4120  -21.9140  -10.5710 C.ar    1  UNL1        0.1580
      2  N         17.0990  -20.8360  -11.2970 N.ar    1  UNL1       -0.1110
      3  O         18.2750  -20.5730  -12.0010 O.2     1  UNL1       -0.1890
      4  C         19.1890  -21.5190  -11.6140 C.ar    1  UNL1        0.2230
      5  C         20.5230  -21.5870  -12.1070 C.2     1  UNL1        0.0890
      6  C         21.1820  -20.8000  -13.0280 C.2     1  UNL1        0.0480
      7  C         22.5110  -21.2980  -13.1560 C.2     1  UNL1       -0.0070
      8  C         23.6280  -20.9190  -13.9250 C.2     1  UNL1        0.0200
      9  C         24.8310  -21.6350  -13.8060 C.2     1  UNL1       -0.0610
     10  C         26.0210  -21.2570  -14.6390 C.3     1  UNL1        0.0480
     11  C         24.9020  -22.7340  -12.9410 C.2     1  UNL1        0.0090
     12  C         23.8040  -23.1300  -12.1690 C.2     1  UNL1        0.0310
     13  C         22.6240  -22.3910  -12.2970 C.2     1  UNL1        0.0430
     14  N         21.4070  -22.5430  -11.6760 N.pl3   1  UNL1       -0.3520
     15  N         18.6980  -22.3640  -10.7290 N.ar    1  UNL1       -0.2030
     16  H         21.1860  -23.2570  -10.9930 H       1  UNL1        0.1660
     17  C         16.4550  -22.5520   -9.6350 C.3     1  UNL1        0.1030
     18  C         16.6020  -22.0680   -8.1890 C.3     1  UNL1        0.1330
     19  N         16.5310  -23.1340   -7.1760 N.am    1  UNL1       -0.3520
     20  C         17.6480  -23.7270   -6.5820 C.2     1  UNL1        0.2540
     21  O         17.6020  -24.4280   -5.5760 O.2     1  UNL1       -0.2670
     22  C         15.2480  -23.3480   -6.5240 C.3     1  UNL1        0.1520
     23  C         18.9770  -23.4940   -7.1850 C.2     1  UNL1        0.0380
     24  C         19.4550  -24.4460   -8.0920 C.2     1  UNL1        0.0200
     25  C         20.7090  -24.2820   -8.6850 C.2     1  UNL1        0.0380
     26  C         21.4820  -23.1600   -8.3810 C.2     1  UNL1        0.0680
     27  C         20.9840  -22.1990   -7.4910 C.2     1  UNL1        0.0440
     28  C         19.7210  -22.3390   -6.8950 C.2     1  UNL1       -0.0440
     29  C         19.2050  -21.2740   -5.9720 C.3     1  UNL1        0.0490
     30  O         22.7230  -22.8810   -8.8820 O.2     1  UNL1       -0.3560
     31  C         23.1290  -21.5170   -8.8730 C.3     1  UNL1        0.2100
@<TRIPOS>BOND
     1    10     9    1
     2     8     9    1
     3     8     7    2
     4     9    11    2
     5     7     6    1
     6     7    13    1
     7     6     5    2
     8    11    12    1
     9    13    12    2
    10    13    14    1
    11     5    14    1
    12     5     4    1
    13     3     4   ar
    14     3     2   ar
    15    14    16    1
    16     4    15   ar
    17     2     1   ar
    18    15     1   ar
    19     1    17    1
    20    17    18    1
    21    30    31    1
    22    30    26    1
    23    25    26    2
    24    25    24    1
    25    26    27    1
    26    18    19    1
    27    24    23    2
    28    27    28    2
    29    23    28    1
    30    23    20    1
    31    19    20   am
    32    19    22    1
    33    28    29    1
    34    20    21    2
