@<TRIPOS>MOLECULE
44912_out_ligand_01.pdbqt
 33 36 0 0 0
SMALL
GASTEIGER

@<TRIPOS>ATOM
      1  C         17.7380  -22.3820  -10.0430 C.2     1  UNL1       -0.0400
      2  C         18.7700  -23.1780   -9.5320 C.2     1  UNL1        0.0100
      3  C         20.0710  -23.0600  -10.0310 C.2     1  UNL1        0.0160
      4  C         20.3770  -22.1450  -11.0490 C.2     1  UNL1        0.0100
      5  C         19.3390  -21.3550  -11.5630 C.2     1  UNL1        0.0160
      6  C         18.0330  -21.4730  -11.0670 C.2     1  UNL1        0.0100
      7  C         16.3340  -22.5270   -9.5150 C.3     1  UNL1        0.1610
      8  N         16.3420  -22.6140   -8.0710 N.am    1  UNL1       -0.3560
      9  C         16.0630  -23.7990   -7.4170 C.2     1  UNL1        0.2260
     10  O         15.9420  -24.8690   -8.0100 O.2     1  UNL1       -0.2730
     11  H         16.2770  -21.7450   -7.5610 H       1  UNL1        0.1620
     12  C         15.9850  -23.6630   -5.8890 C.3     1  UNL1        0.1100
     13  C         14.5370  -23.3000   -5.5040 C.3     1  UNL1        0.0140
     14  C         14.2090  -21.8310   -5.7390 C.3     1  UNL1        0.0060
     15  C         17.0340  -22.7070   -5.3420 C.2     1  UNL1       -0.0450
     16  C         17.0690  -22.4190   -3.9680 C.2     1  UNL1        0.0080
     17  C         18.0230  -21.5430   -3.4460 C.2     1  UNL1        0.0010
     18  C         18.9580  -20.9450   -4.2890 C.2     1  UNL1        0.0000
     19  C         18.9410  -21.2250   -5.6530 C.2     1  UNL1        0.0010
     20  C         17.9870  -22.1020   -6.1760 C.2     1  UNL1        0.0080
     21  C         21.7590  -22.0550  -11.5340 C.2     1  UNL1        0.1380
     22  N         22.8470  -22.3030  -10.8270 N.2     1  UNL1       -0.2400
     23  C         23.9100  -22.0740  -11.6610 C.2     1  UNL1        0.1490
     24  C         23.4920  -21.6820  -12.9160 C.2     1  UNL1        0.0610
     25  N         22.1200  -21.6740  -12.8080 N.pl3   1  UNL1       -0.3380
     26  H         21.4820  -21.3820  -13.5310 H       1  UNL1        0.1670
     27  C         24.2260  -21.3080  -14.1180 C.2     1  UNL1       -0.0080
     28  C         24.1550  -22.1120  -15.2660 C.2     1  UNL1        0.0170
     29  C         24.8540  -21.7630  -16.4240 C.2     1  UNL1        0.0430
     30  C         25.6230  -20.6080  -16.4380 C.2     1  UNL1        0.1160
     31  F         26.2920  -20.2700  -17.5490 F       1  UNL1       -0.2060
     32  C         25.7050  -19.7920  -15.3160 C.2     1  UNL1        0.0430
     33  C         25.0080  -20.1420  -14.1560 C.2     1  UNL1        0.0170
@<TRIPOS>BOND
     1    31    30    1
     2    30    29    2
     3    30    32    1
     4    29    28    1
     5    32    33    2
     6    28    27    2
     7    33    27    1
     8    27    24    1
     9    26    25    1
    10    24    25    1
    11    24    23    2
    12    25    21    1
    13    23    22    1
    14     5     6    1
    15     5     4    2
    16    21     4    1
    17    21    22    2
    18     6     1    2
    19     4     3    1
    20     1     2    1
    21     1     7    1
    22     3     2    2
    23     7     8    1
    24     8    11    1
    25     8     9   am
    26    10     9    2
    27     9    12    1
    28    20    19    1
    29    20    15    2
    30    12    13    1
    31    12    15    1
    32    14    13    1
    33    19    18    2
    34    15    16    1
    35    18    17    1
    36    16    17    2
