@<TRIPOS>MOLECULE
44938_out_ligand_01.pdbqt
 34 38 0 0 0
SMALL
GASTEIGER

@<TRIPOS>ATOM
      1  C         21.2310  -21.9690  -11.3590 C.2     1  UNL1        0.0340
      2  C         20.4340  -20.9800  -11.9300 C.2     1  UNL1        0.0300
      3  C         19.0690  -20.9070  -11.6280 C.2     1  UNL1        0.0090
      4  C         18.4870  -21.8120  -10.7290 C.2     1  UNL1       -0.0580
      5  C         19.2840  -22.8180  -10.1780 C.2     1  UNL1        0.0090
      6  C         20.6420  -22.8960  -10.4930 C.2     1  UNL1        0.0300
      7  N         22.6150  -22.0970  -11.5780 N.am    1  UNL1       -0.3270
      8  C         23.6510  -21.7160  -10.7510 C.2     1  UNL1        0.2220
      9  O         23.5550  -21.1540   -9.6640 O.2     1  UNL1       -0.2730
     10  H         22.8900  -22.4760  -12.4900 H       1  UNL1        0.1690
     11  C         25.0190  -22.0820  -11.3060 C.3     1  UNL1        0.1100
     12  C         25.5770  -21.0190  -12.2470 C.3     1  UNL1        0.0870
     13  C         25.3260  -21.2960  -13.6940 C.ar    1  UNL1        0.1050
     14  N         25.3820  -20.4430  -14.7020 N.ar    1  UNL1       -0.2330
     15  C         25.1030  -21.1800  -15.8340 C.ar    1  UNL1        0.0850
     16  C         25.0340  -20.7870  -17.1760 C.2     1  UNL1        0.0340
     17  C         24.8770  -22.5160  -15.5030 C.ar    1  UNL1        0.0620
     18  C         24.7400  -21.7540  -18.1470 C.2     1  UNL1        0.0020
     19  C         24.5200  -23.0880  -17.7850 C.2     1  UNL1        0.0020
     20  C         24.5820  -23.5000  -16.4480 C.2     1  UNL1        0.0320
     21  N         25.0160  -22.5600  -14.1380 N.ar    1  UNL1       -0.3430
     22  H         24.9140  -23.3790  -13.5580 H       1  UNL1        0.1670
     23  C         17.0360  -21.6840  -10.3260 C.3     1  UNL1        0.0460
     24  C         16.4730  -22.9350   -9.6380 C.3     1  UNL1        0.0830
     25  C         16.3770  -22.7910   -8.1560 C.ar    1  UNL1        0.1050
     26  N         15.2790  -22.8190   -7.4250 N.ar    1  UNL1       -0.2330
     27  C         15.6900  -22.6320   -6.1260 C.ar    1  UNL1        0.0850
     28  C         14.9400  -22.5710   -4.9400 C.2     1  UNL1        0.0340
     29  C         17.0720  -22.4910   -6.0600 C.ar    1  UNL1        0.0620
     30  C         15.6140  -22.3690   -3.7280 C.2     1  UNL1        0.0020
     31  C         17.0050  -22.2320   -3.6950 C.2     1  UNL1        0.0020
     32  C         17.7700  -22.2960   -4.8640 C.2     1  UNL1        0.0320
     33  N         17.4860  -22.5930   -7.3630 N.ar    1  UNL1       -0.3430
     34  H         18.4440  -22.5660   -7.6850 H       1  UNL1        0.1670
@<TRIPOS>BOND
     1    18    19    2
     2    18    16    1
     3    19    20    1
     4    16    15    2
     5    20    17    2
     6    15    17   ar
     7    15    14   ar
     8    17    21   ar
     9    14    13   ar
    10    21    13   ar
    11    21    22    1
    12    13    12    1
    13    10     7    1
    14    12    11    1
    15     2     3    1
    16     2     1    2
    17     3     4    2
    18     7     1    1
    19     7     8   am
    20     1     6    1
    21    11     8    1
    22     8     9    2
    23     4    23    1
    24     4     5    1
    25     6     5    2
    26    23    24    1
    27    24    25    1
    28    25    26   ar
    29    25    33   ar
    30    34    33    1
    31    26    27   ar
    32    33    29   ar
    33    27    29   ar
    34    27    28    1
    35    29    32    1
    36    28    30    2
    37    32    31    2
    38    30    31    1
