@<TRIPOS>MOLECULE
44954_out_ligand_01.pdbqt
 34 37 0 0 0
SMALL
GASTEIGER

@<TRIPOS>ATOM
      1  C         20.9370  -22.1880  -10.1660 C.2     1  UNL1        0.0800
      2  C         20.4930  -21.4740  -11.2880 C.2     1  UNL1        0.0280
      3  C         19.1270  -21.2530  -11.4950 C.2     1  UNL1        0.0420
      4  C         18.2630  -21.7740  -10.5340 C.ar    1  UNL1        0.1140
      5  O         16.9090  -21.6880  -10.5450 O.2     1  UNL1       -0.2120
      6  N         16.3920  -22.3400   -9.4410 N.ar    1  UNL1       -0.1210
      7  C         17.4490  -22.7900   -8.7390 C.ar    1  UNL1        0.1650
      8  C         18.6670  -22.4730   -9.4110 C.ar    1  UNL1        0.0380
      9  C         20.0420  -22.6900   -9.2060 C.2     1  UNL1        0.0420
     10  S         22.6780  -22.4560   -9.9260 S.O2    1  UNL1        0.2630
     11  O         22.8150  -23.4220   -8.8580 O.2     1  UNL1       -0.2000
     12  O         23.3450  -21.1740   -9.8650 O.2     1  UNL1       -0.2000
     13  N         23.1260  -23.2540  -11.3490 N.pl3   1  UNL1       -0.2810
     14  H         23.5060  -24.1770  -11.1350 H       1  UNL1        0.1790
     15  C         23.7660  -22.4950  -12.3630 C.2     1  UNL1        0.0420
     16  C         23.0050  -21.6990  -13.2230 C.2     1  UNL1        0.0310
     17  C         23.6300  -20.9880  -14.2480 C.2     1  UNL1        0.0270
     18  C         25.0170  -21.0800  -14.4040 C.2     1  UNL1        0.0740
     19  C         25.7790  -21.8910  -13.5580 C.2     1  UNL1        0.0270
     20  C         25.1470  -22.5990  -12.5340 C.2     1  UNL1        0.0310
     21  S         25.8070  -20.1900  -15.7210 S.O2    1  UNL1        0.2390
     22  O         26.0190  -18.8280  -15.2860 O.2     1  UNL1       -0.2060
     23  O         26.8650  -21.0110  -16.2580 O.2     1  UNL1       -0.2060
     24  N         24.5730  -20.1170  -16.8650 N.3     1  UNL1       -0.2250
     25  H         24.0070  -19.2850  -16.6880 H       1  UNL1        0.1360
     26  H         24.0090  -20.9640  -16.9110 H       1  UNL1        0.1360
     27  C         17.3170  -23.5880   -7.5140 C.2     1  UNL1        0.2750
     28  O         16.7190  -24.6660   -7.5500 O.2     1  UNL1       -0.2660
     29  N         17.8540  -23.1120   -6.3110 N.am    1  UNL1       -0.3470
     30  C         18.9090  -22.1100   -6.1870 C.3     1  UNL1        0.1260
     31  C         17.5210  -23.8420   -5.0910 C.3     1  UNL1        0.1260
     32  C         18.5200  -21.0500   -5.1580 C.3     1  UNL1        0.0200
     33  C         17.8560  -21.6430   -3.9090 C.3     1  UNL1        0.0030
     34  C         18.0300  -23.1570   -3.8230 C.3     1  UNL1        0.0200
@<TRIPOS>BOND
     1    26    24    1
     2    24    25    1
     3    24    21    1
     4    23    21    2
     5    21    22    2
     6    21    18    1
     7    18    17    2
     8    18    19    1
     9    17    16    1
    10    19    20    2
    11    16    15    2
    12    20    15    1
    13    15    13    1
    14     3     2    1
    15     3     4    2
    16    13    14    1
    17    13    10    1
    18     2     1    2
    19     5     4   ar
    20     5     6   ar
    21     4     8   ar
    22     1    10    1
    23     1     9    1
    24    10    12    2
    25    10    11    2
    26     6     7   ar
    27     8     9    2
    28     8     7   ar
    29     7    27    1
    30    28    27    2
    31    27    29   am
    32    29    30    1
    33    29    31    1
    34    30    32    1
    35    32    33    1
    36    31    34    1
    37    33    34    1
