@<TRIPOS>MOLECULE
44952_out_ligand_01.pdbqt
 34 37 0 0 0
SMALL
GASTEIGER

@<TRIPOS>ATOM
      1  N         22.1560  -21.8410   -9.8030 N.3     1  UNL1        0.1040
      2  C         22.2360  -22.7220   -8.6310 C.3     1  UNL1        0.3120
      3  C         20.9430  -22.8220   -7.8350 C.2     1  UNL1       -0.0240
      4  C         20.5190  -21.7230   -7.0630 C.2     1  UNL1        0.0100
      5  C         19.3290  -21.7620   -6.3370 C.2     1  UNL1        0.0070
      6  C         18.5220  -22.9000   -6.3690 C.2     1  UNL1       -0.0610
      7  C         17.2250  -22.9380   -5.6160 C.3     1  UNL1        0.0480
      8  C         18.9120  -23.9870   -7.1640 C.2     1  UNL1        0.0140
      9  C         20.1120  -23.9620   -7.8990 C.2     1  UNL1       -0.0530
     10  C         20.4750  -25.1600   -8.7300 C.3     1  UNL1        0.0490
     11  C         21.3720  -22.4160  -10.9050 C.3     1  UNL1        0.3110
     12  C         19.9560  -21.8980  -11.0820 C.2     1  UNL1       -0.0290
     13  C         19.6800  -20.9020  -12.0280 C.2     1  UNL1        0.0090
     14  C         18.3810  -20.4230  -12.2020 C.2     1  UNL1        0.0010
     15  C         17.3380  -20.9360  -11.4300 C.2     1  UNL1        0.0160
     16  C         17.5830  -21.9320  -10.4780 C.2     1  UNL1        0.0480
     17  C         18.9000  -22.3940  -10.3010 C.2     1  UNL1        0.0250
     18  C         16.4520  -22.4780   -9.6430 C.3     1  UNL1        0.4170
     19  F         16.3400  -21.8570   -8.4340 F       1  UNL1       -0.1660
     20  F         16.5950  -23.8050   -9.3690 F       1  UNL1       -0.1660
     21  F         15.2330  -22.3480  -10.2390 F       1  UNL1       -0.1660
     22  C         23.4800  -21.3270  -10.2030 C.3     1  UNL1        0.3590
     23  C         24.2420  -22.2510  -11.1090 C.2     1  UNL1        0.1740
     24  N         24.0240  -22.5500  -12.3760 N.2     1  UNL1       -0.2190
     25  C         25.0330  -23.4420  -12.7070 C.2     1  UNL1        0.1490
     26  C         25.8220  -23.6360  -11.5930 C.2     1  UNL1        0.1810
     27  O         25.3270  -22.8880  -10.5680 O.2     1  UNL1       -0.3030
     28  C         25.1720  -24.0270  -14.0410 C.2     1  UNL1        0.2720
     29  O         25.4510  -25.2110  -14.2130 O.2     1  UNL1       -0.2660
     30  N         24.9760  -23.1550  -15.1060 N.am    1  UNL1       -0.3510
     31  H         24.7460  -22.1880  -14.9290 H       1  UNL1        0.1630
     32  C         25.0600  -23.5870  -16.4660 C.3     1  UNL1        0.0850
     33  C         23.8520  -23.5170  -17.3600 C.3     1  UNL1        0.0270
     34  C         25.0130  -22.5950  -17.5950 C.3     1  UNL1        0.0270
@<TRIPOS>BOND
     1    34    33    1
     2    34    32    1
     3    33    32    1
     4    32    30    1
     5    30    31    1
     6    30    28   am
     7    29    28    2
     8    28    25    1
     9    25    24    1
    10    25    26    2
    11    24    23    2
    12    14    13    1
    13    14    15    2
    14    13    12    2
    15    26    27    1
    16    15    16    1
    17    23    27    1
    18    23    22    1
    19    12    11    1
    20    12    17    1
    21    11     1    1
    22    16    17    2
    23    16    18    1
    24    21    18    1
    25    22     1    1
    26     1     2    1
    27    18    20    1
    28    18    19    1
    29    10     9    1
    30     2     3    1
    31     9     3    2
    32     9     8    1
    33     3     4    1
    34     8     6    2
    35     4     5    2
    36     6     5    1
    37     6     7    1
