@<TRIPOS>MOLECULE
44975_out_ligand_01.pdbqt
 33 35 0 0 0
SMALL
GASTEIGER

@<TRIPOS>ATOM
      1  N         25.5540  -22.0450  -12.3080 N.am    1  UNL1       -0.3080
      2  C         26.0750  -20.7710  -12.5370 C.2     1  UNL1        0.0120
      3  C         26.5160  -19.9100  -11.3820 C.3     1  UNL1        0.0680
      4  C         26.1950  -20.3220  -13.7970 C.2     1  UNL1        0.0330
      5  C         25.7840  -21.1160  -14.9390 C.2     1  UNL1       -0.0340
      6  C         25.9490  -20.4420  -16.2750 C.3     1  UNL1        0.0500
      7  C         25.3010  -22.3590  -14.7480 C.2     1  UNL1        0.1180
      8  C         24.8910  -23.2030  -15.8140 C.1     1  UNL1        0.1050
      9  N         24.5670  -23.8570  -16.7170 N.1     1  UNL1       -0.1910
     10  C         25.2040  -22.9010  -13.3590 C.2     1  UNL1        0.2690
     11  O         24.8570  -24.0670  -13.1610 O.2     1  UNL1       -0.2660
     12  C         25.4160  -22.5880  -10.9490 C.3     1  UNL1        0.2350
     13  C         24.0440  -22.2610  -10.3500 C.2     1  UNL1        0.2400
     14  N         23.1380  -23.3020  -10.4770 N.am    1  UNL1       -0.3260
     15  H         23.4900  -24.1460  -10.9320 H       1  UNL1        0.1690
     16  O         23.8340  -21.1690   -9.8280 O.2     1  UNL1       -0.2710
     17  C         21.8190  -23.3670   -9.9930 C.2     1  UNL1        0.0340
     18  C         21.4230  -24.1500   -8.9080 C.2     1  UNL1        0.0300
     19  C         20.0840  -24.1710   -8.4960 C.2     1  UNL1        0.0190
     20  C         19.1280  -23.4030   -9.1690 C.2     1  UNL1        0.0320
     21  C         19.5160  -22.6270  -10.2640 C.2     1  UNL1        0.0190
     22  C         20.8550  -22.6040  -10.6670 C.2     1  UNL1        0.0300
     23  C         17.6940  -23.4150   -8.7740 C.2     1  UNL1        0.2510
     24  N         17.3920  -24.0960   -7.6150 N.am    1  UNL1       -0.3510
     25  H         18.1370  -24.2980   -6.9610 H       1  UNL1        0.1630
     26  O         16.8600  -22.8200   -9.4480 O.2     1  UNL1       -0.2680
     27  C         16.0560  -24.0350   -7.0710 C.3     1  UNL1        0.1870
     28  C         16.1210  -23.3650   -5.7520 C.2     1  UNL1        0.0710
     29  C         15.2370  -23.2530   -4.7000 C.2     1  UNL1        0.0370
     30  C         15.8940  -22.4910   -3.7030 C.2     1  UNL1        0.0350
     31  C         17.1360  -22.1800   -4.2090 C.2     1  UNL1        0.0490
     32  C         18.2870  -21.4200   -3.6850 C.3     1  UNL1        0.0760
     33  O         17.2840  -22.7160   -5.4520 O.2     1  UNL1       -0.3180
@<TRIPOS>BOND
     1     9     8    3
     2     6     5    1
     3     8     7    1
     4     5     7    2
     5     5     4    1
     6     7    10    1
     7     4     2    2
     8    10    11    2
     9    10     1   am
    10     2     1    1
    11     2     3    1
    12     1    12    1
    13    12    13    1
    14    15    14    1
    15    22    21    1
    16    22    17    2
    17    14    13   am
    18    14    17    1
    19    13    16    2
    20    21    20    2
    21    17    18    1
    22    26    23    2
    23    20    23    1
    24    20    19    1
    25    18    19    2
    26    23    24   am
    27    24    27    1
    28    24    25    1
    29    27    28    1
    30    28    33    1
    31    28    29    2
    32    33    31    1
    33    29    30    1
    34    31    30    2
    35    31    32    1
