@<TRIPOS>MOLECULE
44972_out_ligand_01.pdbqt
 32 35 0 0 0
SMALL
GASTEIGER

@<TRIPOS>ATOM
      1  C         19.2940  -24.0010   -7.6010 C.2     1  UNL1        0.0780
      2  C         20.1170  -24.8090   -8.3920 C.2     1  UNL1        0.0380
      3  C         21.3030  -24.3040   -8.9330 C.2     1  UNL1        0.0200
      4  C         21.6660  -22.9740   -8.6960 C.2     1  UNL1        0.0320
      5  C         20.8430  -22.1650   -7.9030 C.2     1  UNL1        0.0200
      6  C         19.6570  -22.6730   -7.3650 C.2     1  UNL1        0.0380
      7  O         18.1590  -24.6170   -7.1230 O.2     1  UNL1       -0.2900
      8  C         17.1980  -23.8170   -6.5490 C.2     1  UNL1        0.2060
      9  N         17.4590  -23.4000   -5.2820 N.2     1  UNL1       -0.2330
     10  C         16.5330  -22.5780   -4.7430 C.2     1  UNL1        0.1380
     11  C         15.4030  -22.1800   -5.4350 C.2     1  UNL1        0.1370
     12  N         15.1460  -22.5800   -6.7020 N.2     1  UNL1       -0.2480
     13  C         16.0670  -23.4060   -7.2680 C.2     1  UNL1        0.1510
     14  S         15.7150  -23.9200   -8.9360 S.3     1  UNL1       -0.0660
     15  C         16.8300  -22.8760   -9.8550 C.2     1  UNL1        0.0070
     16  C         16.5750  -21.5140  -10.0240 C.2     1  UNL1        0.0190
     17  C         17.4600  -20.7140  -10.7520 C.2     1  UNL1        0.0080
     18  C         18.6040  -21.2720  -11.3350 C.2     1  UNL1       -0.0620
     19  C         19.5680  -20.4050  -12.0900 C.3     1  UNL1        0.0480
     20  C         18.8590  -22.6370  -11.1620 C.2     1  UNL1        0.0080
     21  C         17.9710  -23.4360  -10.4350 C.2     1  UNL1        0.0190
     22  C         22.9210  -22.3890   -9.2430 C.2     1  UNL1        0.2510
     23  O         23.2420  -21.2420   -8.9560 O.2     1  UNL1       -0.2680
     24  N         23.6490  -23.1920  -10.0960 N.am    1  UNL1       -0.3530
     25  H         23.2080  -24.0140  -10.4810 H       1  UNL1        0.1630
     26  C         24.8110  -22.6820  -10.7890 C.3     1  UNL1        0.1620
     27  C         24.4230  -22.0010  -12.0680 C.2     1  UNL1       -0.0230
     28  C         23.1080  -22.0110  -12.5400 C.2     1  UNL1        0.0120
     29  C         22.7920  -21.3520  -13.7240 C.2     1  UNL1        0.0200
     30  C         23.8080  -20.6950  -14.4000 C.2     1  UNL1        0.1160
     31  N         25.0870  -20.6540  -13.9740 N.2     1  UNL1       -0.2730
     32  C         25.3660  -21.3020  -12.8180 C.2     1  UNL1        0.1240
@<TRIPOS>BOND
     1    30    31    2
     2    30    29    1
     3    31    32    1
     4    29    28    2
     5    32    27    2
     6    28    27    1
     7    19    18    1
     8    27    26    1
     9    18    20    2
    10    18    17    1
    11    20    21    1
    12    26    24    1
    13    17    16    2
    14    25    24    1
    15    21    15    2
    16    24    22   am
    17    16    15    1
    18    15    14    1
    19    22    23    2
    20    22     4    1
    21    14    13    1
    22     3     4    2
    23     3     2    1
    24     4     5    1
    25     2     1    2
    26     5     6    2
    27     1     6    1
    28     1     7    1
    29    13    12    2
    30    13     8    1
    31     7     8    1
    32    12    11    1
    33     8     9    2
    34    11    10    2
    35     9    10    1
