@<TRIPOS>MOLECULE
44981_out_ligand_01.pdbqt
 36 40 0 0 0
SMALL
GASTEIGER

@<TRIPOS>ATOM
      1  C         18.5990  -23.2740   -9.1050 C.2     1  UNL1        0.0800
      2  C         19.5500  -24.0970   -8.4960 C.2     1  UNL1        0.0270
      3  C         20.8780  -24.0460   -8.9280 C.2     1  UNL1        0.0310
      4  C         21.2640  -23.1750   -9.9610 C.2     1  UNL1        0.0340
      5  C         20.2940  -22.3740  -10.5770 C.2     1  UNL1        0.0310
      6  C         18.9600  -22.4320  -10.1620 C.2     1  UNL1        0.0270
      7  N         22.6290  -23.1580  -10.3030 N.am    1  UNL1       -0.3260
      8  C         23.5660  -22.1760  -10.0100 C.2     1  UNL1        0.2400
      9  O         23.3380  -21.0730   -9.5080 O.2     1  UNL1       -0.2710
     10  H         22.9680  -23.9650  -10.8260 H       1  UNL1        0.1690
     11  C         24.9800  -22.5300  -10.4770 C.3     1  UNL1        0.2350
     12  N         25.2110  -22.1380  -11.8510 N.am    1  UNL1       -0.3040
     13  C         24.9070  -22.8990  -12.9710 C.2     1  UNL1        0.2590
     14  O         24.4300  -24.0110  -13.0020 O.2     1  UNL1       -0.2670
     15  C         25.3770  -22.1070  -14.1270 C.2     1  UNL1        0.0450
     16  C         25.3470  -22.3400  -15.4890 C.2     1  UNL1        0.0180
     17  C         25.9580  -20.9730  -13.6200 C.2     1  UNL1        0.0170
     18  C         25.9310  -21.3660  -16.3210 C.2     1  UNL1        0.0020
     19  C         26.5300  -20.1950  -15.7840 C.2     1  UNL1        0.0120
     20  C         26.5550  -19.9800  -14.3880 C.2     1  UNL1       -0.0230
     21  C         27.1110  -18.9020  -13.6640 C.2     1  UNL1        0.0120
     22  C         27.0450  -18.8860  -12.2520 C.2     1  UNL1        0.0030
     23  C         26.4260  -19.9280  -11.5330 C.2     1  UNL1        0.0310
     24  C         25.8810  -20.9710  -12.2530 C.2     1  UNL1        0.0500
     25  S         16.9030  -23.3180   -8.5680 S.O2    1  UNL1        0.2630
     26  O         16.0740  -23.0370   -9.7240 O.2     1  UNL1       -0.2000
     27  O         16.7100  -24.5240   -7.7920 O.2     1  UNL1       -0.2000
     28  N         16.7800  -21.9650   -7.5590 N.pl3   1  UNL1       -0.2800
     29  H         17.2930  -21.1660   -7.9220 H       1  UNL1        0.1790
     30  C         16.7000  -22.1390   -6.1440 C.2     1  UNL1        0.0480
     31  C         15.4870  -22.5280   -5.5630 C.2     1  UNL1        0.0300
     32  C         15.3920  -22.7300   -4.1850 C.2     1  UNL1        0.0020
     33  C         16.5110  -22.5380   -3.3780 C.2     1  UNL1        0.0010
     34  C         17.7220  -22.1430   -3.9490 C.2     1  UNL1        0.0090
     35  C         17.8310  -21.9340   -5.3350 C.2     1  UNL1       -0.0350
     36  C         19.1530  -21.4920   -5.9020 C.3     1  UNL1        0.0500
@<TRIPOS>BOND
     1    18    19    2
     2    18    16    1
     3    19    20    1
     4    16    15    2
     5    20    21    1
     6    20    17    2
     7    15    17    1
     8    15    13    1
     9    21    22    2
    10    17    24    1
    11    14    13    2
    12    13    12   am
    13    24    12    1
    14    24    23    2
    15    22    23    1
    16    12    11    1
    17    10     7    1
    18     5     6    1
    19     5     4    2
    20    11     8    1
    21     7     8   am
    22     7     4    1
    23     6     1    2
    24     8     9    2
    25     4     3    1
    26    26    25    2
    27     1    25    1
    28     1     2    1
    29     3     2    2
    30    25    27    2
    31    25    28    1
    32    29    28    1
    33    28    30    1
    34    30    31    2
    35    30    35    1
    36    36    35    1
    37    31    32    1
    38    35    34    2
    39    32    33    2
    40    34    33    1
