@<TRIPOS>MOLECULE
449_out_ligand_01.pdbqt
 34 36 0 0 0
SMALL
GASTEIGER

@<TRIPOS>ATOM
      1  C         18.7140  -22.3600  -10.0710 C.2     1  UNL1        0.0980
      2  C         20.0350  -22.8450  -10.1490 C.2     1  UNL1        0.0560
      3  C         20.9420  -22.2920  -11.0560 C.2     1  UNL1        0.0360
      4  C         20.5150  -21.2460  -11.8810 C.2     1  UNL1        0.0310
      5  C         19.2040  -20.7670  -11.8040 C.2     1  UNL1        0.0280
      6  C         18.2940  -21.3210  -10.9010 C.2     1  UNL1        0.0570
      7 CL         16.7110  -20.6350  -10.8850 Cl      1  UNL1       -0.0830
      8  N         22.2830  -22.7100  -11.1970 N.am    1  UNL1       -0.3220
      9  C         23.3800  -22.2460  -10.5010 C.2     1  UNL1        0.2730
     10  O         23.3720  -21.4370   -9.5790 O.2     1  UNL1       -0.2660
     11  H         22.4280  -23.4780  -11.8400 H       1  UNL1        0.1690
     12  C         24.6960  -22.8690  -10.8840 C.2     1  UNL1        0.1100
     13  C         25.2660  -22.7120  -12.0840 C.2     1  UNL1        0.1090
     14  C         26.5750  -23.3450  -12.3290 C.2     1  UNL1        0.2510
     15  O         27.1210  -23.2320  -13.4210 O.2     1  UNL1       -0.2680
     16  N         27.1170  -24.0460  -11.2930 N.am    1  UNL1       -0.2750
     17  C         26.5610  -24.1630  -10.0510 C.2     1  UNL1        0.3270
     18  H         28.0200  -24.4710  -11.4320 H       1  UNL1        0.1730
     19  O         27.1200  -24.7630   -9.1410 O.2     1  UNL1       -0.2470
     20  N         25.3460  -23.5670   -9.8950 N.am    1  UNL1       -0.3040
     21  H         24.9190  -23.6080   -8.9720 H       1  UNL1        0.1710
     22  S         17.6080  -23.1210   -8.9110 S.O2    1  UNL1        0.2470
     23  O         18.3510  -24.1200   -8.1730 O.2     1  UNL1       -0.2050
     24  O         16.3980  -23.4650   -9.6240 O.2     1  UNL1       -0.2050
     25  N         17.3370  -21.8410   -7.8100 N.pl3   1  UNL1       -0.1800
     26  H         18.2310  -21.3500   -7.7140 H       1  UNL1        0.1460
     27  C         16.8980  -22.2730   -6.5030 C.2     1  UNL1        0.0400
     28  C         17.6400  -21.9760   -5.3510 C.2     1  UNL1        0.0330
     29  C         17.2140  -22.4330   -4.1040 C.2     1  UNL1        0.0210
     30 BR         19.2250  -20.9340   -5.4380 Br      1  UNL1       -0.0490
     31  C         16.0410  -23.1830   -3.9990 C.2     1  UNL1        0.0080
     32  C         15.2800  -23.4720   -5.1390 C.2     1  UNL1       -0.0600
     33  C         14.0430  -24.3150   -5.0350 C.3     1  UNL1        0.0480
     34  C         15.7230  -23.0210   -6.3900 C.2     1  UNL1        0.0320
@<TRIPOS>BOND
     1    15    14    2
     2    14    13    1
     3    14    16   am
     4    13    12    2
     5     4     5    2
     6     4     3    1
     7    11     8    1
     8     5     6    1
     9    18    16    1
    10    16    17   am
    11     8     3    1
    12     8     9   am
    13     3     2    2
    14     6     7    1
    15     6     1    2
    16    12     9    1
    17    12    20    1
    18     9    10    2
    19     2     1    1
    20     1    22    1
    21    17    20   am
    22    17    19    2
    23    20    21    1
    24    24    22    2
    25    22    23    2
    26    22    25    1
    27    25    26    1
    28    25    27    1
    29    27    34    2
    30    27    28    1
    31    34    32    1
    32    30    28    1
    33    28    29    2
    34    32    33    1
    35    32    31    2
    36    29    31    1
