@<TRIPOS>MOLECULE
44_out_ligand_01.pdbqt
 33 37 0 0 0
SMALL
GASTEIGER

@<TRIPOS>ATOM
      1  N         21.7260  -22.6390   -9.5360 N.3     1  UNL1        0.0910
      2  C         21.0590  -23.8520   -9.0490 C.3     1  UNL1        0.2750
      3  C         19.6480  -24.0600   -9.6210 C.3     1  UNL1        0.0690
      4  C         18.9150  -22.7220   -9.8200 C.3     1  UNL1        0.0730
      5  C         19.7580  -21.8270  -10.7670 C.3     1  UNL1        0.0690
      6  C         21.2380  -22.2280  -10.8450 C.3     1  UNL1        0.2750
      7  C         17.5080  -22.8670  -10.4060 C.3     1  UNL1        0.0750
      8  C         16.5930  -23.6390   -9.4680 C.3     1  UNL1        0.1560
      9  C         16.7670  -23.1900   -8.0430 C.2     1  UNL1        0.0050
     10  C         15.8400  -23.5740   -7.0660 C.2     1  UNL1        0.0130
     11  C         16.0010  -23.1800   -5.7380 C.2     1  UNL1        0.0130
     12  C         17.1050  -22.4080   -5.3470 C.2     1  UNL1       -0.0230
     13  C         17.2720  -22.0160   -4.0080 C.2     1  UNL1        0.0120
     14  C         18.3770  -21.2590   -3.6160 C.2     1  UNL1        0.0010
     15  C         19.3300  -20.8880   -4.5570 C.2     1  UNL1        0.0010
     16  C         19.1740  -21.2700   -5.8890 C.2     1  UNL1        0.0150
     17  C         18.0640  -22.0290   -6.3150 C.2     1  UNL1        0.0080
     18  C         17.8820  -22.4320   -7.6600 C.2     1  UNL1        0.0890
     19  O         18.8360  -22.0240   -8.5610 O.2     1  UNL1       -0.3380
     20  O         15.2490  -23.4520   -9.9100 O.3     1  UNL1       -0.3910
     21  H         15.0460  -24.1830  -10.5210 H       1  UNL1        0.2100
     22  C         23.1940  -22.7210   -9.4780 C.3     1  UNL1        0.3080
     23  C         23.9710  -22.0260  -10.6360 C.3     1  UNL1        0.1790
     24  C         24.9190  -22.8720  -11.4720 C.2     1  UNL1       -0.0250
     25  C         26.1970  -23.1550  -10.9580 C.2     1  UNL1        0.0100
     26  C         27.1190  -23.9040  -11.6880 C.2     1  UNL1        0.0030
     27  C         26.7770  -24.3800  -12.9520 C.2     1  UNL1        0.0370
     28  C         25.5180  -24.1130  -13.4910 C.2     1  UNL1        0.0680
     29  C         24.5970  -23.3640  -12.7500 C.2     1  UNL1        0.0460
     30  O         25.3150  -24.6270  -14.7420 O.2     1  UNL1       -0.3560
     31  C         25.2150  -23.6940  -15.8120 C.3     1  UNL1        0.2100
     32  O         24.7410  -20.9540  -10.0690 O.3     1  UNL1       -0.3890
     33  H         24.7280  -21.0740   -9.1040 H       1  UNL1        0.2100
@<TRIPOS>BOND
     1    31    30    1
     2    30    28    1
     3    28    27    2
     4    28    29    1
     5    27    26    1
     6    29    24    2
     7    26    25    2
     8    24    25    1
     9    24    23    1
    10     6     5    1
    11     6     1    1
    12     5     4    1
    13    23    32    1
    14    23    22    1
    15    21    20    1
    16     7     4    1
    17     7     8    1
    18    32    33    1
    19    20     8    1
    20     4     3    1
    21     4    19    1
    22     3     2    1
    23     1    22    1
    24     1     2    1
    25     8     9    1
    26    19    18    1
    27     9    18    2
    28     9    10    1
    29    18    17    1
    30    10    11    2
    31    17    16    1
    32    17    12    2
    33    16    15    2
    34    11    12    1
    35    12    13    1
    36    15    14    1
    37    13    14    2
