@<TRIPOS>MOLECULE
45036_out_ligand_01.pdbqt
 34 37 0 0 0
SMALL
GASTEIGER

@<TRIPOS>ATOM
      1  N         16.7330  -21.6780  -10.1730 N.3     1  UNL1       -0.1820
      2  N         15.7170  -22.5440  -10.2970 N.pl3   1  UNL1        0.0250
      3  N         15.4110  -22.8810   -9.0550 N.2     1  UNL1       -0.1360
      4  C         16.2870  -22.2180   -8.2220 C.2     1  UNL1        0.2000
      5  N         17.1870  -21.4900   -8.9150 N.pl3   1  UNL1       -0.1360
      6  C         16.2370  -22.3210   -6.7610 C.2     1  UNL1        0.0420
      7  C         14.9700  -22.3020   -6.1390 C.2     1  UNL1        0.0180
      8  C         14.8420  -22.3820   -4.7530 C.2     1  UNL1        0.0010
      9  C         15.9800  -22.4850   -3.9650 C.2     1  UNL1        0.0020
     10  C         17.2450  -22.5110   -4.5610 C.2     1  UNL1        0.0300
     11  C         17.4020  -22.4340   -5.9550 C.2     1  UNL1        0.0490
     12  N         18.6900  -22.4890   -6.5600 N.am    1  UNL1       -0.3220
     13  C         19.2030  -23.4580   -7.4040 C.2     1  UNL1        0.2590
     14  O         18.6330  -24.4850   -7.7600 O.2     1  UNL1       -0.2670
     15  H         19.3180  -21.7240   -6.3150 H       1  UNL1        0.1690
     16  C         20.6000  -23.2400   -7.8870 C.2     1  UNL1        0.0700
     17  C         21.2290  -22.0190   -7.5930 C.2     1  UNL1        0.0200
     18  C         22.5360  -21.7690   -8.0240 C.2     1  UNL1        0.0010
     19  C         23.2300  -22.7390   -8.7470 C.2     1  UNL1        0.0030
     20  C         22.6180  -23.9600   -9.0340 C.2     1  UNL1        0.0430
     21  C         21.3140  -24.2050   -8.6000 C.2     1  UNL1        0.1320
     22  F         20.7710  -25.4000   -8.8770 F       1  UNL1       -0.2050
     23  C         17.4070  -21.1280  -11.3160 C.3     1  UNL1        0.2720
     24  C         18.7700  -21.7540  -11.4710 C.2     1  UNL1        0.2430
     25  N         19.6750  -20.9420  -12.1500 N.am    1  UNL1       -0.3260
     26  H         19.3160  -20.0760  -12.5480 H       1  UNL1        0.1690
     27  O         19.0020  -22.8650  -10.9950 O.2     1  UNL1       -0.2710
     28  C         21.0160  -21.2330  -12.4770 C.2     1  UNL1        0.0340
     29  C         21.5410  -20.6240  -13.6220 C.2     1  UNL1        0.0300
     30  C         22.8570  -20.8730  -14.0280 C.2     1  UNL1        0.0090
     31  C         23.6650  -21.7540  -13.3050 C.2     1  UNL1       -0.0620
     32  C         25.0810  -22.0200  -13.7280 C.3     1  UNL1        0.0480
     33  C         23.1460  -22.3490  -12.1480 C.2     1  UNL1        0.0090
     34  C         21.8330  -22.0910  -11.7390 C.2     1  UNL1        0.0300
@<TRIPOS>BOND
     1    30    29    1
     2    30    31    2
     3    32    31    1
     4    29    28    2
     5    31    33    1
     6    26    25    1
     7    28    25    1
     8    28    34    1
     9    25    24   am
    10    33    34    2
    11    24    23    1
    12    24    27    2
    13    23     1    1
    14     2     1    1
    15     2     3    1
    16     1     5    1
    17     3     4    2
    18    20    19    2
    19    20    21    1
    20     5     4    1
    21    22    21    1
    22    19    18    1
    23    21    16    2
    24     4     6    1
    25    18    17    2
    26    16    17    1
    27    16    13    1
    28    14    13    2
    29    13    12   am
    30     6     7    2
    31     6    11    1
    32    12    15    1
    33    12    11    1
    34     7     8    1
    35    11    10    2
    36     8     9    2
    37    10     9    1
