@<TRIPOS>MOLECULE
45062_out_ligand_01.pdbqt
 35 38 0 0 0
SMALL
GASTEIGER

@<TRIPOS>ATOM
      1  N         20.5020  -22.0650  -11.2540 N.am    1  UNL1       -0.2440
      2  C         19.3640  -21.3530  -11.5820 C.2     1  UNL1        0.2660
      3  O         19.1520  -20.4690  -12.3930 O.2     1  UNL1       -0.2670
      4  C         18.2860  -21.8390  -10.7300 C.2     1  UNL1        0.0480
      5  C         16.9550  -21.4650  -10.6700 C.2     1  UNL1        0.0190
      6  C         16.1400  -22.1230   -9.7420 C.2     1  UNL1        0.0180
      7  C         16.6730  -23.1260   -8.8960 C.2     1  UNL1        0.0330
      8  C         18.0240  -23.4910   -8.9910 C.2     1  UNL1        0.0350
      9  C         18.8030  -22.8220   -9.9180 C.2     1  UNL1        0.0490
     10  C         20.2180  -22.9660  -10.2450 C.2     1  UNL1        0.2660
     11  O         20.9080  -23.7690   -9.6430 O.2     1  UNL1       -0.2670
     12  C         15.8190  -23.8470   -7.9130 C.2     1  UNL1        0.2510
     13  O         15.5180  -25.0170   -8.1110 O.2     1  UNL1       -0.2680
     14  N         15.4370  -23.1350   -6.7940 N.am    1  UNL1       -0.3570
     15  H         15.9640  -22.3040   -6.5580 H       1  UNL1        0.1620
     16  C         14.7130  -23.7960   -5.7230 C.3     1  UNL1        0.1240
     17  C         14.8910  -23.0660   -4.3970 C.3     1  UNL1        0.0340
     18  C         15.8730  -23.7790   -3.4660 C.3     1  UNL1        0.0940
     19  N         17.1800  -23.9090   -4.0990 N.pl3   1  UNL1       -0.2930
     20  H         17.2240  -24.6200   -4.8260 H       1  UNL1        0.1270
     21  C         17.8730  -22.7570   -4.4950 C.2     1  UNL1        0.0080
     22  C         18.5100  -22.7610   -5.7450 C.2     1  UNL1        0.0230
     23  C         19.2720  -21.6730   -6.1800 C.2     1  UNL1        0.0020
     24  C         19.4320  -20.5630   -5.3560 C.2     1  UNL1        0.0000
     25  C         18.8400  -20.5530   -4.0960 C.2     1  UNL1        0.0020
     26  C         18.0800  -21.6470   -3.6670 C.2     1  UNL1        0.0230
     27  C         21.7850  -21.8930  -11.8660 C.2     1  UNL1        0.0460
     28  C         22.9760  -22.1710  -11.1750 C.2     1  UNL1        0.0330
     29  C         24.2390  -22.0030  -11.7690 C.2     1  UNL1        0.0390
     30  C         24.3450  -21.5460  -13.0760 C.2     1  UNL1        0.0680
     31  C         23.1780  -21.2640  -13.7790 C.2     1  UNL1        0.0390
     32  C         21.9190  -21.4340  -13.1850 C.2     1  UNL1        0.0330
     33  O         25.5030  -21.3360  -13.7700 O.2     1  UNL1       -0.3520
     34  C         25.4670  -20.3590  -14.8090 C.3     1  UNL1        0.1710
     35  C         26.1300  -19.0970  -14.2860 C.3     1  UNL1        0.0340
@<TRIPOS>BOND
     1    34    35    1
     2    34    33    1
     3    31    32    1
     4    31    30    2
     5    33    30    1
     6    32    27    2
     7    30    29    1
     8     3     2    2
     9    27     1    1
    10    27    28    1
    11    29    28    2
    12     2     1   am
    13     2     4    1
    14     1    10   am
    15     4     5    2
    16     4     9    1
    17     5     6    1
    18    10     9    1
    19    10    11    2
    20     9     8    2
    21     6     7    2
    22     8     7    1
    23     7    12    1
    24    13    12    2
    25    12    14   am
    26    14    15    1
    27    14    16    1
    28    23    22    1
    29    23    24    2
    30    22    21    2
    31    16    17    1
    32    24    25    1
    33    20    19    1
    34    21    19    1
    35    21    26    1
    36    17    18    1
    37    19    18    1
    38    25    26    2
