@<TRIPOS>MOLECULE
45060_out_ligand_01.pdbqt
 32 36 0 0 0
SMALL
GASTEIGER

@<TRIPOS>ATOM
      1  C         22.5180  -22.6960   -9.7050 C.2     1  UNL1        0.0350
      2  C         22.7460  -24.0450   -9.4390 C.2     1  UNL1        0.0290
      3  C         21.7810  -24.8100   -8.7800 C.2     1  UNL1        0.0030
      4  C         20.5790  -24.2320   -8.3810 C.2     1  UNL1        0.0110
      5  C         20.3240  -22.8740   -8.6330 C.2     1  UNL1       -0.0190
      6  C         21.3070  -22.1180   -9.2960 C.2     1  UNL1        0.0400
      7  C         19.0100  -22.2350   -8.1950 C.3     1  UNL1        0.1990
      8  N         18.6960  -22.7830   -6.8800 N.pl3   1  UNL1       -0.2660
      9  C         17.4270  -22.4830   -6.3870 C.2     1  UNL1        0.0260
     10  H         19.4430  -22.6140   -6.2080 H       1  UNL1        0.1300
     11  C         17.1800  -22.5150   -5.0090 C.2     1  UNL1        0.0240
     12  C         16.3480  -22.3010   -7.2510 C.2     1  UNL1        0.0530
     13  C         15.8920  -22.3030   -4.5090 C.2     1  UNL1        0.0020
     14  C         14.8300  -22.0850   -5.3820 C.2     1  UNL1        0.0010
     15  C         15.0540  -22.0910   -6.7570 C.2     1  UNL1        0.0190
     16  C         16.5870  -22.3820   -8.7080 C.2     1  UNL1        0.2570
     17  O         15.6160  -22.4060   -9.4650 O.2     1  UNL1       -0.2670
     18  N         17.9120  -22.4370   -9.1360 N.am    1  UNL1       -0.3220
     19  C         18.1980  -22.4000  -10.5590 C.3     1  UNL1        0.0890
     20  C         17.4140  -21.5520  -11.5320 C.3     1  UNL1        0.0270
     21  C         18.8300  -21.1980  -11.2210 C.3     1  UNL1        0.0270
     22  N         23.4320  -21.8610  -10.3790 N.am    1  UNL1       -0.3230
     23  C         24.2790  -22.1980  -11.4170 C.2     1  UNL1        0.2570
     24  O         24.3850  -23.3040  -11.9370 O.2     1  UNL1       -0.2670
     25  H         23.5040  -20.9150  -10.0270 H       1  UNL1        0.1690
     26  C         25.1090  -21.0900  -11.9790 C.2     1  UNL1        0.0540
     27  C         26.0140  -20.4820  -11.0890 C.2     1  UNL1        0.0190
     28  C         26.8390  -19.4370  -11.5060 C.2     1  UNL1        0.0010
     29  C         26.7590  -18.9720  -12.8160 C.2     1  UNL1        0.0020
     30  C         25.8620  -19.5590  -13.7070 C.2     1  UNL1        0.0250
     31  C         25.0350  -20.6140  -13.2970 C.2     1  UNL1        0.0490
     32 CL         23.9300  -21.2300  -14.4780 Cl      1  UNL1       -0.0830
@<TRIPOS>BOND
     1    32    31    1
     2    30    31    1
     3    30    29    2
     4    31    26    2
     5    29    28    1
     6    26    23    1
     7    26    27    1
     8    24    23    2
     9    20    21    1
    10    20    19    1
    11    28    27    2
    12    23    22   am
    13    21    19    1
    14    19    18    1
    15    22    25    1
    16    22     1    1
    17     1     2    2
    18     1     6    1
    19    17    16    2
    20     2     3    1
    21     6     5    2
    22    18    16   am
    23    18     7    1
    24     3     4    2
    25    16    12    1
    26     5     4    1
    27     5     7    1
    28     7     8    1
    29    12    15    1
    30    12     9    2
    31     8     9    1
    32     8    10    1
    33    15    14    2
    34     9    11    1
    35    14    13    1
    36    11    13    2
