@<TRIPOS>MOLECULE
4506_out_ligand_01.pdbqt
 28 31 0 0 0
SMALL
GASTEIGER

@<TRIPOS>ATOM
      1  C         15.6680  -23.2240   -4.6350 C.3     1  UNL1        0.0480
      2  C         16.2390  -23.1840   -6.0220 C.2     1  UNL1       -0.0600
      3  C         15.5560  -22.5320   -7.0510 C.2     1  UNL1        0.0090
      4  C         16.0690  -22.5400   -8.3480 C.2     1  UNL1        0.0400
      5  C         17.2800  -23.1830   -8.6250 C.2     1  UNL1        0.1020
      6  C         17.9750  -23.8380   -7.6110 C.2     1  UNL1        0.0690
      7  C         17.4350  -23.8550   -6.3170 C.2     1  UNL1        0.0390
      8  N         19.1720  -24.5390   -7.8110 N.am    1  UNL1       -0.3200
      9  C         20.1130  -24.4050   -8.7970 C.2     1  UNL1        0.2590
     10  O         21.1040  -25.1380   -8.7780 O.2     1  UNL1       -0.2670
     11  C         20.0450  -23.3180   -9.7950 C.2     1  UNL1        0.0680
     12  C         21.2680  -22.8220  -10.2880 C.2     1  UNL1        0.0490
     13  C         21.3100  -21.8000  -11.2450 C.2     1  UNL1        0.0360
     14  C         20.1080  -21.2810  -11.7190 C.2     1  UNL1        0.0320
     15  C         18.8890  -21.7790  -11.2460 C.2     1  UNL1        0.0400
     16  C         18.8570  -22.7860  -10.2770 C.2     1  UNL1        0.0920
     17  O         17.6200  -23.2620   -9.9490 O.2     1  UNL1       -0.3070
     18  H         19.4750  -25.1700   -7.0790 H       1  UNL1        0.1690
     19  N         22.5870  -21.3750  -11.6720 N.am    1  UNL1       -0.3210
     20  C         23.6580  -22.1630  -12.0740 C.2     1  UNL1        0.2800
     21  O         23.6240  -23.3890  -12.1360 O.2     1  UNL1       -0.2650
     22  H         22.7240  -20.3750  -11.6920 H       1  UNL1        0.1690
     23  C         24.8520  -21.4050  -12.4320 C.2     1  UNL1        0.1440
     24  C         26.1170  -21.2850  -11.8780 C.2     1  UNL1        0.0460
     25  C         26.8450  -20.3850  -12.6980 C.2     1  UNL1        0.0480
     26  C         25.9900  -20.0080  -13.7050 C.2     1  UNL1        0.1220
     27 BR         26.4140  -18.8060  -15.1160 Br      1  UNL1       -0.0230
     28  O         24.7880  -20.6180  -13.5550 O.2     1  UNL1       -0.2980
@<TRIPOS>BOND
     1    27    26    1
     2    26    28    1
     3    26    25    2
     4    28    23    1
     5    25    24    1
     6    23    20    1
     7    23    24    2
     8    21    20    2
     9    20    19   am
    10    14    15    1
    11    14    13    2
    12    22    19    1
    13    19    13    1
    14    15    16    2
    15    13    12    1
    16    12    11    2
    17    16    17    1
    18    16    11    1
    19    17     5    1
    20    11     9    1
    21     9    10    2
    22     9     8   am
    23     5     4    2
    24     5     6    1
    25     4     3    1
    26     8     6    1
    27     8    18    1
    28     6     7    2
    29     3     2    2
    30     7     2    1
    31     2     1    1
