@<TRIPOS>MOLECULE
4507_out_ligand_01.pdbqt
 37 40 0 0 0
SMALL
GASTEIGER

@<TRIPOS>ATOM
      1  N         17.6700  -23.0450   -9.0910 N.ar    1  UNL1       -0.2750
      2  C         16.6500  -23.6930   -8.3940 C.ar    1  UNL1        0.1410
      3  N         15.4820  -23.3440   -8.8940 N.ar    1  UNL1       -0.1330
      4  N         15.6990  -22.4100   -9.8720 N.ar    1  UNL1       -0.1220
      5  C         16.9950  -22.2060   -9.9610 C.ar    1  UNL1        0.1960
      6  S         17.7250  -21.1400  -11.1120 S.3     1  UNL1       -0.0800
      7  C         19.0990  -22.1810  -11.6940 C.3     1  UNL1        0.1850
      8  C         20.3680  -21.3670  -11.8730 C.2     1  UNL1        0.2310
      9  O         20.3610  -20.1610  -11.6340 O.2     1  UNL1       -0.2720
     10  N         21.4410  -22.1080  -12.3450 N.am    1  UNL1       -0.3260
     11  H         21.3010  -23.1200  -12.3700 H       1  UNL1        0.1690
     12  C         22.6960  -21.6360  -12.8060 C.2     1  UNL1        0.0410
     13  C         22.8260  -20.9740  -14.0370 C.2     1  UNL1        0.0300
     14  C         24.0740  -20.5780  -14.5120 C.2     1  UNL1        0.0030
     15  C         25.2190  -20.8440  -13.7690 C.2     1  UNL1        0.0070
     16  C         25.1310  -21.4990  -12.5300 C.2     1  UNL1       -0.0540
     17  C         26.4120  -21.7510  -11.7800 C.3     1  UNL1        0.0490
     18  C         23.8580  -21.8770  -12.0220 C.2     1  UNL1       -0.0290
     19  C         23.7400  -22.5200  -10.6560 C.3     1  UNL1        0.0510
     20  C         19.0620  -23.1820   -8.8620 C.2     1  UNL1        0.0430
     21  C         19.7140  -24.3570   -9.2730 C.2     1  UNL1        0.0300
     22  C         21.0800  -24.5170   -9.0290 C.2     1  UNL1        0.0030
     23  C         21.7930  -23.5150   -8.3660 C.2     1  UNL1        0.0070
     24  C         21.1490  -22.3420   -7.9400 C.2     1  UNL1       -0.0600
     25  C         21.9290  -21.2540   -7.2580 C.3     1  UNL1        0.0480
     26  C         19.7800  -22.1720   -8.2070 C.2     1  UNL1        0.0370
     27  C         16.8210  -24.4640   -7.1160 C.3     1  UNL1        0.1380
     28  C         16.7180  -23.6160   -5.8620 C.2     1  UNL1        0.0260
     29  C         17.7710  -23.3380   -5.0790 C.2     1  UNL1        0.1000
     30  C         17.5860  -22.4640   -3.9000 C.2     1  UNL1        0.2510
     31  O         18.5370  -22.1480   -3.1920 O.2     1  UNL1       -0.2680
     32  N         16.3100  -22.0350   -3.6650 N.am    1  UNL1       -0.2750
     33  C         15.2370  -22.2810   -4.4720 C.2     1  UNL1        0.3270
     34  H         16.1630  -21.4200   -2.8760 H       1  UNL1        0.1730
     35  O         14.1250  -21.8040   -4.2560 O.2     1  UNL1       -0.2470
     36  N         15.4820  -23.0900   -5.5500 N.am    1  UNL1       -0.3120
     37  H         14.6740  -23.2840   -6.1420 H       1  UNL1        0.1700
@<TRIPOS>BOND
     1    14    13    1
     2    14    15    2
     3    13    12    2
     4    15    16    1
     5    12    10    1
     6    12    18    1
     7    16    18    2
     8    16    17    1
     9    11    10    1
    10    10     8   am
    11    18    19    1
    12     8     7    1
    13     8     9    2
    14     7     6    1
    15     6     5    1
    16     5     4   ar
    17     5     1   ar
    18     4     3   ar
    19    21    22    1
    20    21    20    2
    21     1    20    1
    22     1     2   ar
    23    22    23    2
    24     3     2   ar
    25    20    26    1
    26     2    27    1
    27    23    24    1
    28    26    24    2
    29    24    25    1
    30    27    28    1
    31    37    36    1
    32    28    36    1
    33    28    29    2
    34    36    33   am
    35    29    30    1
    36    33    35    2
    37    33    32   am
    38    30    32   am
    39    30    31    2
    40    32    34    1
