@<TRIPOS>MOLECULE
4508_out_ligand_01.pdbqt
 37 40 0 0 0
SMALL
GASTEIGER

@<TRIPOS>ATOM
      1  C         17.1570  -22.0780  -10.1170 C.ar    1  UNL1        0.1960
      2  N         15.8590  -22.2550  -10.0610 N.ar    1  UNL1       -0.1220
      3  N         15.6010  -23.1540   -9.0670 N.ar    1  UNL1       -0.1330
      4  C         16.7470  -23.5170   -8.5230 C.ar    1  UNL1        0.1410
      5  N         17.7920  -22.8850   -9.1880 N.ar    1  UNL1       -0.2750
      6  S         17.9570  -21.0950  -11.3050 S.3     1  UNL1       -0.0800
      7  C         19.4050  -22.1350  -11.6960 C.3     1  UNL1        0.1850
      8  C         20.7320  -21.3760  -11.6660 C.2     1  UNL1        0.2310
      9  N         21.8510  -22.1880  -11.7730 N.am    1  UNL1       -0.3260
     10  H         21.6410  -23.1680  -11.8910 H       1  UNL1        0.1690
     11  O         20.7380  -20.1620  -11.4770 O.2     1  UNL1       -0.2720
     12  C         23.2150  -21.8180  -11.8400 C.2     1  UNL1        0.0410
     13  C         24.0110  -21.7130  -10.6930 C.2     1  UNL1        0.0300
     14  C         25.3470  -21.3290  -10.7790 C.2     1  UNL1        0.0030
     15  C         25.9080  -21.0410  -12.0160 C.2     1  UNL1        0.0070
     16  C         25.1480  -21.1490  -13.1900 C.2     1  UNL1       -0.0540
     17  C         25.8220  -20.8400  -14.5020 C.3     1  UNL1        0.0490
     18  C         23.7860  -21.5370  -13.1100 C.2     1  UNL1       -0.0290
     19  C         22.9540  -21.6690  -14.3660 C.3     1  UNL1        0.0510
     20  C         19.1840  -23.0440   -8.9540 C.2     1  UNL1        0.0430
     21  C         19.8940  -22.0740   -8.2320 C.2     1  UNL1        0.0330
     22  C         21.2620  -22.2460   -7.9990 C.2     1  UNL1        0.0440
     23  C         21.9100  -23.3760   -8.4860 C.2     1  UNL1        0.1160
     24  F         23.2210  -23.5350   -8.2670 F       1  UNL1       -0.2060
     25  C         21.2160  -24.3430   -9.2060 C.2     1  UNL1        0.0440
     26  C         19.8490  -24.1800   -9.4450 C.2     1  UNL1        0.0330
     27  C         16.8520  -24.3360   -7.2730 C.3     1  UNL1        0.1380
     28  C         16.7250  -23.5360   -5.9930 C.2     1  UNL1        0.0260
     29  C         17.7610  -23.3340   -5.1670 C.2     1  UNL1        0.1000
     30  C         17.5650  -22.5530   -3.9290 C.2     1  UNL1        0.2510
     31  O         18.4940  -22.3520   -3.1550 O.2     1  UNL1       -0.2680
     32  N         16.3050  -22.0780   -3.7140 N.am    1  UNL1       -0.2750
     33  C         15.2430  -22.2710   -4.5470 C.2     1  UNL1        0.3270
     34  H         16.1430  -21.5580   -2.8650 H       1  UNL1        0.1730
     35  O         14.1250  -21.8300   -4.3060 O.2     1  UNL1       -0.2470
     36  N         15.4980  -22.9940   -5.6830 N.am    1  UNL1       -0.3120
     37  H         14.6960  -23.1170   -6.2920 H       1  UNL1        0.1700
@<TRIPOS>BOND
     1    17    16    1
     2    19    18    1
     3    16    18    1
     4    16    15    2
     5    18    12    2
     6    15    14    1
     7    10     9    1
     8    12     9    1
     9    12    13    1
    10     9     8   am
    11     7     8    1
    12     7     6    1
    13     8    11    2
    14     6     1    1
    15    14    13    2
    16     1     2   ar
    17     1     5   ar
    18     2     3   ar
    19    26    25    1
    20    26    20    2
    21    25    23    2
    22     5    20    1
    23     5     4   ar
    24     3     4   ar
    25    20    21    1
    26     4    27    1
    27    23    24    1
    28    23    22    1
    29    21    22    2
    30    27    28    1
    31    37    36    1
    32    28    36    1
    33    28    29    2
    34    36    33   am
    35    29    30    1
    36    33    35    2
    37    33    32   am
    38    30    32   am
    39    30    31    2
    40    32    34    1
