@<TRIPOS>MOLECULE
45081_out_ligand_01.pdbqt
 30 33 0 0 0
SMALL
GASTEIGER

@<TRIPOS>ATOM
      1  C         19.6320  -21.9040  -11.4080 C.2     1  UNL1        0.0350
      2  C         18.6020  -21.2170  -12.0510 C.2     1  UNL1        0.0290
      3  C         17.3660  -21.0430  -11.4230 C.2     1  UNL1        0.0030
      4  C         17.1500  -21.5530  -10.1440 C.2     1  UNL1        0.0110
      5  C         18.1700  -22.2450   -9.4740 C.2     1  UNL1       -0.0190
      6  C         19.4060  -22.4190  -10.1230 C.2     1  UNL1        0.0400
      7  C         17.9440  -22.8130   -8.0890 C.3     1  UNL1        0.1960
      8  N         16.5980  -23.2700   -7.9320 N.am    1  UNL1       -0.3360
      9  C         16.1450  -23.6750   -6.7040 C.2     1  UNL1        0.2550
     10  H         16.1590  -23.7380   -8.7100 H       1  UNL1        0.1640
     11  O         15.1980  -24.4420   -6.5900 O.2     1  UNL1       -0.2680
     12  C         16.8600  -23.1180   -5.5350 C.2     1  UNL1        0.0530
     13  C         16.4880  -23.4750   -4.2360 C.2     1  UNL1        0.0190
     14  C         17.8950  -22.2020   -5.7760 C.2     1  UNL1        0.0260
     15  C         17.1400  -22.8880   -3.1530 C.2     1  UNL1        0.0010
     16  C         18.1400  -21.9410   -3.3740 C.2     1  UNL1        0.0020
     17  C         18.5040  -21.5870   -4.6780 C.2     1  UNL1        0.0240
     18  N         18.2140  -21.8000   -7.0850 N.pl3   1  UNL1       -0.2670
     19  H         19.1520  -21.4190   -7.1630 H       1  UNL1        0.1300
     20  N         20.9020  -22.1330  -11.9800 N.am    1  UNL1       -0.3230
     21  C         22.1360  -21.8290  -11.4310 C.2     1  UNL1        0.2560
     22  O         22.3530  -21.3760  -10.3140 O.2     1  UNL1       -0.2670
     23  H         20.9080  -22.6380  -12.8560 H       1  UNL1        0.1690
     24  C         23.3000  -22.1440  -12.3050 C.2     1  UNL1        0.0320
     25  C         23.4180  -21.4750  -13.5290 C.2     1  UNL1        0.0170
     26  C         24.5000  -21.7410  -14.3720 C.2     1  UNL1        0.0070
     27  C         25.4610  -22.6940  -14.0120 C.2     1  UNL1       -0.0620
     28  C         26.6370  -22.9580  -14.9080 C.3     1  UNL1        0.0480
     29  C         25.3370  -23.3650  -12.7890 C.2     1  UNL1        0.0070
     30  C         24.2570  -23.1000  -11.9420 C.2     1  UNL1        0.0170
@<TRIPOS>BOND
     1    28    27    1
     2    26    27    2
     3    26    25    1
     4    27    29    1
     5    25    24    2
     6    23    20    1
     7    29    30    2
     8    24    30    1
     9    24    21    1
    10     2     3    1
    11     2     1    2
    12    20    21   am
    13    20     1    1
    14    21    22    2
    15     3     4    2
    16     1     6    1
    17     4     5    1
    18     6     5    2
    19     5     7    1
    20    10     8    1
    21     7     8    1
    22     7    18    1
    23     8     9   am
    24    19    18    1
    25    18    14    1
    26     9    11    2
    27     9    12    1
    28    14    12    2
    29    14    17    1
    30    12    13    1
    31    17    16    2
    32    13    15    2
    33    16    15    1
