@<TRIPOS>MOLECULE
45091_out_ligand_01.pdbqt
 30 32 0 0 0
SMALL
GASTEIGER

@<TRIPOS>ATOM
      1  C         19.5670  -22.2250   -6.7130 C.2     1  UNL1        0.2560
      2  O         19.4780  -21.1160   -6.2000 O.2     1  UNL1       -0.2670
      3  N         18.6720  -23.2680   -6.5850 N.am    1  UNL1       -0.3210
      4  H         18.8130  -24.0900   -7.1610 H       1  UNL1        0.1690
      5  C         17.5120  -23.3220   -5.7830 C.2     1  UNL1        0.0690
      6  C         17.4370  -22.8290   -4.4800 C.2     1  UNL1        0.0320
      7  C         16.2450  -22.9310   -3.7520 C.2     1  UNL1        0.0020
      8  C         15.1170  -23.5250   -4.3180 C.2     1  UNL1        0.0030
      9  C         15.1770  -24.0270   -5.6150 C.2     1  UNL1        0.0390
     10  C         16.3740  -23.9380   -6.3310 C.2     1  UNL1        0.1020
     11  O         16.4200  -24.4030   -7.6290 O.2     1  UNL1       -0.3090
     12  C         16.6790  -23.4840   -8.6240 C.2     1  UNL1        0.0760
     13  C         15.9260  -22.3340   -8.8640 C.2     1  UNL1        0.0380
     14  C         16.2590  -21.4890   -9.9270 C.2     1  UNL1        0.0090
     15  C         17.3350  -21.7960  -10.7700 C.2     1  UNL1       -0.0620
     16  C         17.7130  -20.8670  -11.8860 C.3     1  UNL1        0.0480
     17  C         18.0850  -22.9500  -10.5220 C.2     1  UNL1        0.0090
     18  C         17.7530  -23.7940   -9.4610 C.2     1  UNL1        0.0380
     19  C         20.7330  -22.5070   -7.6000 C.2     1  UNL1        0.0320
     20  C         21.7560  -21.5590   -7.6800 C.2     1  UNL1        0.0170
     21  C         22.8640  -21.7860   -8.4990 C.2     1  UNL1        0.0100
     22  C         22.9710  -22.9740   -9.2370 C.2     1  UNL1       -0.0400
     23  C         21.9480  -23.9280   -9.1470 C.2     1  UNL1        0.0100
     24  C         20.8370  -23.7010   -8.3270 C.2     1  UNL1        0.0170
     25  C         24.1620  -23.2020  -10.1340 C.3     1  UNL1        0.1610
     26  N         24.9960  -22.0220  -10.1860 N.am    1  UNL1       -0.3570
     27  C         25.2840  -21.3930  -11.3740 C.2     1  UNL1        0.2130
     28  C         26.2690  -20.2620  -11.2410 C.3     1  UNL1        0.1170
     29  O         24.8060  -21.7170  -12.4560 O.2     1  UNL1       -0.2740
     30  H         25.5660  -21.8200   -9.3770 H       1  UNL1        0.1620
@<TRIPOS>BOND
     1    29    27    2
     2    16    15    1
     3    27    28    1
     4    27    26   am
     5    15    17    2
     6    15    14    1
     7    17    18    1
     8    26    25    1
     9    26    30    1
    10    25    22    1
    11    14    13    2
    12    18    12    2
    13    22    23    2
    14    22    21    1
    15    23    24    1
    16    13    12    1
    17    12    11    1
    18    21    20    2
    19    24    19    2
    20    20    19    1
    21    11    10    1
    22    19     1    1
    23     4     3    1
    24     1     3   am
    25     1     2    2
    26     3     5    1
    27    10     5    2
    28    10     9    1
    29     5     6    1
    30     9     8    2
    31     6     7    2
    32     8     7    1
