@<TRIPOS>MOLECULE
450_out_ligand_01.pdbqt
 38 40 0 0 0
SMALL
GASTEIGER

@<TRIPOS>ATOM
      1  N         21.6900  -22.0720  -12.1780 N.am    1  UNL1       -0.3230
      2  C         21.2130  -21.9160  -10.8890 C.2     1  UNL1        0.2560
      3  O         21.8760  -21.8920   -9.8620 O.2     1  UNL1       -0.2670
      4  H         21.0030  -22.1780  -12.9140 H       1  UNL1        0.1690
      5  C         19.7290  -21.8100  -10.7690 C.2     1  UNL1        0.0330
      6  C         18.9740  -20.9720  -11.6040 C.2     1  UNL1        0.0170
      7  C         17.5850  -20.9020  -11.4610 C.2     1  UNL1        0.0030
      8  C         16.9420  -21.6590  -10.4820 C.2     1  UNL1        0.0250
      9  C         17.7000  -22.4790   -9.6400 C.2     1  UNL1        0.0750
     10  C         19.0890  -22.5530   -9.7700 C.2     1  UNL1        0.0410
     11  S         16.8980  -23.4360   -8.3770 S.O2    1  UNL1        0.2450
     12  O         15.7180  -24.0170   -8.9780 O.2     1  UNL1       -0.2060
     13  O         17.8930  -24.2520   -7.7170 O.2     1  UNL1       -0.2060
     14  N         16.3530  -22.2330   -7.3100 N.pl3   1  UNL1       -0.1800
     15  H         15.4150  -21.9450   -7.5990 H       1  UNL1        0.1460
     16  C         16.5060  -22.5010   -5.9110 C.2     1  UNL1        0.0440
     17  C         15.4390  -23.0570   -5.2020 C.2     1  UNL1        0.0260
     18  C         15.5490  -23.2690   -3.8260 C.2     1  UNL1        0.0020
     19  C         16.7200  -22.9190   -3.1540 C.2     1  UNL1        0.0020
     20  C         17.7880  -22.3570   -3.8550 C.2     1  UNL1        0.0260
     21  C         17.6810  -22.1440   -5.2310 C.2     1  UNL1        0.0560
     22 CL         19.0250  -21.4590   -6.0720 Cl      1  UNL1       -0.0820
     23  C         23.0380  -22.1680  -12.5870 C.2     1  UNL1        0.0360
     24  C         23.9720  -23.0360  -12.0200 C.2     1  UNL1        0.0460
     25  C         25.3020  -23.0370  -12.4690 C.2     1  UNL1        0.0350
     26  C         25.7010  -22.1920  -13.5110 C.2     1  UNL1        0.0340
     27  C         24.7640  -21.3390  -14.0970 C.2     1  UNL1        0.0350
     28  C         23.4450  -21.3180  -13.6230 C.2     1  UNL1        0.0460
     29  C         26.2690  -23.9660  -11.8340 C.2     1  UNL1        0.2490
     30  N         26.3980  -23.8870  -10.4740 N.am    1  UNL1       -0.3660
     31  H         26.9450  -24.6300  -10.0550 H       1  UNL1        0.1590
     32  H         25.6700  -23.4820   -9.9020 H       1  UNL1        0.1590
     33  O         26.9050  -24.7810  -12.4840 O.2     1  UNL1       -0.2680
     34  C         25.1220  -20.4200  -15.2080 C.2     1  UNL1        0.2490
     35  N         25.5680  -19.1710  -14.8780 N.am    1  UNL1       -0.3660
     36  H         25.9270  -18.9530  -13.9580 H       1  UNL1        0.1590
     37  H         25.9260  -18.6180  -15.6470 H       1  UNL1        0.1590
     38  O         25.0510  -20.7760  -16.3760 O.2     1  UNL1       -0.2680
@<TRIPOS>BOND
     1    38    34    2
     2    37    35    1
     3    34    35   am
     4    34    27    1
     5    35    36    1
     6    27    28    1
     7    27    26    2
     8    28    23    2
     9    26    25    1
    10     4     1    1
    11    23     1    1
    12    23    24    1
    13    33    29    2
    14    25    24    2
    15    25    29    1
    16     1     2   am
    17    29    30   am
    18     6     7    1
    19     6     5    2
    20     7     8    2
    21     2     5    1
    22     2     3    2
    23     5    10    1
    24     8     9    1
    25    30    31    1
    26    30    32    1
    27    10     9    2
    28     9    11    1
    29    12    11    2
    30    11    13    2
    31    11    14    1
    32    15    14    1
    33    14    16    1
    34    22    21    1
    35    16    21    2
    36    16    17    1
    37    21    20    1
    38    17    18    2
    39    20    19    2
    40    18    19    1
