@<TRIPOS>MOLECULE
45114_out_ligand_01.pdbqt
 32 35 0 0 0
SMALL
GASTEIGER

@<TRIPOS>ATOM
      1  C         19.9440  -22.3330   -7.8650 C.2     1  UNL1        0.0230
      2  C         19.0580  -22.5140   -8.9210 C.2     1  UNL1        0.0240
      3  C         17.6910  -22.5890   -8.6660 C.2     1  UNL1        0.0020
      4  C         17.2120  -22.4920   -7.3560 C.2     1  UNL1        0.0100
      5  C         18.0880  -22.3130   -6.2730 C.2     1  UNL1       -0.0190
      6  C         19.4690  -22.2370   -6.5540 C.2     1  UNL1        0.0340
      7  N         21.3450  -22.3150   -8.1430 N.pl3   1  UNL1       -0.1810
      8  H         21.9180  -22.4500   -7.3100 H       1  UNL1        0.1460
      9  S         21.8820  -23.4420   -9.3040 S.O2    1  UNL1        0.2520
     10  O         20.8670  -24.4620   -9.4550 O.2     1  UNL1       -0.2050
     11  O         23.2330  -23.7950   -8.9200 O.2     1  UNL1       -0.2050
     12  C         22.0620  -22.5960  -10.8590 C.2     1  UNL1        0.1160
     13  C         21.1510  -21.9040  -11.6340 C.2     1  UNL1        0.0340
     14  C         21.7230  -21.4160  -12.8440 C.2     1  UNL1        0.0230
     15  C         23.0570  -21.7480  -12.9470 C.2     1  UNL1        0.0350
     16  S         23.6030  -22.6320  -11.5930 S.3     1  UNL1       -0.0750
     17  C         23.9950  -21.3810  -14.1540 C.2     1  UNL1        0.0810
     18  N         23.9190  -22.0720  -15.3490 N.2     1  UNL1       -0.2450
     19  C         24.7890  -21.5860  -16.2070 C.2     1  UNL1        0.0710
     20  C         24.9720  -22.0910  -17.5940 C.3     1  UNL1        0.0780
     21  S         25.7390  -20.2730  -15.6340 S.3     1  UNL1       -0.0850
     22  C         24.9340  -20.3720  -14.1220 C.2     1  UNL1        0.0840
     23  C         17.6100  -22.2490   -4.8250 C.3     1  UNL1        0.1390
     24  C         18.6430  -21.5890   -3.9100 C.3     1  UNL1        0.0540
     25  N         16.3300  -21.5670   -4.7430 N.am    1  UNL1       -0.3210
     26  C         15.3340  -22.3560   -4.2320 C.2     1  UNL1        0.3240
     27  H         16.1190  -20.6480   -5.1110 H       1  UNL1        0.1650
     28  O         14.1710  -22.0200   -4.1100 O.2     1  UNL1       -0.2470
     29  N         15.8560  -23.5540   -3.8970 N.am    1  UNL1       -0.2770
     30  C         17.1820  -23.6000   -4.1960 C.2     1  UNL1        0.2580
     31  H         15.3310  -24.3060   -3.4880 H       1  UNL1        0.1730
     32  O         17.8910  -24.5720   -3.9800 O.2     1  UNL1       -0.2700
@<TRIPOS>BOND
     1    20    19    1
     2    19    21    1
     3    19    18    2
     4    21    22    1
     5    18    17    1
     6    17    22    2
     7    17    15    1
     8    15    14    2
     9    15    16    1
    10    14    13    1
    11    13    12    2
    12    16    12    1
    13    12     9    1
    14    10     9    2
    15     9    11    2
    16     9     7    1
    17     2     3    1
    18     2     1    2
    19     3     4    2
    20     7     1    1
    21     7     8    1
    22     1     6    1
    23     4     5    1
    24     6     5    2
    25     5    23    1
    26    27    25    1
    27    23    25    1
    28    23    30    1
    29    23    24    1
    30    25    26   am
    31    26    28    2
    32    26    29   am
    33    30    32    2
    34    30    29   am
    35    29    31    1
