@<TRIPOS>MOLECULE
45128_out_ligand_01.pdbqt
 27 30 0 0 0
SMALL
GASTEIGER

@<TRIPOS>ATOM
      1  C         20.0020  -21.9100  -11.0780 C.2     1  UNL1        0.0320
      2  C         18.8570  -21.6420  -11.8390 C.2     1  UNL1        0.0180
      3  C         17.5890  -21.8130  -11.2740 C.2     1  UNL1        0.0190
      4  C         17.4610  -22.2330   -9.9440 C.2     1  UNL1        0.0450
      5  C         18.6040  -22.4770   -9.1710 C.2     1  UNL1       -0.0380
      6  C         19.8730  -22.3200   -9.7430 C.2     1  UNL1        0.0250
      7  C         18.4360  -22.9410   -7.7540 C.3     1  UNL1        0.0770
      8  C         17.1580  -22.3150   -7.1990 C.3     1  UNL1        0.1690
      9  O         16.0290  -22.6500   -8.0340 O.3     1  UNL1       -0.3070
     10  C         16.1030  -22.4480   -9.3740 C.2     1  UNL1        0.2940
     11  O         15.1140  -22.4700  -10.0940 O.2     1  UNL1       -0.2590
     12  C         21.3740  -21.7420  -11.6360 C.2     1  UNL1        0.2560
     13  O         21.5120  -21.0450  -12.6330 O.2     1  UNL1       -0.2670
     14  N         22.3790  -22.3780  -10.9320 N.am    1  UNL1       -0.3220
     15  H         22.1320  -22.8180  -10.0550 H       1  UNL1        0.1690
     16  C         23.7500  -22.4040  -11.2680 C.2     1  UNL1        0.0520
     17  C         24.5820  -21.4520  -10.6710 C.2     1  UNL1        0.0320
     18  C         25.9440  -21.4350  -10.9640 C.2     1  UNL1        0.0210
     19  C         26.4390  -22.3770  -11.8470 C.2     1  UNL1        0.1160
     20  N         25.6740  -23.3140  -12.4420 N.2     1  UNL1       -0.2710
     21  C         24.3480  -23.3070  -12.1410 C.2     1  UNL1        0.1450
     22  C         16.8990  -22.7870   -5.7810 C.2     1  UNL1       -0.0290
     23  C         17.8370  -22.5870   -4.7580 C.2     1  UNL1        0.0100
     24  C         17.5670  -23.0020   -3.4530 C.2     1  UNL1        0.0010
     25  C         16.3540  -23.6190   -3.1530 C.2     1  UNL1        0.0000
     26  C         15.4100  -23.8190   -4.1580 C.2     1  UNL1        0.0010
     27  C         15.6780  -23.4060   -5.4630 C.2     1  UNL1        0.0100
@<TRIPOS>BOND
     1    13    12    2
     2    20    21    1
     3    20    19    2
     4    21    16    2
     5    19    18    1
     6     2     3    1
     7     2     1    2
     8    12     1    1
     9    12    14   am
    10     3     4    2
    11    16    14    1
    12    16    17    1
    13     1     6    1
    14    18    17    2
    15    14    15    1
    16    11    10    2
    17     4    10    1
    18     4     5    1
    19     6     5    2
    20    10     9    1
    21     5     7    1
    22     9     8    1
    23     7     8    1
    24     8    22    1
    25    22    27    2
    26    22    23    1
    27    27    26    1
    28    23    24    2
    29    26    25    2
    30    24    25    1
