@<TRIPOS>MOLECULE
45138_out_ligand_01.pdbqt
 35 38 0 0 0
SMALL
GASTEIGER

@<TRIPOS>ATOM
      1  O         22.7330  -22.1930  -12.3640 O.2     1  UNL1       -0.2710
      2  C         23.5320  -22.9380  -11.7990 C.2     1  UNL1        0.2400
      3  N         23.4250  -23.4090  -10.5040 N.am    1  UNL1       -0.3260
      4  H         24.1930  -24.0070  -10.2070 H       1  UNL1        0.1690
      5  C         24.7850  -23.4240  -12.5440 C.3     1  UNL1        0.2320
      6  N         25.3990  -22.3750  -13.4020 N.ar    1  UNL1       -0.3360
      7  C         25.1610  -22.4310  -14.7970 C.ar    1  UNL1        0.0490
      8  C         24.7540  -23.6010  -15.4640 C.2     1  UNL1        0.0310
      9  C         25.3760  -21.2900  -15.5910 C.ar    1  UNL1        0.0420
     10  C         24.5390  -23.6180  -16.8490 C.2     1  UNL1        0.0020
     11  C         24.7340  -22.4680  -17.6050 C.2     1  UNL1        0.0010
     12  C         25.1580  -21.3010  -16.9780 C.2     1  UNL1        0.0180
     13  C         25.8520  -20.0440  -14.9550 C.ar    1  UNL1        0.1960
     14  O         25.9980  -19.0200  -15.6160 O.2     1  UNL1       -0.2860
     15  C         26.1730  -20.0590  -13.5130 C.ar    1  UNL1        0.0420
     16  C         26.7120  -18.9040  -12.9260 C.2     1  UNL1        0.0180
     17  C         25.9390  -21.2290  -12.7660 C.ar    1  UNL1        0.0490
     18  C         27.0450  -18.8990  -11.5770 C.2     1  UNL1        0.0010
     19  C         26.8490  -20.0490  -10.8210 C.2     1  UNL1        0.0020
     20  C         26.3080  -21.2000  -11.4090 C.2     1  UNL1        0.0310
     21  C         22.4100  -23.1640   -9.5640 C.2     1  UNL1        0.0340
     22  C         21.2920  -24.0070   -9.6010 C.2     1  UNL1        0.0300
     23  C         20.2380  -23.8310   -8.6990 C.2     1  UNL1        0.0190
     24  C         20.2930  -22.8140   -7.7410 C.2     1  UNL1        0.0320
     25  C         21.3990  -21.9590   -7.7120 C.2     1  UNL1        0.0190
     26  C         22.4540  -22.1390   -8.6180 C.2     1  UNL1        0.0300
     27  C         19.1490  -22.6640   -6.8010 C.2     1  UNL1        0.2510
     28  O         18.9570  -21.6030   -6.2190 O.2     1  UNL1       -0.2680
     29  N         18.3190  -23.7560   -6.6560 N.am    1  UNL1       -0.3480
     30  H         18.3710  -24.4990   -7.3420 H       1  UNL1        0.1630
     31  C         17.0730  -23.6290   -5.8950 C.3     1  UNL1        0.2400
     32  C         15.7920  -23.8090   -6.7140 C.3     1  UNL1        0.4030
     33  F         14.7540  -24.1320   -5.9080 F       1  UNL1       -0.1690
     34  F         15.9410  -24.8270   -7.5990 F       1  UNL1       -0.1690
     35  F         15.4480  -22.7090   -7.4100 F       1  UNL1       -0.1690
@<TRIPOS>BOND
     1    11    12    2
     2    11    10    1
     3    12     9    1
     4    10     8    2
     5    14    13    2
     6     9    13   ar
     7     9     7   ar
     8     8     7    1
     9    13    15   ar
    10     7     6   ar
    11    15    16    2
    12    15    17   ar
    13     6    17   ar
    14     6     5    1
    15    16    18    1
    16    17    20    2
    17     5     2    1
    18     1     2    2
    19     2     3   am
    20    18    19    2
    21    20    19    1
    22     3     4    1
    23     3    21    1
    24    22    21    2
    25    22    23    1
    26    21    26    1
    27    23    24    2
    28    26    25    2
    29    24    25    1
    30    24    27    1
    31    34    32    1
    32    35    32    1
    33    30    29    1
    34    27    29   am
    35    27    28    2
    36    32    33    1
    37    32    31    1
    38    29    31    1
