@<TRIPOS>MOLECULE
45134_out_ligand_01.pdbqt
 33 37 0 0 0
SMALL
GASTEIGER

@<TRIPOS>ATOM
      1  C         21.0760  -21.8610  -11.5260 C.2     1  UNL1        0.0510
      2  C         21.3810  -22.4510  -10.3090 C.2     1  UNL1        0.1360
      3  N         20.4490  -22.7710   -9.3740 N.2     1  UNL1       -0.2410
      4  C         19.1520  -22.4740   -9.6370 C.ar    1  UNL1        0.1490
      5  C         18.7840  -21.8450  -10.8210 C.ar    1  UNL1        0.0790
      6  C         19.7500  -21.5250  -11.7790 C.2     1  UNL1        0.0390
      7  C         17.3740  -21.5270  -11.0490 C.ar    1  UNL1        0.2630
      8  O         16.9970  -21.0250  -12.1000 O.2     1  UNL1       -0.2670
      9  N         16.5180  -21.8340  -10.0300 N.ar    1  UNL1       -0.2740
     10  C         16.8350  -22.4860   -8.8710 C.ar    1  UNL1        0.3310
     11  O         15.9370  -22.7530   -8.0740 O.2     1  UNL1       -0.2460
     12  N         18.1630  -22.8020   -8.6820 N.ar    1  UNL1       -0.2790
     13  H         15.5390  -21.6320  -10.1720 H       1  UNL1        0.1730
     14  C         22.1700  -21.5350  -12.4640 C.2     1  UNL1        0.2590
     15  N         23.3740  -22.2520  -12.3720 N.am    1  UNL1       -0.3130
     16  C         23.7630  -22.9190  -11.1200 C.3     1  UNL1        0.1330
     17  C         24.3120  -22.3340  -13.4670 C.2     1  UNL1        0.0430
     18  C         25.2410  -22.7640  -10.8090 C.3     1  UNL1        0.0250
     19  C         26.0470  -23.3940  -11.9260 C.3     1  UNL1        0.0420
     20  C         25.5950  -22.8880  -13.2690 C.2     1  UNL1       -0.0310
     21  C         26.4920  -23.0130  -14.3490 C.2     1  UNL1        0.0160
     22  C         26.1430  -22.5910  -15.6320 C.2     1  UNL1       -0.0610
     23  C         27.1210  -22.6890  -16.7640 C.3     1  UNL1        0.0480
     24  C         24.8840  -22.0260  -15.8270 C.2     1  UNL1        0.0090
     25  C         23.9820  -21.9110  -14.7630 C.2     1  UNL1        0.0310
     26  O         21.9190  -20.6290  -13.2560 O.2     1  UNL1       -0.2670
     27  C         18.5560  -23.5450   -7.4870 C.3     1  UNL1        0.1740
     28  C         18.5230  -22.6910   -6.2370 C.2     1  UNL1       -0.0400
     29  C         17.7750  -23.0900   -5.1190 C.2     1  UNL1        0.0090
     30  C         17.7580  -22.3100   -3.9610 C.2     1  UNL1        0.0010
     31  C         18.4890  -21.1250   -3.9070 C.2     1  UNL1        0.0000
     32  C         19.2380  -20.7190   -5.0090 C.2     1  UNL1        0.0010
     33  C         19.2560  -21.4970   -6.1670 C.2     1  UNL1        0.0090
@<TRIPOS>BOND
     1    23    22    1
     2    24    22    2
     3    24    25    1
     4    22    21    1
     5    25    17    2
     6    21    20    2
     7    17    20    1
     8    17    15    1
     9    20    19    1
    10    26    14    2
    11    14    15   am
    12    14     1    1
    13    15    16    1
    14     8     7    2
    15    19    18    1
    16     6     1    2
    17     6     5    1
    18     1     2    1
    19    16    18    1
    20     7     5   ar
    21     7     9   ar
    22     5     4   ar
    23     2     3    2
    24    13     9    1
    25     9    10   ar
    26     4     3    1
    27     4    12   ar
    28    10    12   ar
    29    10    11    2
    30    12    27    1
    31    27    28    1
    32    28    33    2
    33    28    29    1
    34    33    32    1
    35    29    30    2
    36    32    31    2
    37    30    31    1
