@<TRIPOS>MOLECULE
45140_out_ligand_01.pdbqt
 29 31 0 0 0
SMALL
GASTEIGER

@<TRIPOS>ATOM
      1  C         22.5010  -22.1600   -8.3490 C.3     1  UNL1        0.1580
      2  N         23.0900  -23.0140   -9.3710 N.pl3   1  UNL1       -0.3860
      3  H         23.9020  -23.5220   -9.0290 H       1  UNL1        0.1600
      4  C         23.2710  -22.5310  -10.6680 C.2     1  UNL1        0.0280
      5  C         24.5420  -22.6480  -11.2540 C.2     1  UNL1        0.0370
      6  C         24.8040  -22.2440  -12.5770 C.2     1  UNL1       -0.0440
      7  C         26.1980  -22.3920  -13.1210 C.3     1  UNL1        0.0490
      8  C         23.7440  -21.7420  -13.3500 C.2     1  UNL1        0.0370
      9  C         22.4590  -21.6670  -12.7950 C.2     1  UNL1        0.0200
     10  C         22.2280  -22.0670  -11.4730 C.2     1  UNL1        0.0300
     11  C         23.9420  -21.3190  -14.7640 C.2     1  UNL1        0.2490
     12  N         24.3080  -20.0140  -14.9610 N.am    1  UNL1       -0.3660
     13  H         24.5640  -19.7620  -15.9070 H       1  UNL1        0.1590
     14  H         24.6610  -19.4420  -14.2070 H       1  UNL1        0.1590
     15  O         23.8130  -22.0830  -15.7100 O.2     1  UNL1       -0.2680
     16  C         21.1210  -22.6750   -8.0090 C.2     1  UNL1       -0.0400
     17  C         20.2800  -21.9570   -7.1440 C.2     1  UNL1        0.0110
     18  C         19.0100  -22.4440   -6.8270 C.2     1  UNL1        0.0380
     19  C         18.5810  -23.6630   -7.3560 C.2     1  UNL1        0.0760
     20  C         19.4000  -24.3770   -8.2280 C.2     1  UNL1        0.0380
     21  C         20.6690  -23.8910   -8.5450 C.2     1  UNL1        0.0110
     22  O         17.3280  -24.1750   -7.1070 O.2     1  UNL1       -0.3110
     23  C         16.5780  -23.5590   -6.1320 C.2     1  UNL1        0.0790
     24  C         16.8380  -23.7160   -4.7650 C.2     1  UNL1        0.0370
     25  C         16.0160  -23.0930   -3.8230 C.2     1  UNL1        0.0060
     26  C         14.9290  -22.3300   -4.2480 C.2     1  UNL1        0.0420
     27  C         14.6690  -22.2010   -5.6090 C.2     1  UNL1        0.1190
     28  F         13.6190  -21.4750   -6.0120 F       1  UNL1       -0.2060
     29  C         15.4790  -22.8160   -6.5570 C.2     1  UNL1        0.0790
@<TRIPOS>BOND
     1    13    12    1
     2    15    11    2
     3    12    11   am
     4    12    14    1
     5    11     8    1
     6     8     9    2
     7     8     6    1
     8     7     6    1
     9     9    10    1
    10     6     5    2
    11    10     4    2
    12     5     4    1
    13     4     2    1
    14     2     3    1
    15     2     1    1
    16    21    20    1
    17    21    16    2
    18     1    16    1
    19    20    19    2
    20    16    17    1
    21    19    22    1
    22    19    18    1
    23    17    18    2
    24    22    23    1
    25    29    23    2
    26    29    27    1
    27    23    24    1
    28    28    27    1
    29    27    26    2
    30    24    25    2
    31    26    25    1
