@<TRIPOS>MOLECULE
45149_out_ligand_01.pdbqt
 29 31 0 0 0
SMALL
GASTEIGER

@<TRIPOS>ATOM
      1  C         23.4010  -21.8830  -12.8040 C.2     1  UNL1        0.0350
      2  C         22.2910  -21.8870  -11.9430 C.2     1  UNL1        0.0460
      3  C         22.4040  -22.3750  -10.6390 C.2     1  UNL1        0.0360
      4  C         23.6410  -22.8680  -10.2000 C.2     1  UNL1        0.0460
      5  C         24.7540  -22.8540  -11.0500 C.2     1  UNL1        0.0350
      6  C         24.6300  -22.3770  -12.3580 C.2     1  UNL1        0.0340
      7  N         21.3290  -22.4330   -9.7260 N.am    1  UNL1       -0.3230
      8  C         20.9240  -23.5270   -8.9810 C.2     1  UNL1        0.2560
      9  O         21.3550  -24.6690   -9.0710 O.2     1  UNL1       -0.2670
     10  H         20.7390  -21.6120   -9.6740 H       1  UNL1        0.1690
     11  C         19.8050  -23.2590   -8.0340 C.2     1  UNL1        0.0320
     12  C         19.9350  -22.1810   -7.1360 C.2     1  UNL1        0.0170
     13  C         18.9220  -21.8890   -6.2190 C.2     1  UNL1        0.0090
     14  C         17.7800  -22.6710   -6.2330 C.2     1  UNL1       -0.0520
     15  C         17.6370  -23.7310   -7.1360 C.2     1  UNL1       -0.0510
     16  C         16.5830  -22.5680   -5.3400 C.3     1  UNL1        0.0390
     17  C         18.6390  -24.0400   -8.0430 C.2     1  UNL1        0.0240
     18  C         16.3280  -24.4280   -6.9350 C.3     1  UNL1        0.0390
     19  C         15.5470  -23.3740   -6.1360 C.3     1  UNL1        0.0090
     20  C         23.2220  -21.3800  -14.1920 C.2     1  UNL1        0.2490
     21  N         22.4750  -20.2470  -14.3600 N.am    1  UNL1       -0.3660
     22  H         22.2760  -19.9860  -15.3170 H       1  UNL1        0.1590
     23  H         21.8750  -19.8700  -13.6410 H       1  UNL1        0.1590
     24  O         23.6970  -21.9630  -15.1570 O.2     1  UNL1       -0.2680
     25  C         26.0810  -23.3660  -10.6150 C.2     1  UNL1        0.2490
     26  N         26.1040  -24.3030   -9.6210 N.am    1  UNL1       -0.3660
     27  H         25.3240  -24.4390   -8.9940 H       1  UNL1        0.1590
     28  H         27.0240  -24.5280   -9.2600 H       1  UNL1        0.1590
     29  O         27.1210  -22.9340  -11.0950 O.2     1  UNL1       -0.2680
@<TRIPOS>BOND
     1    22    21    1
     2    24    20    2
     3    21    20   am
     4    21    23    1
     5    20     1    1
     6     1     6    2
     7     1     2    1
     8     6     5    1
     9     2     3    2
    10    29    25    2
    11     5    25    1
    12     5     4    2
    13     3     4    1
    14     3     7    1
    15    25    26   am
    16     7    10    1
    17     7     8   am
    18    26    28    1
    19    26    27    1
    20     9     8    2
    21     8    11    1
    22    17    11    2
    23    17    15    1
    24    11    12    1
    25    15    18    1
    26    15    14    2
    27    12    13    2
    28    18    19    1
    29    14    13    1
    30    14    16    1
    31    19    16    1
