@<TRIPOS>MOLECULE
45168_out_ligand_01.pdbqt
 32 34 0 0 0
SMALL
GASTEIGER

@<TRIPOS>ATOM
      1  C         17.7220  -22.3390   -9.9630 C.2     1  UNL1        0.0350
      2  C         17.6070  -21.5340  -11.1060 C.2     1  UNL1        0.0170
      3  C         18.7510  -21.0430  -11.7400 C.2     1  UNL1        0.0030
      4  C         20.0150  -21.3570  -11.2420 C.2     1  UNL1        0.0250
      5  C         20.1280  -22.1640  -10.1050 C.2     1  UNL1        0.0800
      6  C         18.9880  -22.6330   -9.4450 C.2     1  UNL1        0.0420
      7  C         16.5230  -22.8800   -9.2610 C.2     1  UNL1        0.2710
      8  N         16.7770  -23.4540   -8.0140 N.am    1  UNL1       -0.2430
      9  H         17.5660  -23.0520   -7.5160 H       1  UNL1        0.1920
     10  O         15.4170  -22.7650   -9.7790 O.2     1  UNL1       -0.2660
     11  N         15.7380  -23.7670   -7.1740 N.2     1  UNL1       -0.1760
     12  C         15.8570  -23.5010   -5.9030 C.2     1  UNL1        0.0620
     13  C         14.7810  -24.0370   -4.9860 C.3     1  UNL1        0.0730
     14  C         16.9130  -22.6810   -5.2670 C.2     1  UNL1        0.0070
     15  C         17.8450  -21.9950   -6.0450 C.2     1  UNL1        0.0160
     16  C         18.7950  -21.1960   -5.4150 C.2     1  UNL1        0.0200
     17  C         18.7650  -21.1050   -4.0300 C.2     1  UNL1        0.1160
     18  N         17.8670  -21.7500   -3.2520 N.2     1  UNL1       -0.2720
     19  C         16.9650  -22.5370   -3.8890 C.2     1  UNL1        0.1290
     20  S         21.7420  -22.5580   -9.4630 S.O2    1  UNL1        0.2630
     21  O         22.0030  -23.9550   -9.7290 O.2     1  UNL1       -0.2000
     22  O         21.8100  -22.0290   -8.1150 O.2     1  UNL1       -0.2000
     23  N         22.7740  -21.5940  -10.3850 N.pl3   1  UNL1       -0.2800
     24  H         22.2990  -20.7920  -10.7910 H       1  UNL1        0.1790
     25  C         23.8530  -22.1860  -11.1040 C.2     1  UNL1        0.0480
     26  C         24.9170  -22.7580  -10.4060 C.2     1  UNL1        0.0310
     27  C         25.9550  -23.3910  -11.0930 C.2     1  UNL1        0.0090
     28  C         25.9400  -23.4590  -12.4870 C.2     1  UNL1       -0.0610
     29  C         27.0680  -24.1170  -13.2270 C.3     1  UNL1        0.0480
     30  C         24.8880  -22.8530  -13.1870 C.2     1  UNL1        0.0150
     31  C         23.8340  -22.2160  -12.5090 C.2     1  UNL1       -0.0340
     32  C         22.7290  -21.5850  -13.3070 C.3     1  UNL1        0.0500
@<TRIPOS>BOND
     1    32    31    1
     2    29    28    1
     3    30    31    1
     4    30    28    2
     5    31    25    2
     6    28    27    1
     7     3     4    2
     8     3     2    1
     9     4     5    1
    10     2     1    2
    11    25    26    1
    12    25    23    1
    13    27    26    2
    14    24    23    1
    15    23    20    1
    16     5    20    1
    17     5     6    2
    18     1     6    1
    19     1     7    1
    20    10     7    2
    21    21    20    2
    22    20    22    2
    23     7     8   am
    24     8     9    1
    25     8    11    1
    26    11    12    2
    27    15    16    1
    28    15    14    2
    29    12    14    1
    30    12    13    1
    31    16    17    2
    32    14    19    1
    33    17    18    1
    34    19    18    2
