@<TRIPOS>MOLECULE
45190_out_ligand_01.pdbqt
 35 37 0 0 0
SMALL
GASTEIGER

@<TRIPOS>ATOM
      1  C         21.5240  -22.5610   -9.4640 C.2     1  UNL1        0.0770
      2  C         21.0370  -23.0780   -8.2600 C.2     1  UNL1        0.0270
      3  C         19.6650  -23.0240   -7.9840 C.2     1  UNL1        0.0290
      4  C         18.7610  -22.4300   -8.8830 C.2     1  UNL1        0.0620
      5  C         19.2900  -21.9230  -10.0830 C.2     1  UNL1        0.1270
      6  C         20.6600  -21.9620  -10.3800 C.2     1  UNL1        0.0620
      7  S         23.2610  -22.6600   -9.8380 S.O2    1  UNL1        0.2460
      8  O         23.7680  -21.3050   -9.8620 O.2     1  UNL1       -0.2060
      9  O         23.8400  -23.6660   -8.9740 O.2     1  UNL1       -0.2060
     10  N         23.2650  -23.2070  -11.4430 N.pl3   1  UNL1       -0.1800
     11  H         23.0230  -24.2050  -11.4710 H       1  UNL1        0.1460
     12  C         24.3710  -22.8520  -12.2860 C.2     1  UNL1        0.0390
     13  C         25.6120  -23.4480  -12.0320 C.2     1  UNL1        0.0250
     14  C         26.7150  -23.1730  -12.8410 C.2     1  UNL1        0.0020
     15  C         26.5890  -22.2940  -13.9120 C.2     1  UNL1        0.0010
     16  C         25.3610  -21.6850  -14.1700 C.2     1  UNL1        0.0200
     17  C         24.2420  -21.9510  -13.3600 C.2     1  UNL1        0.0590
     18  C         22.9900  -21.2390  -13.7220 C.2     1  UNL1        0.1780
     19  O         21.9100  -21.3940  -13.1810 O.2     1  UNL1       -0.6460
     20  O         23.1210  -20.3710  -14.7450 O.3     1  UNL1       -0.7730
     21  H         23.6890  -19.6640  -14.3570 H       1  UNL1        0.1670
     22  N         18.4190  -21.4260  -11.1290 N.pl3   1  UNL1       -0.1140
     23  O         17.5230  -22.1880  -11.5250 O.2     1  UNL1       -0.5320
     24  O         18.7100  -20.3310  -11.6330 O.2     1  UNL1       -0.5320
     25  N         17.3830  -22.4330   -8.5580 N.pl3   1  UNL1       -0.1810
     26  H         16.8880  -21.6380   -8.9700 H       1  UNL1        0.1550
     27  N         16.7480  -23.6230   -8.7310 N.2     1  UNL1       -0.2080
     28  C         16.0440  -24.0810   -7.7350 C.2     1  UNL1        0.1470
     29  C         15.9360  -23.5550   -6.3620 C.2     1  UNL1        0.0210
     30  C         14.9200  -22.6740   -5.9810 C.2     1  UNL1        0.0160
     31  C         14.8860  -22.1790   -4.6750 C.2     1  UNL1        0.0010
     32  C         15.8700  -22.5510   -3.7570 C.2     1  UNL1        0.0030
     33  C         16.8970  -23.4120   -4.1450 C.2     1  UNL1        0.0430
     34  C         16.9280  -23.9030   -5.4480 C.2     1  UNL1        0.1280
     35  F         17.9240  -24.7270   -5.8050 F       1  UNL1       -0.2050
@<TRIPOS>BOND
     1    20    21    1
     2    20    18    1
     3    16    15    2
     4    16    17    1
     5    15    14    1
     6    18    17    1
     7    18    19    2
     8    17    12    2
     9    14    13    2
    10    12    13    1
    11    12    10    1
    12    24    22    2
    13    23    22    2
    14    11    10    1
    15    10     7    1
    16    22     5    1
    17     6     5    1
    18     6     1    2
    19     5     4    2
    20     8     7    2
    21     7     1    1
    22     7     9    2
    23     1     2    1
    24    26    25    1
    25     4    25    1
    26     4     3    1
    27    27    25    1
    28    27    28    2
    29     2     3    2
    30    28    29    1
    31    29    30    2
    32    29    34    1
    33    30    31    1
    34    35    34    1
    35    34    33    2
    36    31    32    2
    37    33    32    1
