@<TRIPOS>MOLECULE
45217_out_ligand_01.pdbqt
 34 36 0 0 0
SMALL
GASTEIGER

@<TRIPOS>ATOM
      1  C         20.8900  -23.0610  -10.2820 C.2     1  UNL1        0.1030
      2  C         19.5570  -22.6610  -10.1740 C.2     1  UNL1        0.0520
      3  C         19.0360  -21.7360  -11.0850 C.2     1  UNL1       -0.0140
      4  C         19.8200  -21.2200  -12.1230 C.2     1  UNL1        0.0160
      5  C         21.1500  -21.6190  -12.2370 C.2     1  UNL1        0.0420
      6  C         21.6670  -22.5420  -11.3290 C.2     1  UNL1        0.1230
      7  C         17.6130  -21.3660  -10.9720 C.2     1  UNL1        0.1500
      8  N         16.7450  -21.7670  -10.0950 N.2     1  UNL1       -0.1840
      9  N         17.1000  -22.7550   -9.2270 N.am    1  UNL1       -0.2460
     10  C         16.2680  -23.0810   -8.1630 C.2     1  UNL1        0.2610
     11  O         15.2720  -22.4560   -7.8090 O.2     1  UNL1       -0.2690
     12  H         17.8080  -23.4300   -9.5030 H       1  UNL1        0.1920
     13  C         16.7480  -24.3220   -7.4070 C.3     1  UNL1        0.2800
     14  O         18.0050  -24.1590   -6.7550 O.2     1  UNL1       -0.3420
     15  C         18.0820  -23.2330   -5.7470 C.2     1  UNL1        0.0720
     16  C         17.5340  -23.3660   -4.4660 C.2     1  UNL1        0.0370
     17  C         17.6960  -22.3450   -3.5200 C.2     1  UNL1        0.0060
     18  C         18.4070  -21.1920   -3.8490 C.2     1  UNL1        0.0420
     19  C         18.9540  -21.0710   -5.1200 C.2     1  UNL1        0.1190
     20  F         19.6330  -19.9610   -5.4410 F       1  UNL1       -0.2060
     21  C         18.8020  -22.0800   -6.0670 C.2     1  UNL1        0.0790
     22  O         21.5250  -23.9430   -9.4510 O.2     1  UNL1       -0.3530
     23  C         20.7280  -24.9290   -8.8070 C.3     1  UNL1        0.2100
     24  O         22.9810  -22.9130  -11.4580 O.2     1  UNL1       -0.2260
     25  S         24.1010  -22.1400  -10.5440 S.3     1  UNL1        0.3030
     26  O         23.4600  -21.2270   -9.6130 O.3     1  UNL1       -0.1930
     27  O         25.0270  -23.1430  -10.0480 O.3     1  UNL1       -0.1930
     28  C         25.0000  -21.1570  -11.7280 C.2     1  UNL1        0.0860
     29  C         26.0380  -20.3300  -11.2840 C.2     1  UNL1        0.0260
     30  C         26.7280  -19.5400  -12.2020 C.2     1  UNL1        0.0080
     31  C         26.3940  -19.5770  -13.5630 C.2     1  UNL1       -0.0620
     32  C         27.1210  -18.7040  -14.5470 C.3     1  UNL1        0.0480
     33  C         25.3340  -20.3890  -13.9890 C.2     1  UNL1        0.0080
     34  C         24.6340  -21.1780  -13.0760 C.2     1  UNL1        0.0260
@<TRIPOS>BOND
     1    32    31    1
     2    33    31    2
     3    33    34    1
     4    31    30    1
     5    34    28    2
     6     5     4    2
     7     5     6    1
     8    30    29    2
     9     4     3    1
    10    28    29    1
    11    28    25    1
    12    24     6    1
    13    24    25    1
    14     6     1    2
    15     3     7    1
    16     3     2    2
    17     7     8    2
    18    25    27    1
    19    25    26    1
    20     1     2    1
    21     1    22    1
    22     8     9    1
    23    12     9    1
    24    22    23    1
    25     9    10   am
    26    10    11    2
    27    10    13    1
    28    13    14    1
    29    14    15    1
    30    21    15    2
    31    21    19    1
    32    15    16    1
    33    20    19    1
    34    19    18    2
    35    16    17    2
    36    18    17    1
