@<TRIPOS>MOLECULE
45223_out_ligand_01.pdbqt
 34 38 0 0 0
SMALL
GASTEIGER

@<TRIPOS>ATOM
      1  C         21.1320  -22.0300  -11.6260 C.2     1  UNL1        0.0510
      2  C         21.3930  -22.7610  -10.4780 C.2     1  UNL1        0.1360
      3  N         20.4430  -23.0950   -9.5650 N.2     1  UNL1       -0.2410
      4  C         19.1770  -22.6540   -9.7700 C.ar    1  UNL1        0.1490
      5  C         18.8520  -21.9000  -10.8910 C.ar    1  UNL1        0.0790
      6  C         19.8350  -21.5680  -11.8280 C.2     1  UNL1        0.0390
      7  C         17.4660  -21.4690  -11.0810 C.ar    1  UNL1        0.2630
      8  O         17.1280  -20.8320  -12.0710 O.2     1  UNL1       -0.2670
      9  N         16.5850  -21.8390  -10.1060 N.ar    1  UNL1       -0.2740
     10  C         16.8640  -22.5850   -8.9950 C.ar    1  UNL1        0.3310
     11  O         15.9510  -22.8660   -8.2210 O.2     1  UNL1       -0.2460
     12  N         18.1740  -22.9820   -8.8300 N.ar    1  UNL1       -0.2790
     13  H         15.6220  -21.5560  -10.2210 H       1  UNL1        0.1730
     14  C         22.2450  -21.7020  -12.5410 C.2     1  UNL1        0.2590
     15  N         23.4620  -22.3910  -12.4030 N.am    1  UNL1       -0.3130
     16  C         23.8390  -23.0100  -11.1230 C.3     1  UNL1        0.1330
     17  C         24.4240  -22.4790  -13.4760 C.2     1  UNL1        0.0440
     18  C         25.3040  -22.8080  -10.7870 C.3     1  UNL1        0.0250
     19  C         26.1520  -23.4470  -11.8670 C.3     1  UNL1        0.0420
     20  C         25.7180  -22.9910  -13.2360 C.2     1  UNL1       -0.0280
     21  C         26.6450  -23.1230  -14.2920 C.2     1  UNL1        0.0460
     22  C         26.3130  -22.7380  -15.5870 C.2     1  UNL1        0.0680
     23  C         25.0410  -22.2310  -15.8270 C.2     1  UNL1        0.0390
     24  C         24.1080  -22.1090  -14.7890 C.2     1  UNL1        0.0330
     25  O         22.0000  -20.8160  -13.3580 O.2     1  UNL1       -0.2670
     26  O         27.1200  -22.8130  -16.6860 O.2     1  UNL1       -0.3560
     27  C         26.6600  -22.1730  -17.8700 C.3     1  UNL1        0.2100
     28  C         18.5480  -23.7110   -7.6220 C.3     1  UNL1        0.1740
     29  C         18.5470  -22.8320   -6.3880 C.2     1  UNL1       -0.0400
     30  C         17.8120  -23.2000   -5.2510 C.2     1  UNL1        0.0090
     31  C         17.7970  -22.3810   -4.1200 C.2     1  UNL1        0.0010
     32  C         18.5120  -21.1850   -4.1150 C.2     1  UNL1        0.0000
     33  C         19.2420  -20.8060   -5.2390 C.2     1  UNL1        0.0010
     34  C         19.2590  -21.6240   -6.3710 C.2     1  UNL1        0.0090
@<TRIPOS>BOND
     1    27    26    1
     2    26    22    1
     3    23    22    2
     4    23    24    1
     5    22    21    1
     6    24    17    2
     7    21    20    2
     8    17    20    1
     9    17    15    1
    10    25    14    2
    11    20    19    1
    12    14    15   am
    13    14     1    1
    14    15    16    1
    15     8     7    2
    16    19    18    1
    17     6     1    2
    18     6     5    1
    19     1     2    1
    20    16    18    1
    21     7     5   ar
    22     7     9   ar
    23     5     4   ar
    24     2     3    2
    25    13     9    1
    26     9    10   ar
    27     4     3    1
    28     4    12   ar
    29    10    12   ar
    30    10    11    2
    31    12    28    1
    32    28    29    1
    33    29    34    2
    34    29    30    1
    35    34    33    1
    36    30    31    2
    37    33    32    2
    38    31    32    1
