@<TRIPOS>MOLECULE
45225_out_ligand_01.pdbqt
 33 35 0 0 0
SMALL
GASTEIGER

@<TRIPOS>ATOM
      1  C         18.1180  -21.8260   -3.5360 C.3     1  UNL1        0.0500
      2  C         17.9120  -22.1320   -5.0130 C.3     1  UNL1        0.2200
      3  O         17.7250  -23.5500   -5.1320 O.3     1  UNL1       -0.3010
      4  C         16.4540  -23.9460   -5.4390 C.2     1  UNL1        0.3180
      5  O         15.6040  -24.2480   -4.6130 O.2     1  UNL1       -0.2570
      6  C         16.2600  -23.9240   -6.8680 C.2     1  UNL1        0.1510
      7  C         15.3490  -24.5890   -7.6650 C.2     1  UNL1        0.0460
      8  C         15.5980  -24.1810   -8.9970 C.2     1  UNL1        0.0410
      9  C         16.6480  -23.2860   -8.9530 C.2     1  UNL1        0.0860
     10  O         17.0480  -23.1270   -7.6550 O.2     1  UNL1       -0.3040
     11  C         17.3760  -22.5090   -9.9530 C.2     1  UNL1       -0.0020
     12  C         16.8260  -21.3410  -10.5090 C.2     1  UNL1        0.0170
     13  C         17.5280  -20.6010  -11.4660 C.2     1  UNL1        0.0430
     14  C         18.7860  -21.0260  -11.8710 C.2     1  UNL1        0.1160
     15  F         19.4590  -20.3190  -12.7880 F       1  UNL1       -0.2060
     16  C         19.3540  -22.1750  -11.3390 C.2     1  UNL1        0.0430
     17  C         18.6520  -22.9140  -10.3820 C.2     1  UNL1        0.0170
     18  C         19.1490  -21.6700   -5.8040 C.2     1  UNL1        0.2510
     19  O         19.6650  -20.5780   -5.5900 O.2     1  UNL1       -0.2700
     20  N         19.6030  -22.6390   -6.6890 N.am    1  UNL1       -0.3250
     21  H         19.0410  -23.4830   -6.7360 H       1  UNL1        0.1690
     22  C         20.7160  -22.5740   -7.5470 C.2     1  UNL1        0.0340
     23  C         20.9380  -23.6740   -8.3870 C.2     1  UNL1        0.0310
     24  C         22.0180  -23.6900   -9.2730 C.2     1  UNL1        0.0270
     25  C         22.8820  -22.5950   -9.3210 C.2     1  UNL1        0.0740
     26  C         22.6860  -21.5000   -8.4800 C.2     1  UNL1        0.0270
     27  C         21.5980  -21.4900   -7.5980 C.2     1  UNL1        0.0310
     28  S         24.2590  -22.6130  -10.4380 S.O2    1  UNL1        0.2390
     29  O         24.8920  -21.3160  -10.4050 O.2     1  UNL1       -0.2060
     30  O         23.8440  -23.2460  -11.6680 O.2     1  UNL1       -0.2060
     31  N         25.2890  -23.7100   -9.6820 N.3     1  UNL1       -0.2250
     32  H         25.4570  -24.4940  -10.3160 H       1  UNL1        0.1360
     33  H         24.9480  -24.0240   -8.7730 H       1  UNL1        0.1360
@<TRIPOS>BOND
     1    15    14    1
     2    14    13    2
     3    14    16    1
     4    30    28    2
     5    13    12    1
     6    16    17    2
     7    12    11    2
     8    28    29    2
     9    28    31    1
    10    28    25    1
    11    17    11    1
    12    32    31    1
    13    11     9    1
    14    31    33    1
    15    25    24    2
    16    25    26    1
    17    24    23    1
    18     8     9    2
    19     8     7    1
    20     9    10    1
    21    26    27    2
    22    23    22    2
    23     7     6    2
    24    10     6    1
    25    27    22    1
    26    22    20    1
    27     6     4    1
    28    21    20    1
    29    20    18   am
    30    18    19    2
    31    18     2    1
    32     4     3    1
    33     4     5    2
    34     3     2    1
    35     2     1    1
