@<TRIPOS>MOLECULE
45266_out_ligand_01.pdbqt
 30 32 0 0 0
SMALL
GASTEIGER

@<TRIPOS>ATOM
      1  C         20.1550  -22.3050  -10.5950 C.2     1  UNL1        0.0310
      2  C         21.4280  -22.8890  -10.6380 C.2     1  UNL1        0.0260
      3  C         22.3500  -22.5010  -11.6100 C.2     1  UNL1        0.0190
      4  C         22.0180  -21.4960  -12.5200 C.2     1  UNL1        0.0320
      5  C         20.7460  -20.9110  -12.4850 C.2     1  UNL1        0.0250
      6  C         19.7990  -21.3180  -11.5300 C.2     1  UNL1       -0.0390
      7  C         18.4500  -20.6550  -11.5040 C.3     1  UNL1        0.0500
      8  N         19.2220  -22.6510   -9.5480 N.pl3   1  UNL1       -0.1760
      9  C         18.0040  -23.3630  -10.0030 C.3     1  UNL1        0.1360
     10  S         20.0000  -23.3470   -8.1770 S.O2    1  UNL1        0.2470
     11  O         21.1350  -22.5300   -7.8020 O.2     1  UNL1       -0.2050
     12  O         20.1470  -24.7690   -8.4260 O.2     1  UNL1       -0.2050
     13  C         18.7810  -23.1380   -6.8990 C.2     1  UNL1        0.0750
     14  C         18.7800  -21.9560   -6.1530 C.2     1  UNL1        0.0250
     15  C         17.8310  -21.7800   -5.1460 C.2     1  UNL1        0.0080
     16  C         16.8950  -22.7860   -4.8710 C.2     1  UNL1       -0.0620
     17  C         15.8560  -22.5890   -3.8060 C.3     1  UNL1        0.0480
     18  C         16.9050  -23.9640   -5.6330 C.2     1  UNL1        0.0080
     19  C         17.8510  -24.1470   -6.6420 C.2     1  UNL1        0.0250
     20  C         23.0340  -21.0700  -13.5170 C.2     1  UNL1        0.2510
     21  O         22.7440  -20.2800  -14.4070 O.2     1  UNL1       -0.2680
     22  N         24.2720  -21.6560  -13.3890 N.am    1  UNL1       -0.3530
     23  H         24.3440  -22.5040  -12.8370 H       1  UNL1        0.1630
     24  C         25.2950  -21.4110  -14.3810 C.3     1  UNL1        0.1620
     25  C         24.9000  -21.9910  -15.7050 C.2     1  UNL1       -0.0230
     26  C         24.5090  -23.3280  -15.8320 C.2     1  UNL1        0.0120
     27  C         24.1170  -23.8170  -17.0740 C.2     1  UNL1        0.0200
     28  C         24.1230  -22.9490  -18.1530 C.2     1  UNL1        0.1160
     29  N         24.4930  -21.6530  -18.0700 N.2     1  UNL1       -0.2730
     30  C         24.8730  -21.2040  -16.8530 C.2     1  UNL1        0.1240
@<TRIPOS>BOND
     1    28    29    2
     2    28    27    1
     3    29    30    1
     4    27    26    2
     5    30    25    2
     6    26    25    1
     7    25    24    1
     8    21    20    2
     9    24    22    1
    10    20    22   am
    11    20     4    1
    12    22    23    1
    13     4     5    2
    14     4     3    1
    15     5     6    1
    16     3     2    2
    17     6     7    1
    18     6     1    2
    19     2     1    1
    20     1     8    1
    21     9     8    1
    22     8    10    1
    23    12    10    2
    24    10    11    2
    25    10    13    1
    26    13    19    2
    27    13    14    1
    28    19    18    1
    29    14    15    2
    30    18    16    2
    31    15    16    1
    32    16    17    1
