@<TRIPOS>MOLECULE
45268_out_ligand_01.pdbqt
 31 34 0 0 0
SMALL
GASTEIGER

@<TRIPOS>ATOM
      1  C         18.3970  -21.6460  -11.1490 C.2     1  UNL1        0.1210
      2  N         19.5870  -21.5540  -11.7700 N.2     1  UNL1       -0.2050
      3  C         20.6580  -22.1760  -11.2490 C.cat   1  UNL1        0.2050
      4  N         20.5770  -22.8990  -10.1190 N.2     1  UNL1       -0.2300
      5  C         19.3760  -22.9860   -9.5140 C.2     1  UNL1        0.1400
      6  C         18.2310  -22.3980   -9.9980 C.2     1  UNL1        0.0890
      7  C         16.9330  -22.5140   -9.3010 C.2     1  UNL1        0.2560
      8  O         15.9440  -22.9120   -9.9110 O.2     1  UNL1       -0.2670
      9  N         16.9090  -22.1840   -7.9610 N.am    1  UNL1       -0.3520
     10  H         17.7760  -22.0870   -7.4490 H       1  UNL1        0.1630
     11  C         15.7280  -22.4110   -7.1490 C.3     1  UNL1        0.1640
     12  C         16.1120  -22.8460   -5.7640 C.2     1  UNL1       -0.0020
     13  C         17.2700  -23.6020   -5.5400 C.2     1  UNL1        0.0120
     14  C         17.6430  -23.9530   -4.2400 C.2     1  UNL1        0.0010
     15  C         16.8690  -23.5500   -3.1540 C.2     1  UNL1        0.0030
     16  C         15.7160  -22.7970   -3.3660 C.2     1  UNL1        0.0430
     17  C         15.3520  -22.4470   -4.6630 C.2     1  UNL1        0.1240
     18  F         14.2570  -21.6950   -4.8480 F       1  UNL1       -0.2050
     19  N         17.3230  -21.0030  -11.7910 N.pl3   1  UNL1       -0.2860
     20  H         17.0260  -21.5640  -12.5860 H       1  UNL1        0.1250
     21  H         16.5220  -21.0070  -11.1540 H       1  UNL1        0.1250
     22  N         21.8820  -22.1020  -11.9160 N.pl3   1  UNL1       -0.2470
     23  C         21.9080  -21.1720  -13.0420 C.3     1  UNL1        0.1030
     24  C         23.1390  -21.4450  -13.9080 C.3     1  UNL1        0.0540
     25  C         24.4050  -21.5020  -13.0940 C.2     1  UNL1       -0.0500
     26  C         25.6460  -21.2960  -13.7120 C.2     1  UNL1        0.0070
     27  C         24.3480  -21.8240  -11.7270 C.2     1  UNL1       -0.0380
     28  C         26.8250  -21.3840  -12.9720 C.2     1  UNL1        0.0010
     29  C         26.7760  -21.6890  -11.6140 C.2     1  UNL1        0.0010
     30  C         25.5450  -21.9070  -10.9950 C.2     1  UNL1        0.0090
     31  C         23.0300  -22.0460  -11.0080 C.3     1  UNL1        0.1370
@<TRIPOS>BOND
     1    24    25    1
     2    24    23    1
     3    26    25    2
     4    26    28    1
     5    25    27    1
     6    23    22    1
     7    28    29    2
     8    20    19    1
     9    22     3    1
    10    22    31    1
    11    19    21    1
    12    19     1    1
    13     2     3    2
    14     2     1    1
    15    27    31    1
    16    27    30    2
    17    29    30    1
    18     3     4    1
    19     1     6    2
    20     4     5    2
    21     6     5    1
    22     6     7    1
    23     8     7    2
    24     7     9   am
    25     9    10    1
    26     9    11    1
    27    11    12    1
    28    12    13    2
    29    12    17    1
    30    13    14    1
    31    18    17    1
    32    17    16    2
    33    14    15    2
    34    16    15    1
