@<TRIPOS>MOLECULE
4531_out_ligand_01.pdbqt
 35 39 0 0 0
SMALL
GASTEIGER

@<TRIPOS>ATOM
      1  C         23.5500  -22.0000  -12.9460 C.2     1  UNL1        0.0320
      2  C         22.3920  -21.3240  -13.3440 C.2     1  UNL1        0.0180
      3  C         21.2320  -21.3960  -12.5610 C.2     1  UNL1        0.0150
      4  C         21.2110  -22.1480  -11.3760 C.2     1  UNL1       -0.0080
      5  C         22.3710  -22.8370  -10.9980 C.2     1  UNL1        0.0150
      6  C         23.5310  -22.7670  -11.7770 C.2     1  UNL1        0.0180
      7  C         20.0060  -22.2320  -10.5540 C.2     1  UNL1        0.0620
      8  C         19.7670  -22.8320   -9.3320 C.2     1  UNL1        0.0660
      9  C         18.4050  -22.5780   -9.0240 C.2     1  UNL1        0.0900
     10  N         17.8300  -21.8460   -9.9880 N.2     1  UNL1       -0.1740
     11  N         18.8110  -21.6450  -10.8800 N.pl3   1  UNL1       -0.2770
     12  H         18.5990  -21.0800  -11.6930 H       1  UNL1        0.1890
     13  C         17.6820  -22.9980   -7.8250 C.2     1  UNL1        0.0050
     14  C         16.6930  -23.9850   -7.9800 C.2     1  UNL1        0.0150
     15  C         15.9540  -24.4250   -6.8870 C.2     1  UNL1        0.0020
     16  C         16.1930  -23.8810   -5.6280 C.2     1  UNL1        0.0120
     17  C         17.1710  -22.8910   -5.4410 C.2     1  UNL1       -0.0250
     18  C         17.3890  -22.3540   -4.1610 C.2     1  UNL1        0.0120
     19  C         17.9370  -22.4320   -6.5440 C.2     1  UNL1       -0.0130
     20  C         18.3490  -21.3660   -3.9490 C.2     1  UNL1        0.0010
     21  C         19.1050  -20.9010   -5.0150 C.2     1  UNL1        0.0010
     22  C         18.9020  -21.4260   -6.2930 C.2     1  UNL1        0.0130
     23  C         24.8070  -21.9580  -13.7450 C.2     1  UNL1        0.2510
     24  O         25.8920  -22.0940  -13.1900 O.2     1  UNL1       -0.2680
     25  N         24.6660  -21.7240  -15.0960 N.am    1  UNL1       -0.3530
     26  H         23.7780  -21.3930  -15.4450 H       1  UNL1        0.1630
     27  C         25.8180  -21.5330  -15.9480 C.3     1  UNL1        0.1610
     28  C         26.0520  -20.0670  -16.2090 C.2     1  UNL1       -0.0370
     29  C         25.8130  -19.5150  -17.4800 C.2     1  UNL1        0.0120
     30  C         26.0100  -18.1500  -17.7070 C.2     1  UNL1        0.0460
     31  C         26.4420  -17.3340  -16.6680 C.2     1  UNL1        0.1540
     32  F         26.6270  -16.0260  -16.8930 F       1  UNL1       -0.2030
     33  C         26.6750  -17.8670  -15.4060 C.2     1  UNL1        0.1550
     34  F         27.0850  -17.0760  -14.4050 F       1  UNL1       -0.2030
     35  C         26.4820  -19.2250  -15.1690 C.2     1  UNL1        0.0540
@<TRIPOS>BOND
     1    30    29    1
     2    30    31    2
     3    29    28    2
     4    32    31    1
     5    31    33    1
     6    28    27    1
     7    28    35    1
     8    27    25    1
     9    26    25    1
    10    33    35    2
    11    33    34    1
    12    25    23   am
    13    23    24    2
    14    23     1    1
    15     2     1    2
    16     2     3    1
    17     1     6    1
    18     3     4    2
    19     6     5    2
    20    12    11    1
    21     4     5    1
    22     4     7    1
    23    11     7    1
    24    11    10    1
    25     7     8    2
    26    10     9    2
    27     8     9    1
    28     9    13    1
    29    14    13    2
    30    14    15    1
    31    13    19    1
    32    15    16    2
    33    19    22    1
    34    19    17    2
    35    22    21    2
    36    16    17    1
    37    17    18    1
    38    21    20    1
    39    18    20    2
