@<TRIPOS>MOLECULE
45329_out_ligand_01.pdbqt
 28 31 0 0 0
SMALL
GASTEIGER

@<TRIPOS>ATOM
      1  N         21.5980  -22.1060  -10.0980 N.am    1  UNL1       -0.3210
      2  C         21.2930  -23.2060   -9.3150 C.2     1  UNL1        0.2800
      3  O         21.9970  -24.1980   -9.1720 O.2     1  UNL1       -0.2650
      4  H         20.8790  -21.3910  -10.1140 H       1  UNL1        0.1690
      5  C         20.0040  -23.0790   -8.6580 C.2     1  UNL1        0.1440
      6  C         19.6800  -22.8570   -7.3330 C.2     1  UNL1        0.0580
      7  C         18.2600  -22.8220   -7.2470 C.2     1  UNL1        0.0120
      8  C         17.8080  -23.0280   -8.5450 C.2     1  UNL1        0.0870
      9  C         17.2950  -22.6390   -6.2190 C.2     1  UNL1       -0.0130
     10  C         16.4670  -23.0690   -8.9140 C.2     1  UNL1        0.0390
     11  O         18.8560  -23.1840   -9.4010 O.2     1  UNL1       -0.3040
     12  C         15.5270  -22.8880   -7.8930 C.2     1  UNL1        0.0150
     13  C         15.9170  -22.6760   -6.5600 C.2     1  UNL1       -0.0250
     14  C         14.9690  -22.4950   -5.5420 C.2     1  UNL1        0.0120
     15  C         15.3690  -22.2840   -4.2190 C.2     1  UNL1        0.0010
     16  C         16.7230  -22.2500   -3.8900 C.2     1  UNL1        0.0010
     17  C         17.6880  -22.4260   -4.8820 C.2     1  UNL1        0.0130
     18  C         22.7540  -21.8700  -10.8660 C.2     1  UNL1        0.0360
     19  C         23.9430  -21.6350  -10.1620 C.2     1  UNL1        0.0290
     20  C         25.1410  -21.3930  -10.8380 C.2     1  UNL1        0.0030
     21  C         25.1620  -21.3790  -12.2310 C.2     1  UNL1        0.0170
     22  C         23.9790  -21.6060  -12.9460 C.2     1  UNL1        0.0340
     23  C         22.7800  -21.8620  -12.2630 C.2     1  UNL1        0.0460
     24  C         23.9660  -21.6110  -14.4320 C.2     1  UNL1        0.2490
     25  N         23.3210  -20.5740  -15.0530 N.am    1  UNL1       -0.3660
     26  H         22.6460  -20.0050  -14.5630 H       1  UNL1        0.1590
     27  H         23.2030  -20.6770  -16.0520 H       1  UNL1        0.1590
     28  O         24.4760  -22.5100  -15.0850 O.2     1  UNL1       -0.2680
@<TRIPOS>BOND
     1    27    25    1
     2    28    24    2
     3    25    26    1
     4    25    24   am
     5    24    22    1
     6    22    23    1
     7    22    21    2
     8    23    18    2
     9    21    20    1
    10    18    19    1
    11    18     1    1
    12    20    19    2
    13     4     1    1
    14     1     2   am
    15    11     5    1
    16    11     8    1
    17     2     3    2
    18     2     5    1
    19    10     8    1
    20    10    12    2
    21     5     6    2
    22     8     7    2
    23    12    13    1
    24     6     7    1
    25     7     9    1
    26    13     9    2
    27    13    14    1
    28     9    17    1
    29    14    15    2
    30    17    16    2
    31    15    16    1
