@<TRIPOS>MOLECULE
45324_out_ligand_01.pdbqt
 31 33 0 0 0
SMALL
GASTEIGER

@<TRIPOS>ATOM
      1  C         17.5650  -23.4720   -8.6820 C.2     1  UNL1        0.1190
      2  C         18.9610  -23.5760   -8.6250 C.2     1  UNL1        0.0450
      3  C         19.7480  -22.9310   -9.5880 C.2     1  UNL1        0.0330
      4  C         19.1340  -22.1810  -10.6000 C.2     1  UNL1        0.0200
      5  C         17.7410  -22.0710  -10.6360 C.2     1  UNL1        0.0450
      6  C         16.9610  -22.7120   -9.6750 C.2     1  UNL1        0.1390
      7  F         15.6320  -22.5870   -9.7650 F       1  UNL1       -0.2040
      8  S         16.5940  -24.2870   -7.4530 S.O2    1  UNL1        0.2660
      9  O         15.4140  -24.7990   -8.1220 O.2     1  UNL1       -0.2000
     10  O         17.4320  -25.1730   -6.6770 O.2     1  UNL1       -0.2000
     11  N         16.0460  -23.0220   -6.4810 N.pl3   1  UNL1       -0.2800
     12  H         15.3970  -22.4090   -6.9700 H       1  UNL1        0.1790
     13  C         16.8880  -22.4630   -5.4760 C.2     1  UNL1        0.0490
     14  C         16.6530  -22.7520   -4.1210 C.2     1  UNL1       -0.0350
     15  C         17.4820  -22.1630   -3.1530 C.2     1  UNL1        0.0090
     16  C         15.5500  -23.6700   -3.6750 C.3     1  UNL1        0.0500
     17  C         18.5240  -21.3110   -3.5240 C.2     1  UNL1        0.0070
     18  C         18.7730  -21.0450   -4.8720 C.2     1  UNL1       -0.0600
     19  C         19.8730  -20.1090   -5.2780 C.3     1  UNL1        0.0480
     20  C         17.9440  -21.6220   -5.8420 C.2     1  UNL1        0.0370
     21  C         21.2240  -23.1030   -9.5200 C.2     1  UNL1        0.2520
     22  O         21.6940  -24.1830   -9.1860 O.2     1  UNL1       -0.2680
     23  N         21.9820  -21.9950   -9.8210 N.am    1  UNL1       -0.3510
     24  H         21.5460  -21.0830   -9.7950 H       1  UNL1        0.1630
     25  C         23.4140  -21.9940   -9.5880 C.3     1  UNL1        0.1820
     26  C         24.1690  -21.6600  -10.8520 C.2     1  UNL1        0.0510
     27  C         23.7070  -22.1060  -12.0880 C.2     1  UNL1        0.0290
     28  C         24.4500  -21.8150  -13.2280 C.2     1  UNL1        0.0030
     29  C         25.6310  -21.0950  -13.1050 C.2     1  UNL1        0.0190
     30  C         26.0300  -20.7010  -11.8390 C.2     1  UNL1        0.1170
     31  N         25.3350  -20.9730  -10.7120 N.2     1  UNL1       -0.2640
@<TRIPOS>BOND
     1    28    29    2
     2    28    27    1
     3    29    30    1
     4    27    26    2
     5    30    31    2
     6    26    31    1
     7    26    25    1
     8     5     4    2
     9     5     6    1
    10     4     3    1
    11    23    24    1
    12    23    25    1
    13    23    21   am
    14     7     6    1
    15     6     1    2
    16     3    21    1
    17     3     2    2
    18    21    22    2
    19     1     2    1
    20     1     8    1
    21     9     8    2
    22     8    10    2
    23     8    11    1
    24    12    11    1
    25    11    13    1
    26    20    13    2
    27    20    18    1
    28    13    14    1
    29    19    18    1
    30    18    17    2
    31    14    16    1
    32    14    15    2
    33    17    15    1
