@<TRIPOS>MOLECULE
45341_out_ligand_01.pdbqt
 34 37 0 0 0
SMALL
GASTEIGER

@<TRIPOS>ATOM
      1  C         27.1210  -23.6160  -10.7440 C.3     1  UNL1        0.0730
      2  C         26.3030  -23.1860  -11.9240 C.2     1  UNL1        0.0650
      3  N         26.8760  -23.2850  -13.1420 N.2     1  UNL1       -0.2620
      4  C         26.1410  -22.8940  -14.2160 C.2     1  UNL1        0.1270
      5  C         24.8380  -22.4000  -14.1500 C.3     1  UNL1       -0.0040
      6  C         24.2560  -22.3160  -12.8730 C.2     1  UNL1        0.0110
      7  C         22.8940  -21.8440  -12.6230 C.2     1  UNL1        0.0360
      8  C         22.3760  -21.7620  -11.3820 C.2     1  UNL1        0.0860
      9  C         23.2040  -22.1310  -10.2130 C.2     1  UNL1        0.1860
     10  O         24.4740  -22.6240  -10.4660 O.2     1  UNL1       -0.2880
     11  C         25.0050  -22.7100  -11.7680 C.2     1  UNL1        0.1130
     12  C         20.9530  -21.2720  -11.2830 C.2     1  UNL1        0.2600
     13  O         20.7050  -20.0740  -11.4150 O.2     1  UNL1       -0.2670
     14  N         20.0190  -22.2510  -11.0080 N.am    1  UNL1       -0.3230
     15  H         20.3880  -23.1860  -10.8230 H       1  UNL1        0.1690
     16  C         18.6270  -22.1010  -10.8620 C.2     1  UNL1        0.0380
     17  C         17.9070  -20.9920  -11.3240 C.2     1  UNL1        0.0320
     18  C         16.5210  -20.9170  -11.1400 C.2     1  UNL1        0.0480
     19  C         15.8560  -21.9490  -10.4870 C.2     1  UNL1        0.1540
     20  F         14.5280  -21.8760  -10.3090 F       1  UNL1       -0.2030
     21  C         16.5640  -23.0480  -10.0240 C.2     1  UNL1        0.1570
     22  F         15.9270  -24.0440   -9.3990 F       1  UNL1       -0.2030
     23  C         17.9400  -23.1350  -10.2100 C.2     1  UNL1        0.0750
     24  N         22.7760  -21.9990   -8.9910 N.pl3   1  UNL1       -0.2240
     25  C         21.7190  -22.8210   -8.5790 C.2     1  UNL1        0.0610
     26  C         21.6320  -24.1450   -9.0190 C.2     1  UNL1        0.0320
     27  C         20.5750  -24.9570   -8.6080 C.2     1  UNL1        0.0040
     28  C         19.5920  -24.4450   -7.7640 C.2     1  UNL1        0.0190
     29  C         19.6670  -23.1190   -7.3430 C.2     1  UNL1        0.0130
     30 BR         18.3260  -22.4200   -6.2080 Br      1  UNL1       -0.0510
     31  C         20.7200  -22.3040   -7.7500 C.2     1  UNL1        0.0500
     32  C         24.1070  -21.9790  -15.3950 C.3     1  UNL1        0.2050
     33  O         24.1310  -20.5690  -15.5820 O.3     1  UNL1       -0.3960
     34  H         23.2320  -20.3010  -15.8350 H       1  UNL1        0.2090
@<TRIPOS>BOND
     1    34    33    1
     2    33    32    1
     3    32     5    1
     4     4     5    1
     5     4     3    2
     6     5     6    1
     7     3     2    1
     8     6     7    2
     9     6    11    1
    10     7     8    1
    11     2    11    2
    12     2     1    1
    13    11    10    1
    14    13    12    2
    15     8    12    1
    16     8     9    2
    17    17    18    1
    18    17    16    2
    19    12    14   am
    20    18    19    2
    21    14    16    1
    22    14    15    1
    23    16    23    1
    24    19    20    1
    25    19    21    1
    26    10     9    1
    27     9    24    1
    28    23    21    2
    29    21    22    1
    30    26    27    1
    31    26    25    2
    32    24    25    1
    33    27    28    2
    34    25    31    1
    35    28    29    1
    36    31    29    2
    37    29    30    1
