@<TRIPOS>MOLECULE
45357_out_ligand_01.pdbqt
 28 30 0 0 0
SMALL
GASTEIGER

@<TRIPOS>ATOM
      1  C         20.2190  -23.3110   -8.7700 C.2     1  UNL1        0.2580
      2  O         20.0720  -24.5140   -8.5950 O.2     1  UNL1       -0.2670
      3  N         19.5500  -22.2610   -8.1760 N.am    1  UNL1       -0.3230
      4  H         19.8020  -21.3280   -8.4790 H       1  UNL1        0.1690
      5  C         21.2820  -22.8910   -9.7140 C.2     1  UNL1        0.0610
      6  C         22.5790  -23.3250   -9.4210 C.2     1  UNL1        0.0200
      7  C         23.5950  -23.1400  -10.3510 C.2     1  UNL1        0.0080
      8  C         23.3410  -22.5170  -11.5820 C.2     1  UNL1       -0.0540
      9  C         24.4960  -22.3560  -12.5390 C.3     1  UNL1        0.0490
     10  C         22.0410  -22.0260  -11.8790 C.2     1  UNL1       -0.0270
     11  C         20.9970  -22.2560  -10.9400 C.2     1  UNL1        0.0770
     12  C         21.8290  -21.2470  -13.1570 C.3     1  UNL1        0.0510
     13  N         19.6670  -21.8340  -11.1830 N.pl3   1  UNL1       -0.2330
     14  C         19.1770  -20.5830  -11.4580 C.2     1  UNL1        0.2490
     15  N         17.8650  -20.6230  -11.4880 N.2     1  UNL1       -0.1560
     16  N         17.5300  -21.9310  -11.2520 N.2     1  UNL1        0.0170
     17  N         18.6120  -22.6750  -11.0710 N.2     1  UNL1        0.0020
     18  C         18.5020  -22.3430   -7.2380 C.2     1  UNL1        0.0350
     19  C         17.1710  -22.5910   -7.5780 C.2     1  UNL1        0.0300
     20  C         16.1800  -22.6610   -6.5880 C.2     1  UNL1        0.0190
     21  C         16.5170  -22.4920   -5.2410 C.2     1  UNL1        0.0320
     22  C         17.8470  -22.2270   -4.8990 C.2     1  UNL1        0.0190
     23  C         18.8310  -22.1550   -5.8910 C.2     1  UNL1        0.0300
     24  C         15.5080  -22.5590   -4.1490 C.2     1  UNL1        0.2490
     25  N         15.7040  -23.4780   -3.1560 N.am    1  UNL1       -0.3660
     26  H         15.0680  -23.4230   -2.3710 H       1  UNL1        0.1590
     27  H         16.5890  -23.9390   -3.0060 H       1  UNL1        0.1590
     28  O         14.5500  -21.7970   -4.1110 O.2     1  UNL1       -0.2680
@<TRIPOS>BOND
     1    12    10    1
     2     9     8    1
     3    10     8    2
     4    10    11    1
     5     8     7    1
     6    15    14    2
     7    15    16    1
     8    14    13    1
     9    16    17    2
    10    13    17    1
    11    13    11    1
    12    11     5    2
    13     7     6    2
    14     5     6    1
    15     5     1    1
    16     1     2    2
    17     1     3   am
    18     4     3    1
    19     3    18    1
    20    19    18    2
    21    19    20    1
    22    18    23    1
    23    20    21    2
    24    23    22    2
    25    21    22    1
    26    21    24    1
    27    24    28    2
    28    24    25   am
    29    25    27    1
    30    25    26    1
