@<TRIPOS>MOLECULE
45358_out_ligand_01.pdbqt
 32 35 0 0 0
SMALL
GASTEIGER

@<TRIPOS>ATOM
      1  C         21.6390  -23.4790   -9.3580 C.2     1  UNL1        0.0970
      2  C         23.0230  -23.6630   -9.1510 C.3     1  UNL1        0.1600
      3  N         23.7730  -23.0590  -10.0670 N.3     1  UNL1       -0.1770
      4  N         22.8810  -22.5570  -10.9660 N.pl3   1  UNL1       -0.2160
      5  C         21.5830  -22.6500  -10.4710 C.2     1  UNL1        0.1530
      6  C         20.5770  -23.9290   -8.4700 C.2     1  UNL1        0.2610
      7  N         19.9970  -22.8850   -7.7710 N.am    1  UNL1       -0.3230
      8  H         20.4150  -21.9720   -7.8930 H       1  UNL1        0.1690
      9  O         20.2750  -25.1110   -8.3870 O.2     1  UNL1       -0.2670
     10  C         18.9270  -22.9540   -6.8560 C.2     1  UNL1        0.0350
     11  C         18.8360  -21.9300   -5.9030 C.2     1  UNL1        0.0300
     12  C         17.8040  -21.9190   -4.9550 C.2     1  UNL1        0.0190
     13  C         16.8490  -22.9390   -4.9510 C.2     1  UNL1        0.0320
     14  C         16.9250  -23.9520   -5.9120 C.2     1  UNL1        0.0190
     15  C         17.9600  -23.9620   -6.8550 C.2     1  UNL1        0.0300
     16  C         15.7290  -22.9720   -3.9720 C.2     1  UNL1        0.2490
     17  N         15.6400  -24.0630   -3.1530 N.am    1  UNL1       -0.3660
     18  H         16.1040  -24.9340   -3.3710 H       1  UNL1        0.1590
     19  H         14.7950  -24.1190   -2.5970 H       1  UNL1        0.1590
     20  O         14.8960  -22.0780   -3.9160 O.2     1  UNL1       -0.2680
     21  N         20.4740  -21.9830  -10.9980 N.pl3   1  UNL1       -0.3170
     22  C         20.3880  -20.6310  -11.2870 C.2     1  UNL1        0.0980
     23  C         19.1420  -20.3460  -11.7980 C.2     1  UNL1        0.0190
     24  C         18.4160  -21.5510  -11.8110 C.2     1  UNL1        0.0190
     25  C         19.2430  -22.5290  -11.3050 C.2     1  UNL1        0.0980
     26  C         23.3720  -22.1940  -12.2580 C.2     1  UNL1        0.0600
     27  C         22.6110  -21.4240  -13.1490 C.2     1  UNL1        0.0330
     28  C         23.1150  -21.1110  -14.4160 C.2     1  UNL1        0.0210
     29  C         24.3700  -21.5780  -14.8020 C.2     1  UNL1        0.0110
     30 BR         25.0450  -21.1510  -16.5140 Br      1  UNL1       -0.0510
     31  C         25.1230  -22.3680  -13.9380 C.2     1  UNL1        0.0210
     32  C         24.6220  -22.6840  -12.6720 C.2     1  UNL1        0.0330
@<TRIPOS>BOND
     1    30    29    1
     2    29    28    2
     3    29    31    1
     4    28    27    1
     5    31    32    2
     6    27    26    2
     7    32    26    1
     8    26     4    1
     9    24    23    1
    10    24    25    2
    11    23    22    2
    12    25    21    1
    13    22    21    1
    14    21     5    1
    15     4     5    1
    16     4     3    1
    17     5     1    2
    18     3     2    1
    19     1     2    1
    20     1     6    1
    21     6     9    2
    22     6     7   am
    23     8     7    1
    24     7    10    1
    25    10    15    2
    26    10    11    1
    27    15    14    1
    28    14    13    2
    29    11    12    2
    30    12    13    1
    31    13    16    1
    32    16    20    2
    33    16    17   am
    34    18    17    1
    35    17    19    1
