@<TRIPOS>MOLECULE
45366_out_ligand_01.pdbqt
 33 36 0 0 0
SMALL
GASTEIGER

@<TRIPOS>ATOM
      1  N         22.0650  -22.4920   -8.9840 N.am    1  UNL1       -0.2250
      2  N         20.7180  -22.2010   -8.9820 N.2     1  UNL1       -0.1690
      3  C         19.8900  -23.1960   -8.9250 C.2     1  UNL1        0.0880
      4  C         20.2840  -24.6180   -8.8440 C.2     1  UNL1        0.0400
      5  C         21.5920  -24.8760   -8.8520 C.2     1  UNL1        0.0780
      6  C         22.5760  -23.7780   -8.9230 C.2     1  UNL1        0.2640
      7  O         23.7780  -24.0380   -8.8890 O.2     1  UNL1       -0.2670
      8  C         22.9720  -21.3520   -9.0990 C.3     1  UNL1        0.2570
      9  C         23.8640  -21.4470  -10.3400 C.2     1  UNL1        0.2420
     10  N         23.2290  -22.0300  -11.4280 N.am    1  UNL1       -0.3260
     11  H         22.2690  -22.3430  -11.2700 H       1  UNL1        0.1690
     12  O         25.0000  -20.9790  -10.3390 O.2     1  UNL1       -0.2710
     13  C         23.7470  -22.2580  -12.7170 C.2     1  UNL1        0.0340
     14  C         24.6570  -23.2680  -13.0280 C.2     1  UNL1        0.0300
     15  C         25.1230  -23.4300  -14.3400 C.2     1  UNL1        0.0190
     16  C         24.6730  -22.5830  -15.3580 C.2     1  UNL1        0.0320
     17  C         23.7720  -21.5610  -15.0470 C.2     1  UNL1        0.0190
     18  C         23.3100  -21.4030  -13.7350 C.2     1  UNL1        0.0300
     19  C         25.1340  -22.7150  -16.7670 C.2     1  UNL1        0.2490
     20  N         24.3830  -22.1140  -17.7380 N.am    1  UNL1       -0.3660
     21  H         24.7840  -22.1140  -18.6680 H       1  UNL1        0.1590
     22  H         23.6980  -21.4010  -17.5300 H       1  UNL1        0.1590
     23  O         26.1660  -23.3070  -17.0540 O.2     1  UNL1       -0.2680
     24  C         18.4340  -22.9330   -8.8950 C.2     1  UNL1        0.0050
     25  C         17.8360  -22.6330  -10.1280 C.2     1  UNL1        0.0150
     26  C         16.4840  -22.3210  -10.1800 C.2     1  UNL1        0.0020
     27  C         15.7300  -22.3120   -9.0070 C.2     1  UNL1        0.0120
     28  C         16.3080  -22.6330   -7.7660 C.2     1  UNL1       -0.0250
     29  C         15.5250  -22.6360   -6.6000 C.2     1  UNL1        0.0120
     30  C         17.6830  -22.9640   -7.6920 C.2     1  UNL1       -0.0130
     31  C         16.0760  -22.9740   -5.3650 C.2     1  UNL1        0.0010
     32  C         17.4170  -23.3240   -5.2790 C.2     1  UNL1        0.0010
     33  C         18.2100  -23.3240   -6.4270 C.2     1  UNL1        0.0130
@<TRIPOS>BOND
     1    21    20    1
     2    20    22    1
     3    20    19   am
     4    23    19    2
     5    19    16    1
     6    16    17    2
     7    16    15    1
     8    17    18    1
     9    15    14    2
    10    18    13    2
    11    14    13    1
    12    13    10    1
    13    10    11    1
    14    10     9   am
    15     9    12    2
    16     9     8    1
    17    26    25    1
    18    26    27    2
    19    25    24    2
    20     8     1    1
    21    27    28    1
    22     1     2    1
    23     1     6   am
    24     2     3    2
    25     3    24    1
    26     3     4    1
    27     6     7    2
    28     6     5    1
    29    24    30    1
    30     5     4    2
    31    28    30    2
    32    28    29    1
    33    30    33    1
    34    29    31    2
    35    33    32    2
    36    31    32    1
