@<TRIPOS>MOLECULE
45368_out_ligand_01.pdbqt
 26 29 0 0 0
SMALL
GASTEIGER

@<TRIPOS>ATOM
      1  C         20.0990  -22.5300   -7.4800 C.2     1  UNL1        0.0320
      2  C         19.9570  -23.6780   -8.2750 C.2     1  UNL1        0.0200
      3  C         20.9820  -24.0580   -9.1420 C.2     1  UNL1        0.0380
      4  C         22.1510  -23.2990   -9.1880 C.2     1  UNL1        0.0780
      5  C         22.3110  -22.1570   -8.4070 C.2     1  UNL1        0.0380
      6  C         21.2840  -21.7790   -7.5410 C.2     1  UNL1        0.0200
      7  C         19.0330  -22.0880   -6.5370 C.2     1  UNL1        0.2560
      8  O         19.2680  -21.1510   -5.7860 O.2     1  UNL1       -0.2670
      9  N         17.8380  -22.7770   -6.6370 N.am    1  UNL1       -0.3220
     10  H         17.7450  -23.4430   -7.3930 H       1  UNL1        0.1690
     11  C         16.6870  -22.5800   -5.8440 C.2     1  UNL1        0.0520
     12  C         15.4770  -22.3460   -6.5030 C.2     1  UNL1        0.0320
     13  C         14.3090  -22.1500   -5.7690 C.2     1  UNL1        0.0210
     14  C         14.3850  -22.1980   -4.3880 C.2     1  UNL1        0.1160
     15  N         15.5290  -22.4250   -3.7130 N.2     1  UNL1       -0.2710
     16  C         16.6550  -22.6120   -4.4530 C.2     1  UNL1        0.1450
     17  O         23.1690  -23.6540  -10.0800 O.2     1  UNL1       -0.2910
     18  C         23.2220  -22.9030  -11.2430 C.2     1  UNL1        0.1890
     19  C         21.8610  -22.3740  -11.5020 C.2     1  UNL1        0.0640
     20  C         21.7110  -21.6180  -12.5980 C.2     1  UNL1        0.0590
     21  C         22.8310  -21.3750  -13.4200 C.2     1  UNL1        0.1740
     22  N         22.9930  -20.6930  -14.5330 N.2     1  UNL1       -0.1290
     23  N         24.0370  -21.9340  -13.0420 N.pl3   1  UNL1       -0.2030
     24  N         24.3200  -20.7960  -14.9000 N.2     1  UNL1       -0.1410
     25  C         24.9260  -21.5380  -13.9990 C.2     1  UNL1        0.2610
     26  N         24.2870  -22.7170  -11.9530 N.2     1  UNL1       -0.1390
@<TRIPOS>BOND
     1    24    22    1
     2    24    25    2
     3    22    21    2
     4    25    23    1
     5    21    23    1
     6    21    20    1
     7    23    26    1
     8    20    19    2
     9    26    18    2
    10    19    18    1
    11    18    17    1
    12    17     4    1
    13     4     3    2
    14     4     5    1
    15     3     2    1
    16     5     6    2
    17     2     1    2
    18     6     1    1
    19     1     7    1
    20    10     9    1
    21     9     7   am
    22     9    11    1
    23     7     8    2
    24    12    11    2
    25    12    13    1
    26    11    16    1
    27    13    14    2
    28    16    15    2
    29    14    15    1
