@<TRIPOS>MOLECULE
45360_out_ligand_01.pdbqt
 28 31 0 0 0
SMALL
GASTEIGER

@<TRIPOS>ATOM
      1  C         21.1050  -22.7900   -9.2110 C.2     1  UNL1        0.0320
      2  C         20.9040  -22.7090  -10.5970 C.2     1  UNL1        0.0200
      3  C         21.9270  -22.2540  -11.4300 C.2     1  UNL1        0.0380
      4  C         23.1490  -21.8910  -10.8670 C.2     1  UNL1        0.0780
      5  C         23.3570  -21.9340   -9.4890 C.2     1  UNL1        0.0380
      6  C         22.3320  -22.3880   -8.6570 C.2     1  UNL1        0.0200
      7  C         19.9780  -23.2630   -8.3600 C.2     1  UNL1        0.2520
      8  O         19.7360  -24.4610   -8.2740 O.2     1  UNL1       -0.2680
      9  N         19.2730  -22.2870   -7.6830 N.am    1  UNL1       -0.3520
     10  H         19.6950  -21.3720   -7.5910 H       1  UNL1        0.1630
     11  C         18.2120  -22.6380   -6.7330 C.3     1  UNL1        0.0840
     12  C         18.2420  -21.6580   -5.5450 C.3     1  UNL1        0.0250
     13  C         18.0750  -22.3020   -4.1680 C.3     1  UNL1        0.0020
     14  C         16.9990  -23.3720   -4.0090 C.3     1  UNL1        0.0000
     15  C         15.5590  -22.9100   -4.2020 C.3     1  UNL1        0.0000
     16  C         15.1590  -22.3940   -5.5840 C.3     1  UNL1        0.0000
     17  C         15.6630  -23.2250   -6.7620 C.3     1  UNL1        0.0020
     18  C         16.8740  -22.6350   -7.4940 C.3     1  UNL1        0.0250
     19  O         24.1700  -21.3740  -11.6730 O.2     1  UNL1       -0.2910
     20  C         24.4880  -22.1090  -12.8040 C.2     1  UNL1        0.1890
     21  C         25.1700  -23.3470  -12.3570 C.2     1  UNL1        0.0640
     22  C         25.5600  -24.1970  -13.3180 C.2     1  UNL1        0.0590
     23  C         25.3040  -23.8680  -14.6660 C.2     1  UNL1        0.1740
     24  N         25.5630  -24.4800  -15.8010 N.2     1  UNL1       -0.1290
     25  N         24.6560  -22.6750  -14.9220 N.pl3   1  UNL1       -0.2030
     26  N         25.0930  -23.6830  -16.8260 N.2     1  UNL1       -0.1410
     27  C         24.5540  -22.6130  -16.2820 C.2     1  UNL1        0.2610
     28  N         24.2190  -21.7520  -14.0180 N.2     1  UNL1       -0.1390
@<TRIPOS>BOND
     1    26    27    2
     2    26    24    1
     3    27    25    1
     4    24    23    2
     5    25    23    1
     6    25    28    1
     7    23    22    1
     8    28    20    2
     9    22    21    2
    10    20    21    1
    11    20    19    1
    12    19     4    1
    13     3     4    2
    14     3     2    1
    15     4     5    1
    16     2     1    2
    17     5     6    2
    18     1     6    1
    19     1     7    1
    20     7     8    2
    21     7     9   am
    22     9    10    1
    23     9    11    1
    24    18    17    1
    25    18    11    1
    26    17    16    1
    27    11    12    1
    28    16    15    1
    29    12    13    1
    30    15    14    1
    31    13    14    1
