@<TRIPOS>MOLECULE
45374_out_ligand_01.pdbqt
 28 31 0 0 0
SMALL
GASTEIGER

@<TRIPOS>ATOM
      1  C         20.1940  -21.9700  -11.2580 C.2     1  UNL1        0.0330
      2  C         19.0480  -21.3290  -11.7910 C.2     1  UNL1        0.0180
      3  C         17.7800  -21.5590  -11.2420 C.2     1  UNL1        0.0190
      4  C         17.7020  -22.4230  -10.1660 C.2     1  UNL1        0.0480
      5  C         18.8230  -23.0370   -9.6350 C.2     1  UNL1        0.0490
      6  C         20.0860  -22.8280  -10.1540 C.2     1  UNL1        0.0350
      7  C         18.3810  -23.8690   -8.5170 C.2     1  UNL1        0.2620
      8  O         19.1260  -24.5460   -7.8360 O.2     1  UNL1       -0.2670
      9  N         17.0260  -23.7130   -8.4310 N.am    1  UNL1       -0.2760
     10  C         16.5460  -22.8600   -9.3850 C.2     1  UNL1        0.2620
     11  O         15.4060  -22.4940   -9.5990 O.2     1  UNL1       -0.2670
     12  C         21.5500  -21.7250  -11.8250 C.2     1  UNL1        0.2560
     13  N         22.5890  -22.3140  -11.1300 N.am    1  UNL1       -0.3200
     14  H         22.3970  -22.7920  -10.2600 H       1  UNL1        0.1690
     15  O         21.6370  -21.0160  -12.8200 O.2     1  UNL1       -0.2670
     16  C         23.9230  -22.2340  -11.4870 C.2     1  UNL1        0.0710
     17  C         24.5900  -22.8970  -12.4880 C.2     1  UNL1        0.1420
     18  N         25.8860  -22.4750  -12.4320 N.pl3   1  UNL1       -0.2830
     19  C         26.9690  -22.8870  -13.2900 C.3     1  UNL1        0.1790
     20  N         26.1170  -21.5790  -11.4520 N.2     1  UNL1       -0.1830
     21  C         24.9190  -21.4330  -10.8800 C.2     1  UNL1        0.1690
     22  C         16.1920  -24.4160   -7.4830 C.3     1  UNL1        0.1740
     23  C         16.0960  -23.6680   -6.1740 C.2     1  UNL1       -0.0400
     24  C         14.9680  -22.8860   -5.8820 C.2     1  UNL1        0.0090
     25  C         14.8710  -22.2140   -4.6630 C.2     1  UNL1        0.0010
     26  C         15.8930  -22.3230   -3.7220 C.2     1  UNL1        0.0000
     27  C         17.0130  -23.1070   -3.9970 C.2     1  UNL1        0.0010
     28  C         17.1120  -23.7800   -5.2150 C.2     1  UNL1        0.0090
@<TRIPOS>BOND
     1    19    18    1
     2    15    12    2
     3    17    18    1
     4    17    16    2
     5    18    20    1
     6    12     1    1
     7    12    13   am
     8     2     1    2
     9     2     3    1
    10    16    13    1
    11    16    21    1
    12    20    21    2
    13     1     6    1
    14     3     4    2
    15    13    14    1
    16     4     5    1
    17     4    10    1
    18     6     5    2
    19     5     7    1
    20    11    10    2
    21    10     9   am
    22     7     9   am
    23     7     8    2
    24     9    22    1
    25    22    23    1
    26    23    24    2
    27    23    28    1
    28    24    25    1
    29    28    27    2
    30    25    26    2
    31    27    26    1
