@<TRIPOS>MOLECULE
45372_out_ligand_01.pdbqt
 27 30 0 0 0
SMALL
GASTEIGER

@<TRIPOS>ATOM
      1  C         20.1730  -21.6710  -11.4990 C.2     1  UNL1        0.0320
      2  C         19.9850  -22.6250  -10.4860 C.2     1  UNL1        0.0200
      3  C         18.7320  -22.7970   -9.8950 C.2     1  UNL1        0.0380
      4  C         17.6740  -21.9960  -10.3070 C.2     1  UNL1        0.0780
      5  C         17.8340  -21.0470  -11.3140 C.2     1  UNL1        0.0380
      6  C         19.0900  -20.8740  -11.9020 C.2     1  UNL1        0.0200
      7  C         21.5380  -21.5460  -12.0900 C.2     1  UNL1        0.2520
      8  O         21.6770  -21.0610  -13.2080 O.2     1  UNL1       -0.2680
      9  N         22.6020  -21.9760  -11.3220 N.am    1  UNL1       -0.3520
     10  H         22.4430  -22.3860  -10.4140 H       1  UNL1        0.1630
     11  C         23.9780  -21.9480  -11.8250 C.3     1  UNL1        0.0840
     12  C         24.3760  -23.3640  -12.2770 C.3     1  UNL1        0.0250
     13  C         25.6300  -23.4430  -13.1400 C.3     1  UNL1        0.0020
     14  C         26.8920  -22.8630  -12.5130 C.3     1  UNL1        0.0000
     15  C         26.8630  -21.3410  -12.4260 C.3     1  UNL1        0.0000
     16  C         26.2080  -20.7920  -11.1640 C.3     1  UNL1        0.0020
     17  C         24.8980  -21.4310  -10.7120 C.3     1  UNL1        0.0250
     18  O         16.4150  -22.2290   -9.7380 O.2     1  UNL1       -0.2910
     19  C         16.3960  -22.6720   -8.4240 C.2     1  UNL1        0.1890
     20  C         15.9200  -24.0770   -8.4300 C.2     1  UNL1        0.0640
     21  C         15.8190  -24.6800   -7.2380 C.2     1  UNL1        0.0590
     22  C         16.1680  -23.9600   -6.0750 C.2     1  UNL1        0.1740
     23  N         16.1610  -24.2680   -4.7970 N.2     1  UNL1       -0.1290
     24  N         16.6100  -22.6600   -6.2340 N.pl3   1  UNL1       -0.2030
     25  N         16.6110  -23.1670   -4.0970 N.2     1  UNL1       -0.1410
     26  C         16.8730  -22.2190   -4.9710 C.2     1  UNL1        0.2610
     27  N         16.7390  -21.9610   -7.3980 N.2     1  UNL1       -0.1390
@<TRIPOS>BOND
     1     8     7    2
     2    13    14    1
     3    13    12    1
     4    14    15    1
     5    15    16    1
     6    12    11    1
     7     7     1    1
     8     7     9   am
     9     6     1    2
    10     6     5    1
    11    11     9    1
    12    11    17    1
    13     1     2    1
    14     9    10    1
    15     5     4    2
    16    16    17    1
    17     2     3    2
    18     4     3    1
    19     4    18    1
    20    18    19    1
    21    20    19    1
    22    20    21    2
    23    19    27    2
    24    27    24    1
    25    21    22    1
    26    24    22    1
    27    24    26    1
    28    22    23    2
    29    26    25    2
    30    23    25    1
