@<TRIPOS>MOLECULE
45385_out_ligand_01.pdbqt
 29 32 0 0 0
SMALL
GASTEIGER

@<TRIPOS>ATOM
      1  C         20.5170  -21.9380  -10.5120 C.2     1  UNL1        0.0630
      2  C         19.5030  -21.7890  -11.4330 C.2     1  UNL1        0.0360
      3  C         18.2920  -22.0130  -10.7340 C.2     1  UNL1        0.0400
      4  C         18.6300  -22.2880   -9.4220 C.2     1  UNL1        0.0860
      5  O         19.9890  -22.2360   -9.2910 O.2     1  UNL1       -0.3140
      6  C         22.0040  -21.8410  -10.6050 C.3     1  UNL1        0.0890
      7  C         22.6900  -23.0370   -9.9120 C.3     1  UNL1        0.1020
      8  C         24.1270  -23.1820  -10.3630 C.2     1  UNL1        0.1410
      9  N         24.6450  -22.8480  -11.5040 N.2     1  UNL1       -0.2090
     10  C         23.7550  -22.2290  -12.3200 C.2     1  UNL1        0.1560
     11  C         22.5110  -21.7370  -11.9990 C.2     1  UNL1        0.0190
     12  N         23.9300  -21.9580  -13.6490 N.pl3   1  UNL1       -0.2570
     13  C         22.0070  -21.1960  -13.1920 C.2     1  UNL1        0.1500
     14  N         22.8710  -21.3230  -14.2060 N.2     1  UNL1       -0.1830
     15  C         25.0750  -22.2700  -14.4670 C.3     1  UNL1        0.1820
     16  O         24.9210  -23.7830   -9.4660 O.2     1  UNL1       -0.3480
     17  H         24.3710  -24.0130   -8.6980 H       1  UNL1        0.2190
     18  C         17.8770  -22.6100   -8.2120 C.2     1  UNL1       -0.0020
     19  C         16.4710  -22.5700   -8.1990 C.2     1  UNL1        0.0160
     20  C         15.7510  -22.8770   -7.0400 C.2     1  UNL1        0.0260
     21  C         16.4390  -23.2170   -5.8750 C.2     1  UNL1        0.0740
     22  C         17.8320  -23.2760   -5.8650 C.2     1  UNL1        0.0260
     23  C         18.5440  -22.9710   -7.0290 C.2     1  UNL1        0.0160
     24  S         15.5200  -23.6040   -4.4100 S.O2    1  UNL1        0.2390
     25  O         14.2730  -24.2150   -4.8010 O.2     1  UNL1       -0.2060
     26  O         16.4170  -24.2080   -3.4510 O.2     1  UNL1       -0.2060
     27  N         15.1850  -22.0670   -3.8070 N.3     1  UNL1       -0.2250
     28  H         14.9980  -21.4400   -4.5910 H       1  UNL1        0.1360
     29  H         14.4310  -22.0570   -3.1210 H       1  UNL1        0.1360
@<TRIPOS>BOND
     1    15    12    1
     2    14    12    1
     3    14    13    2
     4    12    10    1
     5    13    11    1
     6    10    11    2
     7    10     9    1
     8    11     6    1
     9     9     8    2
    10     2     3    1
    11     2     1    2
    12     3     4    2
    13     6     1    1
    14     6     7    1
    15     1     5    1
    16     8     7    1
    17     8    16    1
    18    16    17    1
    19     4     5    1
    20     4    18    1
    21    18    19    2
    22    18    23    1
    23    19    20    1
    24    20    21    2
    25    23    22    2
    26    21    22    1
    27    21    24    1
    28    25    24    2
    29    28    27    1
    30    24    27    1
    31    24    26    2
    32    27    29    1
