@<TRIPOS>MOLECULE
45390_out_ligand_01.pdbqt
 31 34 0 0 0
SMALL
GASTEIGER

@<TRIPOS>ATOM
      1  C         19.4660  -22.8200   -8.6990 C.2     1  UNL1        0.0630
      2  C         20.0670  -24.0120   -8.3550 C.2     1  UNL1        0.0360
      3  C         21.1670  -24.1710   -9.2350 C.2     1  UNL1        0.0400
      4  C         21.1770  -23.0710  -10.0700 C.2     1  UNL1        0.0860
      5  O         20.1410  -22.2450   -9.7350 O.2     1  UNL1       -0.3140
      6  C         18.2730  -22.0830   -8.1730 C.3     1  UNL1        0.0890
      7  C         16.9570  -22.7890   -8.5610 C.3     1  UNL1        0.1020
      8  C         16.5180  -23.7900   -7.5130 C.2     1  UNL1        0.1410
      9  N         16.7630  -23.7770   -6.2400 N.2     1  UNL1       -0.2090
     10  C         17.5950  -22.7710   -5.8760 C.2     1  UNL1        0.1570
     11  C         18.3290  -21.9420   -6.6950 C.2     1  UNL1        0.0190
     12  N         17.8950  -22.3870   -4.5940 N.pl3   1  UNL1       -0.2480
     13  C         19.0230  -21.0840   -5.8330 C.2     1  UNL1        0.1500
     14  N         18.7550  -21.3370   -4.5480 N.2     1  UNL1       -0.1820
     15  O         15.7120  -24.7530   -7.9850 O.2     1  UNL1       -0.3480
     16  H         15.0320  -24.3200   -8.5280 H       1  UNL1        0.2190
     17  C         17.4040  -22.9570   -3.3440 C.3     1  UNL1        0.1040
     18  C         15.8890  -22.8230   -3.2050 C.3     1  UNL1        0.0340
     19  C         17.8650  -24.4020   -3.1540 C.3     1  UNL1        0.0340
     20  C         22.0170  -22.6280  -11.1800 C.2     1  UNL1       -0.0020
     21  C         21.4970  -21.8170  -12.2040 C.2     1  UNL1        0.0160
     22  C         22.2980  -21.3960  -13.2700 C.2     1  UNL1        0.0260
     23  C         23.6320  -21.7970  -13.3230 C.2     1  UNL1        0.0740
     24  C         24.1770  -22.5920  -12.3130 C.2     1  UNL1        0.0260
     25  C         23.3680  -23.0070  -11.2500 C.2     1  UNL1        0.0160
     26  S         24.6610  -21.2710  -14.6670 S.O2    1  UNL1        0.2390
     27  O         26.0150  -21.7040  -14.4090 O.2     1  UNL1       -0.2060
     28  O         23.9760  -21.5530  -15.9050 O.2     1  UNL1       -0.2060
     29  N         24.6700  -19.6000  -14.4480 N.3     1  UNL1       -0.2250
     30  H         24.0190  -19.1100  -15.0590 H       1  UNL1        0.1360
     31  H         24.4940  -19.3970  -13.4630 H       1  UNL1        0.1360
@<TRIPOS>BOND
     1    28    26    2
     2    30    29    1
     3    26    29    1
     4    26    27    2
     5    26    23    1
     6    29    31    1
     7    23    22    2
     8    23    24    1
     9    22    21    1
    10    24    25    2
    11    21    20    2
    12    25    20    1
    13    20     4    1
    14     4     5    1
    15     4     3    2
    16     5     1    1
    17     3     2    1
    18     1     2    2
    19     1     6    1
    20     7     6    1
    21     7     8    1
    22    16    15    1
    23     6    11    1
    24    15     8    1
    25     8     9    2
    26    11    10    2
    27    11    13    1
    28     9    10    1
    29    10    12    1
    30    13    14    2
    31    12    14    1
    32    12    17    1
    33    17    18    1
    34    17    19    1
