@<TRIPOS>MOLECULE
4539_out_ligand_01.pdbqt
 40 45 0 0 0
SMALL
GASTEIGER

@<TRIPOS>ATOM
      1  C         24.9280  -21.5270  -10.6680 C.2     1  UNL1        0.1430
      2  C         25.0660  -22.8900  -10.4560 C.2     1  UNL1        0.0450
      3  C         24.0760  -23.2670   -9.5150 C.2     1  UNL1        0.0370
      4  C         23.3840  -22.1180   -9.2020 C.2     1  UNL1        0.0820
      5  O         23.8900  -21.0650   -9.9010 O.2     1  UNL1       -0.3080
      6  C         22.2400  -21.8240   -8.2900 C.3     1  UNL1        0.3380
      7  N         21.1500  -22.8130   -8.4050 N.3     1  UNL1        0.1110
      8  C         21.2940  -23.6730   -9.6020 C.3     1  UNL1        0.2940
      9  C         21.0640  -22.9620  -10.9320 C.3     1  UNL1        0.1580
     10  N         19.8130  -22.2340  -10.8810 N.pl3   1  UNL1       -0.3560
     11  C         19.0710  -21.8360  -11.9560 C.2     1  UNL1        0.0910
     12  C         19.2120  -21.8510   -9.7060 C.2     1  UNL1        0.0490
     13  C         17.9600  -21.1830  -11.4730 C.2     1  UNL1        0.0190
     14  C         18.0460  -21.1900  -10.0600 C.2     1  UNL1        0.0290
     15  C         19.8300  -22.1220   -8.3530 C.3     1  UNL1        0.3060
     16  C         18.8530  -22.7860   -7.3750 C.2     1  UNL1       -0.0160
     17  C         18.2970  -24.0590   -7.5840 C.2     1  UNL1        0.0120
     18  C         17.3980  -24.6140   -6.6660 C.2     1  UNL1        0.0400
     19  C         17.0350  -23.9030   -5.5270 C.2     1  UNL1        0.1020
     20  C         17.5920  -22.6450   -5.2880 C.2     1  UNL1        0.1020
     21  O         16.1370  -24.5020   -4.6810 O.2     1  UNL1       -0.3460
     22  C         18.4780  -22.0870   -6.2090 C.2     1  UNL1        0.0490
     23  O         17.3100  -21.8960   -4.1730 O.2     1  UNL1       -0.3460
     24  C         16.7040  -22.7000   -3.1540 C.3     1  UNL1        0.2020
     25  C         15.6000  -23.5640   -3.7420 C.3     1  UNL1        0.2020
     26  C         25.6330  -20.5640  -11.4970 C.2     1  UNL1        0.2750
     27  O         26.3570  -19.6800  -11.0450 O.2     1  UNL1       -0.2650
     28  N         25.4370  -20.7090  -12.8550 N.am    1  UNL1       -0.3510
     29  H         24.8650  -21.4610  -13.2060 H       1  UNL1        0.1630
     30  C         26.0890  -19.8550  -13.8200 C.3     1  UNL1        0.1610
     31  C         25.7300  -20.2850  -15.2190 C.2     1  UNL1       -0.0400
     32  C         26.0080  -19.4640  -16.3180 C.2     1  UNL1        0.0090
     33  C         25.6970  -19.8850  -17.6110 C.2     1  UNL1        0.0010
     34  C         25.1080  -21.1340  -17.8200 C.2     1  UNL1        0.0160
     35  C         24.8220  -21.9760  -16.7350 C.2     1  UNL1        0.0480
     36  C         25.1470  -21.5440  -15.4380 C.2     1  UNL1        0.0250
     37  C         24.2060  -23.3370  -16.9470 C.3     1  UNL1        0.4170
     38  F         24.5180  -23.8910  -18.1530 F       1  UNL1       -0.1660
     39  F         24.6070  -24.2380  -16.0080 F       1  UNL1       -0.1660
     40  F         22.8450  -23.3140  -16.8900 F       1  UNL1       -0.1660
@<TRIPOS>BOND
     1    38    37    1
     2    34    33    2
     3    34    35    1
     4    33    32    1
     5    37    40    1
     6    37    35    1
     7    37    39    1
     8    35    36    2
     9    32    31    2
    10    36    31    1
    11    31    30    1
    12    30    28    1
    13    29    28    1
    14    28    26   am
    15    11    13    2
    16    11    10    1
    17    26    27    2
    18    26     1    1
    19    13    14    1
    20     9    10    1
    21     9     8    1
    22    10    12    1
    23     1     2    2
    24     1     5    1
    25     2     3    1
    26    14    12    2
    27     5     4    1
    28    12    15    1
    29     8     7    1
    30     3     4    2
    31     4     6    1
    32     7    15    1
    33     7     6    1
    34    15    16    1
    35    17    16    2
    36    17    18    1
    37    16    22    1
    38    18    19    2
    39    22    20    2
    40    19    20    1
    41    19    21    1
    42    20    23    1
    43    21    25    1
    44    23    24    1
    45    25    24    1
