@<TRIPOS>MOLECULE
45391_out_ligand_01.pdbqt
 30 33 0 0 0
SMALL
GASTEIGER

@<TRIPOS>ATOM
      1  N         18.4580  -23.2910   -8.5260 N.am    1  UNL1       -0.2760
      2  C         17.8360  -22.4410   -9.4010 C.2     1  UNL1        0.2620
      3  O         16.6950  -22.0140   -9.3930 O.2     1  UNL1       -0.2670
      4  C         18.8280  -22.0930  -10.4160 C.2     1  UNL1        0.0480
      5  C         18.7400  -21.2540  -11.5090 C.2     1  UNL1        0.0190
      6  C         19.8910  -21.1020  -12.2890 C.2     1  UNL1        0.0180
      7  C         21.0940  -21.7860  -11.9710 C.2     1  UNL1        0.0330
      8  C         21.1550  -22.6270  -10.8480 C.2     1  UNL1        0.0350
      9  C         20.0000  -22.7590  -10.0980 C.2     1  UNL1        0.0490
     10  C         19.7520  -23.5440   -8.8900 C.2     1  UNL1        0.2620
     11  O         20.5880  -24.2720   -8.3880 O.2     1  UNL1       -0.2670
     12  C         22.2850  -21.5410  -12.8370 C.2     1  UNL1        0.2560
     13  O         22.1360  -20.8690  -13.8490 O.2     1  UNL1       -0.2670
     14  N         23.4650  -22.1290  -12.4220 N.am    1  UNL1       -0.3200
     15  H         23.4750  -22.7460  -11.6190 H       1  UNL1        0.1690
     16  C         24.6710  -21.9710  -13.0800 C.2     1  UNL1        0.0710
     17  C         25.7500  -21.0860  -12.8630 C.2     1  UNL1        0.1690
     18  N         26.7430  -21.2710  -13.7420 N.2     1  UNL1       -0.1830
     19  N         26.2960  -22.2760  -14.5150 N.pl3   1  UNL1       -0.2830
     20  C         27.1190  -22.7570  -15.6000 C.3     1  UNL1        0.1790
     21  C         25.0570  -22.7300  -14.1610 C.2     1  UNL1        0.1420
     22  C         17.8230  -23.8360   -7.3400 C.3     1  UNL1        0.1770
     23  C         18.0000  -22.9320   -6.1370 C.2     1  UNL1       -0.0060
     24  C         18.8680  -21.8280   -6.2310 C.2     1  UNL1        0.0110
     25  C         19.0820  -20.9920   -5.1380 C.2     1  UNL1        0.0010
     26  C         18.4300  -21.2450   -3.9400 C.2     1  UNL1        0.0030
     27  C         17.5570  -22.3300   -3.8320 C.2     1  UNL1        0.0370
     28  C         17.3290  -23.1740   -4.9250 C.2     1  UNL1        0.0760
     29  O         16.4750  -24.2470   -4.9090 O.2     1  UNL1       -0.3550
     30  C         15.0990  -23.9960   -4.6410 C.3     1  UNL1        0.2100
@<TRIPOS>BOND
     1    20    19    1
     2    19    21    1
     3    19    18    1
     4    21    16    2
     5    13    12    2
     6    18    17    2
     7    16    17    1
     8    16    14    1
     9    12    14   am
    10    12     7    1
    11    14    15    1
    12     6     7    2
    13     6     5    1
    14     7     8    1
    15     5     4    2
    16     8     9    2
    17     4     9    1
    18     4     2    1
    19     9    10    1
    20     2     3    2
    21     2     1   am
    22    10     1   am
    23    10    11    2
    24     1    22    1
    25    22    23    1
    26    24    23    2
    27    24    25    1
    28    23    28    1
    29    25    26    2
    30    28    29    1
    31    28    27    2
    32    29    30    1
    33    26    27    1
