@<TRIPOS>MOLECULE
45409_out_ligand_01.pdbqt
 33 37 0 0 0
SMALL
GASTEIGER

@<TRIPOS>ATOM
      1  C         23.8120  -22.1950  -11.5800 C.2     1  UNL1        0.0750
      2  C         24.2710  -22.5320  -10.3100 C.2     1  UNL1        0.0260
      3  C         23.3440  -22.8110   -9.3030 C.2     1  UNL1        0.0250
      4  C         21.9650  -22.7320   -9.5450 C.2     1  UNL1        0.0160
      5  C         21.5100  -22.4470  -10.8440 C.2     1  UNL1       -0.0270
      6  C         22.4420  -22.1680  -11.8580 C.2     1  UNL1        0.0340
      7  C         20.0380  -22.4860  -11.1760 C.3     1  UNL1        0.0490
      8  C         19.4480  -21.1540  -11.5610 C.3     1  UNL1       -0.0210
      9  C         18.2080  -21.0090  -11.0840 C.3     1  UNL1       -0.0290
     10  C         17.7860  -22.2040  -10.2920 C.3     1  UNL1        0.0340
     11  C         19.1180  -22.9270  -10.0160 C.3     1  UNL1        0.0240
     12  C         19.7300  -22.5150   -8.6600 C.3     1  UNL1        0.1010
     13  N         21.0730  -23.0830   -8.5200 N.pl3   1  UNL1       -0.2830
     14  H         21.4690  -22.9300   -7.5970 H       1  UNL1        0.1280
     15  S         24.9650  -21.8470  -12.8860 S.O2    1  UNL1        0.2450
     16  O         25.6170  -20.5890  -12.5870 O.2     1  UNL1       -0.2060
     17  O         25.7090  -23.0610  -13.1410 O.2     1  UNL1       -0.2060
     18  N         23.8820  -21.5350  -14.1710 N.pl3   1  UNL1       -0.1810
     19  H         23.5450  -20.5800  -14.0410 H       1  UNL1        0.1460
     20  C         24.4740  -21.6800  -15.4700 C.2     1  UNL1        0.0230
     21  C         24.2940  -22.8570  -16.1970 C.2     1  UNL1        0.0240
     22  C         24.8420  -22.9680  -17.4740 C.2     1  UNL1        0.0020
     23  C         25.5500  -21.8990  -18.0280 C.2     1  UNL1        0.0070
     24  C         25.7010  -20.7010  -17.3160 C.2     1  UNL1       -0.0600
     25  C         26.4690  -19.5590  -17.9130 C.3     1  UNL1        0.0480
     26  C         25.1600  -20.6020  -16.0280 C.2     1  UNL1        0.0310
     27  C         18.9190  -22.9170   -7.4390 C.2     1  UNL1       -0.0010
     28  C         18.2280  -24.1430   -7.4420 C.2     1  UNL1        0.0120
     29  C         17.4650  -24.5380   -6.3400 C.2     1  UNL1        0.0010
     30  C         17.3720  -23.7140   -5.2200 C.2     1  UNL1        0.0030
     31  C         18.0410  -22.4930   -5.2070 C.2     1  UNL1        0.0430
     32  C         18.8010  -22.1030   -6.3080 C.2     1  UNL1        0.1240
     33  F         19.4180  -20.9150   -6.2510 F       1  UNL1       -0.2050
@<TRIPOS>BOND
     1    23    22    2
     2    23    24    1
     3    25    24    1
     4    22    21    1
     5    24    26    2
     6    21    20    2
     7    26    20    1
     8    20    18    1
     9    18    19    1
    10    18    15    1
    11    17    15    2
    12    15    16    2
    13    15     1    1
    14     6     1    2
    15     6     5    1
    16     1     2    1
    17     8     7    1
    18     8     9    1
    19     7     5    1
    20     7    11    1
    21     9    10    1
    22     5     4    2
    23     2     3    2
    24    10    11    1
    25    11    12    1
    26     4     3    1
    27     4    13    1
    28    12    13    1
    29    12    27    1
    30    13    14    1
    31    28    27    2
    32    28    29    1
    33    27    32    1
    34    29    30    2
    35    32    33    1
    36    32    31    2
    37    30    31    1
