@<TRIPOS>MOLECULE
45415_out_ligand_01.pdbqt
 29 32 0 0 0
SMALL
GASTEIGER

@<TRIPOS>ATOM
      1  C         19.7440  -21.8650  -10.5670 C.2     1  UNL1        0.1010
      2  C         20.9770  -22.4090  -10.5400 C.2     1  UNL1        0.0400
      3  C         21.9470  -22.1770  -11.5950 C.2     1  UNL1        0.0340
      4  C         21.6230  -21.3920  -12.6390 C.2     1  UNL1        0.0270
      5  N         20.3680  -20.8240  -12.6870 N.am    1  UNL1       -0.3250
      6  C         19.3940  -20.9990  -11.7310 C.2     1  UNL1        0.2610
      7  O         18.2940  -20.4630  -11.8420 O.2     1  UNL1       -0.2670
      8  C         22.5570  -21.0680  -13.7750 C.3     1  UNL1        0.0690
      9  C         24.0250  -21.3190  -13.4030 C.3     1  UNL1        0.0560
     10  C         24.1890  -22.6970  -12.7660 C.3     1  UNL1        0.0950
     11  C         23.2970  -22.8270  -11.5530 C.2     1  UNL1        0.1620
     12  O         23.6420  -23.4930  -10.5780 O.2     1  UNL1       -0.2920
     13  H         20.1050  -20.2330  -13.4700 H       1  UNL1        0.1690
     14  C         18.8060  -22.1590   -9.4330 C.2     1  UNL1        0.2610
     15  N         19.4220  -22.3120   -8.2090 N.am    1  UNL1       -0.3230
     16  H         20.4380  -22.2130   -8.1940 H       1  UNL1        0.1690
     17  O         17.5990  -22.2430   -9.6440 O.2     1  UNL1       -0.2670
     18  C         18.8260  -22.5920   -6.9620 C.2     1  UNL1        0.0350
     19  C         18.1560  -23.8150   -6.8400 C.2     1  UNL1        0.0290
     20  C         17.5440  -24.1780   -5.6400 C.2     1  UNL1        0.0030
     21  C         17.5910  -23.3170   -4.5460 C.2     1  UNL1        0.0070
     22  C         18.2430  -22.0840   -4.6500 C.2     1  UNL1       -0.0600
     23  C         18.3290  -21.1660   -3.4670 C.3     1  UNL1        0.0480
     24  C         18.8690  -21.7360   -5.8590 C.2     1  UNL1        0.0360
     25  C         24.9170  -21.1610  -14.5870 C.2     1  UNL1        0.0570
     26  C         26.2860  -21.0920  -14.7360 C.2     1  UNL1        0.0350
     27  C         26.5290  -20.9440  -16.1230 C.2     1  UNL1        0.0270
     28  C         25.2960  -20.9330  -16.7300 C.2     1  UNL1        0.1420
     29  O         24.3100  -21.0640  -15.8050 O.2     1  UNL1       -0.3270
@<TRIPOS>BOND
     1    28    27    2
     2    28    29    1
     3    27    26    1
     4    29    25    1
     5    26    25    2
     6    25     9    1
     7     8     9    1
     8     8     4    1
     9    13     5    1
    10     9    10    1
    11    10    11    1
    12     5     4    1
    13     5     6   am
    14     4     3    2
    15     7     6    2
    16     6     1    1
    17     3    11    1
    18     3     2    1
    19    11    12    2
    20     1     2    2
    21     1    14    1
    22    17    14    2
    23    14    15   am
    24    15    16    1
    25    15    18    1
    26    18    19    2
    27    18    24    1
    28    19    20    1
    29    24    22    2
    30    20    21    2
    31    22    21    1
    32    22    23    1
