@<TRIPOS>MOLECULE
45420_out_ligand_01.pdbqt
 36 40 0 0 0
SMALL
GASTEIGER

@<TRIPOS>ATOM
      1  C         19.4770  -23.6430   -8.5570 C.3     1  UNL1        0.1230
      2  N         20.9510  -23.7510   -8.6830 N.pl3   1  UNL1       -0.3800
      3  C         21.6230  -23.2630   -9.8080 C.2     1  UNL1        0.0350
      4  C         22.9560  -23.6350  -10.0230 C.2     1  UNL1        0.0310
      5  C         23.6870  -23.1100  -11.0900 C.2     1  UNL1        0.0270
      6  C         23.0860  -22.1830  -11.9430 C.2     1  UNL1        0.0800
      7  C         21.7750  -21.7540  -11.7200 C.2     1  UNL1        0.0350
      8  C         21.0380  -22.2960  -10.6600 C.2     1  UNL1       -0.0220
      9  C         19.6480  -21.8420  -10.3170 C.3     1  UNL1        0.0500
     10  C         18.7070  -21.3460  -11.3770 C.3     1  UNL1       -0.0210
     11  C         17.4570  -21.7750  -11.1360 C.3     1  UNL1       -0.0290
     12  C         17.4100  -22.6640   -9.9220 C.3     1  UNL1        0.0350
     13  C         18.8750  -23.0750   -9.8430 C.3     1  UNL1        0.0280
     14  H         21.3200  -24.6210   -8.3120 H       1  UNL1        0.1600
     15  S         24.0120  -21.4780  -13.2790 S.O2    1  UNL1        0.2630
     16  O         23.0530  -20.9740  -14.2420 O.2     1  UNL1       -0.2000
     17  O         25.0430  -20.6170  -12.7400 O.2     1  UNL1       -0.2000
     18  N         24.7330  -22.8180  -14.0150 N.pl3   1  UNL1       -0.2780
     19  H         24.3080  -23.6810  -13.6800 H       1  UNL1        0.1790
     20  C         25.0320  -22.7240  -15.4070 C.2     1  UNL1        0.0810
     21  C         24.1820  -23.3440  -16.3260 C.2     1  UNL1        0.0330
     22  C         24.4250  -23.2190  -17.6960 C.2     1  UNL1        0.0020
     23  C         25.5110  -22.4690  -18.1530 C.2     1  UNL1        0.0030
     24  C         26.3550  -21.8390  -17.2380 C.2     1  UNL1        0.0440
     25  C         26.1070  -21.9650  -15.8740 C.2     1  UNL1        0.1430
     26  F         26.9420  -21.3670  -15.0130 F       1  UNL1       -0.2040
     27  C         19.1130  -22.9090   -7.2730 C.2     1  UNL1        0.0010
     28  C         19.7700  -21.7210   -6.9120 C.2     1  UNL1        0.0120
     29  C         19.4420  -21.0480   -5.7390 C.2     1  UNL1        0.0030
     30  C         18.4620  -21.5590   -4.8900 C.2     1  UNL1        0.0390
     31  C         17.7930  -22.7450   -5.2090 C.2     1  UNL1        0.1020
     32  C         18.0940  -23.4000   -6.4230 C.2     1  UNL1        0.1090
     33  O         16.8550  -23.3240   -4.3930 O.2     1  UNL1       -0.3530
     34  C         15.7030  -22.5590   -4.0620 C.3     1  UNL1        0.2100
     35  O         17.4940  -24.5690   -6.8350 O.2     1  UNL1       -0.3520
     36  C         16.1690  -24.4320   -7.3450 C.3     1  UNL1        0.2100
@<TRIPOS>BOND
     1    23    22    2
     2    23    24    1
     3    22    21    1
     4    24    25    2
     5    21    20    2
     6    25    20    1
     7    25    26    1
     8    20    18    1
     9    16    15    2
    10    18    19    1
    11    18    15    1
    12    15    17    2
    13    15     6    1
    14     6     7    2
    15     6     5    1
    16     7     8    1
    17    10    11    1
    18    10     9    1
    19    11    12    1
    20     5     4    2
    21     8     9    1
    22     8     3    2
    23     9    13    1
    24     4     3    1
    25    12    13    1
    26    13     1    1
    27     3     2    1
    28     2     1    1
    29     2    14    1
    30     1    27    1
    31    36    35    1
    32    27    28    2
    33    27    32    1
    34    28    29    1
    35    35    32    1
    36    32    31    2
    37    29    30    2
    38    31    30    1
    39    31    33    1
    40    33    34    1
