@<TRIPOS>MOLECULE
45430_out_ligand_01.pdbqt
 34 38 0 0 0
SMALL
GASTEIGER

@<TRIPOS>ATOM
      1  C         23.2600  -22.7110  -11.0730 C.2     1  UNL1        0.0800
      2  C         23.5010  -23.4480   -9.9130 C.2     1  UNL1        0.0270
      3  C         22.5020  -23.5460   -8.9470 C.2     1  UNL1        0.0250
      4  C         21.2490  -22.9490   -9.1530 C.2     1  UNL1        0.0160
      5  C         21.0230  -22.1600  -10.2990 C.2     1  UNL1       -0.0270
      6  C         22.0500  -22.0300  -11.2500 C.2     1  UNL1        0.0350
      7  C         19.7220  -21.3980  -10.4400 C.3     1  UNL1        0.0490
      8  C         19.1060  -21.4390  -11.8110 C.2     1  UNL1       -0.0210
      9  C         17.8190  -21.7950  -11.7980 C.2     1  UNL1       -0.0290
     10  C         17.3250  -22.0900  -10.4220 C.3     1  UNL1        0.0340
     11  C         18.5670  -21.8860   -9.5200 C.3     1  UNL1        0.0230
     12  C         18.9210  -23.1740   -8.7530 C.3     1  UNL1        0.0980
     13  N         20.2540  -23.0630   -8.1580 N.pl3   1  UNL1       -0.2830
     14  H         20.4500  -23.8350   -7.5200 H       1  UNL1        0.1280
     15  S         24.5000  -22.6320  -12.3450 S.O2    1  UNL1        0.2630
     16  O         25.6560  -21.9660  -11.7850 O.2     1  UNL1       -0.2000
     17  O         24.6140  -23.9400  -12.9570 O.2     1  UNL1       -0.2000
     18  N         23.8330  -21.5500  -13.4620 N.pl3   1  UNL1       -0.2810
     19  H         22.8370  -21.7170  -13.5940 H       1  UNL1        0.1790
     20  C         24.5960  -21.1580  -14.5960 C.2     1  UNL1        0.0430
     21  C         25.3290  -19.9730  -14.5330 C.2     1  UNL1        0.0300
     22  C         26.0520  -19.5430  -15.6450 C.2     1  UNL1        0.0090
     23  C         26.0540  -20.2890  -16.8340 C.2     1  UNL1       -0.0560
     24  C         26.8430  -19.7890  -18.0150 C.3     1  UNL1        0.0490
     25  C         25.3040  -21.4820  -16.9000 C.2     1  UNL1       -0.0540
     26  C         24.5920  -21.9120  -15.7690 C.2     1  UNL1        0.0370
     27  C         25.2670  -22.3170  -18.1520 C.3     1  UNL1        0.0490
     28  C         17.9200  -23.4790   -7.6430 C.2     1  UNL1       -0.0400
     29  C         16.7020  -24.1170   -7.9460 C.2     1  UNL1        0.0120
     30  C         15.7620  -24.3660   -6.9450 C.2     1  UNL1        0.0430
     31  C         16.0320  -23.9750   -5.6370 C.2     1  UNL1        0.1160
     32  F         15.1220  -24.2010   -4.6780 F       1  UNL1       -0.2060
     33  C         17.2330  -23.3630   -5.3070 C.2     1  UNL1        0.0430
     34  C         18.1770  -23.1160   -6.3070 C.2     1  UNL1        0.0120
@<TRIPOS>BOND
     1    27    25    1
     2    24    23    1
     3    25    23    2
     4    25    26    1
     5    23    22    1
     6    26    20    2
     7    22    21    2
     8    20    21    1
     9    20    18    1
    10    19    18    1
    11    18    15    1
    12    17    15    2
    13    15    16    2
    14    15     1    1
    15     8     9    2
    16     8     7    1
    17     9    10    1
    18     6     1    2
    19     6     5    1
    20     1     2    1
    21     7     5    1
    22     7    11    1
    23    10    11    1
    24     5     4    2
    25     2     3    2
    26    11    12    1
    27     4     3    1
    28     4    13    1
    29    12    13    1
    30    12    28    1
    31    13    14    1
    32    29    28    2
    33    29    30    1
    34    28    34    1
    35    30    31    2
    36    34    33    2
    37    31    33    1
    38    31    32    1
