@<TRIPOS>MOLECULE
45487_out_ligand_01.pdbqt
 36 40 0 0 0
SMALL
GASTEIGER

@<TRIPOS>ATOM
      1  C         18.5320  -21.0090  -11.1870 C.ar    1  UNL1        0.1960
      2  N         17.3310  -20.5630  -11.4730 N.ar    1  UNL1       -0.1220
      3  N         16.4320  -21.2580  -10.7090 N.ar    1  UNL1       -0.1320
      4  C         17.1020  -22.1320   -9.9770 C.ar    1  UNL1        0.1480
      5  N         18.4620  -21.9930  -10.2200 N.ar    1  UNL1       -0.2740
      6  C         16.4670  -23.1980   -9.1420 C.3     1  UNL1        0.1730
      7  N         17.1990  -23.6620   -7.9560 N.pl3   1  UNL1       -0.2850
      8  H         17.5390  -24.6090   -8.0820 H       1  UNL1        0.1280
      9  C         16.6510  -23.4850   -6.6660 C.2     1  UNL1        0.0190
     10  C         15.4130  -24.0580   -6.3250 C.2     1  UNL1        0.0240
     11  C         14.8530  -23.8860   -5.0610 C.2     1  UNL1        0.0030
     12  C         15.5070  -23.1080   -4.1140 C.2     1  UNL1        0.0120
     13  C         16.7140  -22.4690   -4.4250 C.2     1  UNL1       -0.0240
     14  C         17.3430  -21.6680   -3.4540 C.2     1  UNL1        0.0120
     15  C         17.2940  -22.6270   -5.7130 C.2     1  UNL1       -0.0050
     16  C         18.5360  -21.0020   -3.7310 C.2     1  UNL1        0.0010
     17  C         19.1110  -21.1210   -4.9870 C.2     1  UNL1        0.0010
     18  C         18.4970  -21.9160   -5.9620 C.2     1  UNL1        0.0140
     19  C         19.5190  -22.7200   -9.6190 C.2     1  UNL1        0.0430
     20  C         20.4300  -22.0690   -8.7750 C.2     1  UNL1        0.0300
     21  C         21.4910  -22.7850   -8.2170 C.2     1  UNL1        0.0020
     22  C         21.6370  -24.1450   -8.4900 C.2     1  UNL1        0.0000
     23  C         20.7230  -24.7950   -9.3200 C.2     1  UNL1        0.0020
     24  C         19.6630  -24.0860   -9.8900 C.2     1  UNL1        0.0300
     25  S         19.9860  -20.2950  -11.8220 S.3     1  UNL1       -0.0800
     26  C         20.6900  -21.6950  -12.7420 C.3     1  UNL1        0.1850
     27  C         22.1960  -21.5610  -12.8960 C.2     1  UNL1        0.2310
     28  O         22.6640  -20.8760  -13.8020 O.2     1  UNL1       -0.2720
     29  N         22.9030  -22.2510  -11.9210 N.am    1  UNL1       -0.3270
     30  H         22.3570  -22.7340  -11.2180 H       1  UNL1        0.1690
     31  C         24.3010  -22.3960  -11.8110 C.2     1  UNL1        0.0340
     32  C         25.0260  -23.4290  -12.4100 C.2     1  UNL1        0.0290
     33  C         26.4130  -23.5050  -12.2510 C.2     1  UNL1        0.0020
     34  C         27.0860  -22.5470  -11.5000 C.2     1  UNL1        0.0000
     35  C         26.3720  -21.5160  -10.8910 C.2     1  UNL1        0.0020
     36  C         24.9850  -21.4450  -11.0440 C.2     1  UNL1        0.0290
@<TRIPOS>BOND
     1    28    27    2
     2    27    26    1
     3    27    29   am
     4    26    25    1
     5    32    33    1
     6    32    31    2
     7    33    34    2
     8    29    31    1
     9    29    30    1
    10    25     1    1
    11    31    36    1
    12    34    35    1
    13     2     1   ar
    14     2     3   ar
    15     1     5   ar
    16    36    35    2
    17     3     4   ar
    18     5     4   ar
    19     5    19    1
    20     4     6    1
    21    24    19    2
    22    24    23    1
    23    19    20    1
    24    23    22    2
    25     6     7    1
    26    20    21    2
    27    22    21    1
    28     8     7    1
    29     7     9    1
    30     9    10    2
    31     9    15    1
    32    10    11    1
    33    18    15    1
    34    18    17    2
    35    15    13    2
    36    11    12    2
    37    17    16    1
    38    13    12    1
    39    13    14    1
    40    16    14    2
