@<TRIPOS>MOLECULE
4549_out_ligand_01.pdbqt
 33 36 0 0 0
SMALL
GASTEIGER

@<TRIPOS>ATOM
      1  C         21.8620  -22.9750   -8.8200 C.2     1  UNL1        0.0320
      2  C         21.5380  -24.3090   -9.1020 C.2     1  UNL1        0.0200
      3  C         20.3580  -24.8660   -8.6040 C.2     1  UNL1        0.0380
      4  C         19.5140  -24.1010   -7.7970 C.2     1  UNL1        0.0780
      5  C         19.8240  -22.7680   -7.5230 C.2     1  UNL1        0.0380
      6  C         21.0030  -22.2070   -8.0230 C.2     1  UNL1        0.0200
      7  O         18.3500  -24.6880   -7.3570 O.2     1  UNL1       -0.2900
      8  C         17.4670  -23.8250   -6.7310 C.2     1  UNL1        0.2060
      9  N         17.8060  -23.3960   -5.4830 N.2     1  UNL1       -0.2330
     10  C         16.9550  -22.5070   -4.9290 C.2     1  UNL1        0.1380
     11  C         15.8270  -22.0480   -5.5860 C.2     1  UNL1        0.1370
     12  N         15.4970  -22.4530   -6.8330 N.2     1  UNL1       -0.2480
     13  C         16.3360  -23.3560   -7.4110 C.2     1  UNL1        0.1510
     14  S         15.9350  -23.8670   -9.0710 S.3     1  UNL1       -0.0660
     15  C         16.9510  -22.7470  -10.0130 C.2     1  UNL1        0.0070
     16  C         18.1630  -23.1930  -10.5520 C.2     1  UNL1        0.0220
     17  C         18.9600  -22.3270  -11.3030 C.2     1  UNL1        0.0430
     18  C         18.5400  -21.0190  -11.5130 C.2     1  UNL1        0.1160
     19  F         19.3050  -20.1870  -12.2310 F       1  UNL1       -0.2060
     20  C         17.3360  -20.5630  -10.9900 C.2     1  UNL1        0.0430
     21  C         16.5370  -21.4290  -10.2400 C.2     1  UNL1        0.0220
     22  C         23.1300  -22.4260   -9.3730 C.2     1  UNL1        0.2510
     23  O         23.3900  -21.2350   -9.2460 O.2     1  UNL1       -0.2680
     24  N         23.9700  -23.3310   -9.9830 N.am    1  UNL1       -0.3530
     25  H         23.8090  -24.3190   -9.8460 H       1  UNL1        0.1630
     26  C         25.2900  -22.9510  -10.4360 C.3     1  UNL1        0.1640
     27  C         25.2490  -22.4130  -11.8390 C.2     1  UNL1       -0.0020
     28  C         24.8320  -23.2220  -12.9050 C.2     1  UNL1        0.0120
     29  C         24.7740  -22.7080  -14.2040 C.2     1  UNL1        0.0010
     30  C         25.1240  -21.3800  -14.4480 C.2     1  UNL1        0.0030
     31  C         25.5290  -20.5640  -13.3940 C.2     1  UNL1        0.0430
     32  C         25.5830  -21.0840  -12.1030 C.2     1  UNL1        0.1240
     33  F         25.9530  -20.2770  -11.0980 F       1  UNL1       -0.2050
@<TRIPOS>BOND
     1    30    29    2
     2    30    31    1
     3    29    28    1
     4    31    32    2
     5    28    27    2
     6    19    18    1
     7    32    27    1
     8    32    33    1
     9    27    26    1
    10    18    17    2
    11    18    20    1
    12    17    16    1
    13    20    21    2
    14    16    15    2
    15    26    24    1
    16    21    15    1
    17    15    14    1
    18    24    25    1
    19    24    22   am
    20    22    23    2
    21    22     1    1
    22     2     1    2
    23     2     3    1
    24    14    13    1
    25     1     6    1
    26     3     4    2
    27     6     5    2
    28     4     5    1
    29     4     7    1
    30    13    12    2
    31    13     8    1
    32     7     8    1
    33    12    11    1
    34     8     9    2
    35    11    10    2
    36     9    10    1
