@<TRIPOS>MOLECULE
45493_out_ligand_01.pdbqt
 36 40 0 0 0
SMALL
GASTEIGER

@<TRIPOS>ATOM
      1  C         24.2300  -21.9880  -10.5480 C.2     1  UNL1        0.0750
      2  C         24.5250  -23.0950   -9.7500 C.2     1  UNL1        0.0270
      3  C         23.4870  -23.7790   -9.1140 C.2     1  UNL1        0.0310
      4  C         22.1540  -23.3920   -9.2950 C.2     1  UNL1        0.0350
      5  C         21.8700  -22.2640  -10.1040 C.2     1  UNL1       -0.0220
      6  C         22.9120  -21.5640  -10.7280 C.2     1  UNL1        0.0350
      7  C         20.4360  -21.8200  -10.1770 C.3     1  UNL1        0.0500
      8  C         19.8940  -21.1090  -11.3830 C.3     1  UNL1       -0.0210
      9  C         18.6400  -21.5180  -11.6440 C.3     1  UNL1       -0.0290
     10  C         18.2110  -22.6060  -10.6980 C.3     1  UNL1        0.0350
     11  C         19.5780  -23.0840  -10.2230 C.3     1  UNL1        0.0280
     12  C         19.7310  -23.9130   -8.9520 C.3     1  UNL1        0.1230
     13  N         21.1490  -24.0540   -8.5780 N.pl3   1  UNL1       -0.3800
     14  H         21.4020  -24.9740   -8.2360 H       1  UNL1        0.1600
     15  S         25.5640  -21.1120  -11.3290 S.O2    1  UNL1        0.2450
     16  O         26.4420  -22.0840  -11.9460 O.2     1  UNL1       -0.2060
     17  O         26.0450  -20.1260  -10.3880 O.2     1  UNL1       -0.2060
     18  N         24.7210  -20.3410  -12.6000 N.pl3   1  UNL1       -0.1810
     19  H         23.7380  -20.2940  -12.3300 H       1  UNL1        0.1460
     20  C         24.8840  -20.9780  -13.8720 C.2     1  UNL1        0.0220
     21  C         25.9480  -20.6070  -14.6950 C.2     1  UNL1        0.0250
     22  C         26.1430  -21.2520  -15.9190 C.2     1  UNL1        0.0200
     23  C         25.2780  -22.2800  -16.3160 C.2     1  UNL1        0.0370
     24  C         24.2240  -22.6620  -15.4760 C.2     1  UNL1        0.0200
     25  C         24.0310  -22.0160  -14.2510 C.2     1  UNL1        0.0250
     26  C         25.4440  -22.9950  -17.6050 C.2     1  UNL1        0.1760
     27  O         24.6010  -23.6810  -18.1520 O.2     1  UNL1       -0.6460
     28  O         26.6590  -22.8120  -18.1520 O.3     1  UNL1       -0.7730
     29  H         27.0740  -23.6990  -18.1060 H       1  UNL1        0.1670
     30  C         18.8900  -23.4900   -7.7650 C.2     1  UNL1        0.0030
     31  C         17.6800  -24.1660   -7.5090 C.2     1  UNL1        0.0120
     32  C         16.8610  -23.8040   -6.4350 C.2     1  UNL1        0.0010
     33  C         17.2350  -22.7600   -5.5940 C.2     1  UNL1        0.0030
     34  C         18.4270  -22.0790   -5.8310 C.2     1  UNL1        0.0430
     35  C         19.2390  -22.4440   -6.9040 C.2     1  UNL1        0.1240
     36  F         20.3700  -21.7470   -7.0850 F       1  UNL1       -0.2050
@<TRIPOS>BOND
     1    28    29    1
     2    28    26    1
     3    27    26    2
     4    26    23    1
     5    23    22    2
     6    23    24    1
     7    22    21    1
     8    24    25    2
     9    21    20    2
    10    25    20    1
    11    20    18    1
    12    18    19    1
    13    18    15    1
    14    16    15    2
    15     9     8    1
    16     9    10    1
    17     8     7    1
    18    15     1    1
    19    15    17    2
    20     6     1    2
    21     6     5    1
    22    10    11    1
    23     1     2    1
    24    11     7    1
    25    11    12    1
    26     7     5    1
    27     5     4    2
    28     2     3    2
    29     4     3    1
    30     4    13    1
    31    12    13    1
    32    12    30    1
    33    13    14    1
    34    30    31    2
    35    30    35    1
    36    31    32    1
    37    36    35    1
    38    35    34    2
    39    32    33    2
    40    34    33    1
