@<TRIPOS>MOLECULE
4550_out_ligand_01.pdbqt
 32 35 0 0 0
SMALL
GASTEIGER

@<TRIPOS>ATOM
      1  C         15.0950  -23.9590  -10.3330 C.3     1  UNL1        0.0730
      2  C         16.0460  -23.4450   -9.3140 C.ar    1  UNL1        0.0620
      3  N         15.7370  -23.5150   -8.0210 N.ar    1  UNL1       -0.1700
      4  N         16.7690  -22.9150   -7.3600 N.ar    1  UNL1       -0.2100
      5  C         17.7830  -22.5670   -8.2510 C.ar    1  UNL1        0.1790
      6  C         17.3130  -22.8540   -9.5240 C.ar    1  UNL1        0.0220
      7  C         17.9850  -22.5840  -10.8320 C.3     1  UNL1        0.0540
      8  C         18.0710  -21.0930  -11.1440 C.3     1  UNL1        0.1080
      9  C         19.4910  -20.7000  -11.5090 C.2     1  UNL1        0.2220
     10  O         19.9060  -19.5600  -11.3210 O.2     1  UNL1       -0.2730
     11  N         20.1900  -21.7470  -12.0840 N.am    1  UNL1       -0.3270
     12  H         19.7080  -22.6360  -12.1390 H       1  UNL1        0.1690
     13  C         21.5330  -21.7540  -12.5120 C.2     1  UNL1        0.0370
     14  C         22.0050  -21.0570  -13.6280 C.2     1  UNL1        0.0290
     15  C         23.3600  -21.1040  -13.9790 C.2     1  UNL1        0.0050
     16  C         24.2520  -21.8540  -13.2180 C.2     1  UNL1        0.0420
     17  C         23.7810  -22.5490  -12.1140 C.2     1  UNL1        0.1180
     18  F         24.6350  -23.2740  -11.3770 F       1  UNL1       -0.2060
     19  C         22.4380  -22.5060  -11.7540 C.2     1  UNL1        0.0710
     20  O         18.9380  -22.0200   -7.8520 O.3     1  UNL1       -0.2910
     21  C         20.1170  -22.6620   -8.1410 C.2     1  UNL1        0.0770
     22  C         21.3350  -21.9750   -8.1400 C.2     1  UNL1        0.0370
     23  C         22.5120  -22.6530   -8.4620 C.2     1  UNL1        0.0030
     24  C         22.4670  -24.0080   -8.7920 C.2     1  UNL1        0.0000
     25  C         21.2460  -24.6860   -8.8090 C.2     1  UNL1        0.0030
     26  C         20.0670  -24.0090   -8.4950 C.2     1  UNL1        0.0370
     27  C         16.6940  -22.7660   -5.9380 C.2     1  UNL1        0.0610
     28  C         17.8200  -22.8500   -5.1090 C.2     1  UNL1        0.0310
     29  C         17.6920  -22.6960   -3.7240 C.2     1  UNL1        0.0020
     30  C         16.4450  -22.4550   -3.1530 C.2     1  UNL1        0.0000
     31  C         15.3190  -22.3620   -3.9650 C.2     1  UNL1        0.0020
     32  C         15.4410  -22.5140   -5.3480 C.2     1  UNL1        0.0310
@<TRIPOS>BOND
     1    15    14    1
     2    15    16    2
     3    14    13    2
     4    16    17    1
     5    13    11    1
     6    13    19    1
     7    12    11    1
     8    17    19    2
     9    17    18    1
    10    11     9   am
    11     9    10    2
    12     9     8    1
    13     8     7    1
    14     7     6    1
    15     1     2    1
    16     6     2   ar
    17     6     5   ar
    18     2     3   ar
    19    25    24    2
    20    25    26    1
    21    24    23    1
    22    26    21    2
    23    23    22    2
    24     5    20    1
    25     5     4   ar
    26    21    22    1
    27    21    20    1
    28     3     4   ar
    29     4    27    1
    30    27    32    2
    31    27    28    1
    32    32    31    1
    33    28    29    2
    34    31    30    2
    35    29    30    1
