@<TRIPOS>MOLECULE
45506_out_ligand_01.pdbqt
 29 32 0 0 0
SMALL
GASTEIGER

@<TRIPOS>ATOM
      1  O         22.5630  -23.8620   -9.4830 O.2     1  UNL1       -0.2920
      2  C         22.4070  -23.1980  -10.5070 C.2     1  UNL1        0.1620
      3  C         23.5290  -23.0260  -11.5040 C.3     1  UNL1        0.0950
      4  C         23.4550  -21.6480  -12.1550 C.3     1  UNL1        0.0560
      5  C         22.0900  -21.4420  -12.8270 C.3     1  UNL1        0.0690
      6  C         20.9500  -21.8090  -11.9140 C.2     1  UNL1        0.0270
      7  N         19.7130  -21.2820  -12.2240 N.am    1  UNL1       -0.3250
      8  C         18.5670  -21.5010  -11.4950 C.2     1  UNL1        0.2610
      9  O         17.4950  -21.0010  -11.8300 O.2     1  UNL1       -0.2670
     10  C         18.6960  -22.3670  -10.2860 C.2     1  UNL1        0.1010
     11  C         19.9130  -22.8700  -10.0020 C.2     1  UNL1        0.0400
     12  C         21.0740  -22.5930  -10.8280 C.2     1  UNL1        0.0340
     13  H         19.6010  -20.6930  -13.0420 H       1  UNL1        0.1690
     14  C         17.5500  -22.7040   -9.3770 C.2     1  UNL1        0.2610
     15  O         16.5150  -23.1700   -9.8420 O.2     1  UNL1       -0.2670
     16  N         17.7850  -22.4460   -8.0420 N.am    1  UNL1       -0.3230
     17  H         18.6990  -22.0570   -7.8070 H       1  UNL1        0.1690
     18  C         16.9140  -22.6530   -6.9520 C.2     1  UNL1        0.0370
     19  C         17.4030  -23.4300   -5.8900 C.2     1  UNL1        0.0290
     20  C         16.6130  -23.6890   -4.7670 C.2     1  UNL1        0.0050
     21  C         15.3230  -23.1720   -4.6960 C.2     1  UNL1        0.0420
     22  C         14.8400  -22.4030   -5.7470 C.2     1  UNL1        0.1180
     23  F         13.5980  -21.9070   -5.6760 F       1  UNL1       -0.2060
     24  C         15.6210  -22.1390   -6.8710 C.2     1  UNL1        0.0710
     25  C         24.5700  -21.4480  -13.1260 C.2     1  UNL1        0.0570
     26  C         25.7720  -22.0920  -13.3300 C.2     1  UNL1        0.0350
     27  C         26.3960  -21.4350  -14.4180 C.2     1  UNL1        0.0270
     28  C         25.5360  -20.4350  -14.8080 C.2     1  UNL1        0.1420
     29  O         24.4240  -20.4350  -14.0280 O.2     1  UNL1       -0.3270
@<TRIPOS>BOND
     1    28    27    2
     2    28    29    1
     3    27    26    1
     4    29    25    1
     5    26    25    2
     6    25     4    1
     7    13     7    1
     8     5     4    1
     9     5     6    1
    10     7     6    1
    11     7     8   am
    12     4     3    1
    13     6    12    2
    14     9     8    2
    15     3     2    1
    16     8    10    1
    17    12     2    1
    18    12    11    1
    19     2     1    2
    20    10    11    2
    21    10    14    1
    22    15    14    2
    23    14    16   am
    24    16    17    1
    25    16    18    1
    26    18    24    2
    27    18    19    1
    28    24    22    1
    29    19    20    2
    30    22    23    1
    31    22    21    2
    32    20    21    1
