@<TRIPOS>MOLECULE
45510_out_ligand_01.pdbqt
 32 36 0 0 0
SMALL
GASTEIGER

@<TRIPOS>ATOM
      1  O         24.8950  -23.2530  -10.7380 O.2     1  UNL1       -0.2920
      2  C         24.2160  -22.7530  -11.6330 C.2     1  UNL1        0.1620
      3  C         24.8000  -22.4890  -13.0010 C.3     1  UNL1        0.0950
      4  C         24.1840  -21.2330  -13.6100 C.3     1  UNL1        0.0560
      5  C         22.6560  -21.3650  -13.6860 C.3     1  UNL1        0.0690
      6  C         22.0650  -21.8310  -12.3800 C.2     1  UNL1        0.0270
      7  N         20.7230  -21.5830  -12.1850 N.am    1  UNL1       -0.3250
      8  C         20.0230  -21.9270  -11.0510 C.2     1  UNL1        0.2610
      9  O         18.8250  -21.6780  -10.9450 O.2     1  UNL1       -0.2670
     10  C         20.7910  -22.6090   -9.9690 C.2     1  UNL1        0.1010
     11  C         22.1020  -22.8400  -10.1810 C.2     1  UNL1        0.0400
     12  C         22.7660  -22.4480  -11.4120 C.2     1  UNL1        0.0340
     13  H         20.1790  -21.1230  -12.9070 H       1  UNL1        0.1690
     14  C         20.1890  -23.0480   -8.6670 C.2     1  UNL1        0.2610
     15  O         20.3810  -24.1900   -8.2580 O.2     1  UNL1       -0.2670
     16  N         19.4450  -22.0800   -8.0250 N.am    1  UNL1       -0.3230
     17  H         19.3760  -21.1740   -8.4920 H       1  UNL1        0.1690
     18  C         18.7570  -22.1810   -6.7970 C.2     1  UNL1        0.0370
     19  C         19.0320  -21.3920   -5.6780 C.2     1  UNL1        0.0320
     20  C         18.3060  -21.5610   -4.4930 C.2     1  UNL1        0.0420
     21  C         17.3040  -22.5230   -4.4210 C.2     1  UNL1        0.1020
     22  C         17.0040  -23.2980   -5.5420 C.2     1  UNL1        0.1040
     23  O         16.6500  -22.6480   -3.2220 O.2     1  UNL1       -0.3460
     24  C         17.7370  -23.1380   -6.7200 C.2     1  UNL1        0.0690
     25  O         16.0090  -24.2420   -5.5590 O.2     1  UNL1       -0.3460
     26  C         15.1210  -24.0820   -4.4470 C.3     1  UNL1        0.2020
     27  C         15.9040  -23.8680   -3.1610 C.3     1  UNL1        0.2020
     28  C         24.7670  -20.9410  -14.9530 C.2     1  UNL1        0.0570
     29  C         25.8200  -20.1570  -15.3740 C.2     1  UNL1        0.0350
     30  C         25.8810  -20.2950  -16.7820 C.2     1  UNL1        0.0270
     31  C         24.8620  -21.1520  -17.1280 C.2     1  UNL1        0.1420
     32  O         24.1810  -21.5490  -16.0230 O.2     1  UNL1       -0.3270
@<TRIPOS>BOND
     1    31    30    2
     2    31    32    1
     3    30    29    1
     4    32    28    1
     5    29    28    2
     6    28     4    1
     7     5     4    1
     8     5     6    1
     9     4     3    1
    10     3     2    1
    11    13     7    1
    12     6     7    1
    13     6    12    2
    14     7     8   am
    15     2    12    1
    16     2     1    2
    17    12    11    1
    18     8     9    2
    19     8    10    1
    20    11    10    2
    21    10    14    1
    22    14    15    2
    23    14    16   am
    24    17    16    1
    25    16    18    1
    26    18    24    2
    27    18    19    1
    28    24    22    1
    29    19    20    2
    30    25    22    1
    31    25    26    1
    32    22    21    2
    33    20    21    1
    34    26    27    1
    35    21    23    1
    36    23    27    1
