@<TRIPOS>MOLECULE
4560_out_ligand_01.pdbqt
 30 33 0 0 0
SMALL
GASTEIGER

@<TRIPOS>ATOM
      1  C         21.0890  -22.5580   -9.2630 C.2     1  UNL1        0.0350
      2  C         22.2280  -22.0190   -8.6460 C.2     1  UNL1        0.0310
      3  C         23.3750  -21.7270   -9.3900 C.2     1  UNL1        0.0270
      4  C         23.3800  -21.9690  -10.7660 C.2     1  UNL1        0.0750
      5  C         22.2580  -22.5160  -11.3900 C.2     1  UNL1        0.0270
      6  C         21.1140  -22.8040  -10.6370 C.2     1  UNL1        0.0310
      7  N         19.9760  -22.8180   -8.4380 N.am    1  UNL1       -0.3230
      8  C         18.6470  -22.5500   -8.7090 C.2     1  UNL1        0.2570
      9  O         18.1680  -22.0830   -9.7340 O.2     1  UNL1       -0.2670
     10  H         20.1700  -23.2700   -7.5530 H       1  UNL1        0.1690
     11  C         17.7250  -22.9480   -7.6160 C.2     1  UNL1        0.0430
     12  C         16.7240  -23.8670   -7.9590 C.2     1  UNL1        0.0180
     13  C         15.8580  -24.3410   -6.9820 C.2     1  UNL1        0.0020
     14  C         15.9880  -23.8950   -5.6670 C.2     1  UNL1        0.0120
     15  C         16.9700  -22.9550   -5.3100 C.2     1  UNL1       -0.0250
     16  C         17.0710  -22.5090   -3.9830 C.2     1  UNL1        0.0120
     17  C         17.8560  -22.4500   -6.2930 C.2     1  UNL1       -0.0100
     18  C         18.0230  -21.5580   -3.6140 C.2     1  UNL1        0.0010
     19  C         18.8830  -21.0350   -4.5700 C.2     1  UNL1        0.0010
     20  C         18.7990  -21.4700   -5.8940 C.2     1  UNL1        0.0130
     21  S         24.8370  -21.6400  -11.7240 S.O2    1  UNL1        0.2470
     22  O         25.6300  -20.6430  -11.0400 O.2     1  UNL1       -0.2050
     23  O         24.4180  -21.4260  -13.0960 O.2     1  UNL1       -0.2050
     24  N         25.5980  -23.1400  -11.7350 N.pl3   1  UNL1       -0.1590
     25  H         25.0410  -23.8060  -11.2070 H       1  UNL1        0.1480
     26  C         25.9430  -23.5820  -13.0630 C.2     1  UNL1        0.1580
     27  N         25.2920  -24.5620  -13.6370 N.2     1  UNL1       -0.2400
     28  C         25.7990  -24.7560  -14.9070 C.2     1  UNL1        0.1260
     29  C         26.8020  -23.8890  -15.2860 C.2     1  UNL1        0.0720
     30  S         27.1210  -22.7880  -14.0090 S.3     1  UNL1       -0.0680
@<TRIPOS>BOND
     1    29    28    2
     2    29    30    1
     3    28    27    1
     4    30    26    1
     5    27    26    2
     6    23    21    2
     7    26    24    1
     8    24    21    1
     9    24    25    1
    10    21    22    2
    11    21     4    1
    12     5     4    2
    13     5     6    1
    14     4     3    1
    15     6     1    2
    16     9     8    2
    17     3     2    2
    18     1     2    1
    19     1     7    1
    20     8     7   am
    21     8    11    1
    22     7    10    1
    23    12    11    2
    24    12    13    1
    25    11    17    1
    26    13    14    2
    27    17    20    1
    28    17    15    2
    29    20    19    2
    30    14    15    1
    31    15    16    1
    32    19    18    1
    33    16    18    2
