@<TRIPOS>MOLECULE
45609_out_ligand_01.pdbqt
 32 35 0 0 0
SMALL
GASTEIGER

@<TRIPOS>ATOM
      1  C         14.9420  -22.3470   -8.6590 C.3     1  UNL1        0.0500
      2  C         16.1730  -22.5410   -7.7970 C.ar    1  UNL1       -0.0260
      3  C         17.4450  -22.7350   -8.3770 C.ar    1  UNL1        0.0810
      4  C         17.6190  -22.7790   -9.8010 C.1     1  UNL1        0.1020
      5  N         17.7410  -22.7970  -10.9550 N.1     1  UNL1       -0.1910
      6  C         18.5460  -22.9080   -7.5360 C.ar    1  UNL1        0.0890
      7  N         18.4300  -22.9280   -6.1850 N.ar    1  UNL1       -0.2460
      8  C         17.2260  -22.7560   -5.6240 C.ar    1  UNL1        0.0680
      9  C         17.1480  -22.7710   -4.2360 C.2     1  UNL1        0.0320
     10  C         15.9400  -22.5900   -3.5610 C.2     1  UNL1        0.0020
     11  C         14.7760  -22.3920   -4.2870 C.2     1  UNL1        0.0010
     12  C         14.8290  -22.3830   -5.6830 C.2     1  UNL1        0.0140
     13  C         16.0510  -22.5560   -6.3800 C.ar    1  UNL1        0.0000
     14  C         19.9320  -23.0880   -8.0060 C.2     1  UNL1       -0.0060
     15  C         20.3370  -24.2530   -8.6820 C.2     1  UNL1        0.0150
     16  C         21.6540  -24.4030   -9.1390 C.2     1  UNL1        0.0180
     17  C         22.5870  -23.3750   -8.9460 C.2     1  UNL1        0.0320
     18  C         22.1970  -22.2110   -8.2710 C.2     1  UNL1        0.0180
     19  C         20.8830  -22.0680   -7.8140 C.2     1  UNL1        0.0150
     20  C         23.9920  -23.4600   -9.4370 C.2     1  UNL1        0.2510
     21  O         24.8490  -24.0380   -8.7770 O.2     1  UNL1       -0.2680
     22  N         24.2760  -22.8220  -10.6230 N.am    1  UNL1       -0.3510
     23  H         23.5860  -22.2390  -11.0740 H       1  UNL1        0.1630
     24  C         25.6360  -22.7960  -11.1240 C.3     1  UNL1        0.1920
     25  C         26.0190  -21.4040  -11.4960 C.ar    1  UNL1        0.1180
     26  N         26.0150  -20.3720  -10.6740 N.ar    1  UNL1       -0.1430
     27  N         26.4040  -19.2070  -11.3040 N.ar    1  UNL1       -0.1240
     28  C         26.7060  -19.3930  -12.5690 C.ar    1  UNL1        0.1870
     29  S         26.5450  -21.0260  -13.0880 S.2     1  UNL1       -0.0320
     30  N         27.1190  -18.4220  -13.4050 N.pl3   1  UNL1       -0.3770
     31  H         26.4160  -17.8880  -13.9100 H       1  UNL1        0.1580
     32  H         27.9530  -18.6350  -13.9470 H       1  UNL1        0.1580
@<TRIPOS>BOND
     1    32    30    1
     2    31    30    1
     3    30    28    1
     4    29    28   ar
     5    29    25   ar
     6    28    27   ar
     7    25    24    1
     8    25    26   ar
     9    27    26   ar
    10    24    22    1
    11    23    22    1
    12     5     4    3
    13    22    20   am
    14     4     3    1
    15    20    17    1
    16    20    21    2
    17    16    17    2
    18    16    15    1
    19    17    18    1
    20    15    14    2
    21     1     2    1
    22     3     2   ar
    23     3     6   ar
    24    18    19    2
    25    14    19    1
    26    14     6    1
    27     2    13   ar
    28     6     7   ar
    29    13    12    1
    30    13     8   ar
    31     7     8   ar
    32    12    11    2
    33     8     9    1
    34    11    10    1
    35     9    10    2
