@<TRIPOS>MOLECULE
45617_out_ligand_01.pdbqt
 30 33 0 0 0
SMALL
GASTEIGER

@<TRIPOS>ATOM
      1  C         18.8810  -22.7690   -7.5620 C.ar    1  UNL1        0.0890
      2  N         18.7570  -22.6940   -6.2130 N.ar    1  UNL1       -0.2460
      3  C         17.5360  -22.6020   -5.6680 C.ar    1  UNL1        0.0680
      4  C         17.4450  -22.5390   -4.2850 C.2     1  UNL1        0.0320
      5  C         16.2170  -22.4470   -3.6300 C.2     1  UNL1        0.0020
      6  C         15.0470  -22.4130   -4.3730 C.2     1  UNL1        0.0010
      7  C         15.1140  -22.4710   -5.7660 C.2     1  UNL1        0.0140
      8  C         16.3560  -22.5690   -6.4420 C.ar    1  UNL1        0.0000
      9  C         16.4870  -22.6380   -7.8580 C.ar    1  UNL1       -0.0260
     10  C         15.2520  -22.6020   -8.7290 C.3     1  UNL1        0.0500
     11  C         17.7780  -22.7310   -8.4190 C.ar    1  UNL1        0.0810
     12  C         17.9760  -22.7690   -9.8390 C.1     1  UNL1        0.1020
     13  N         18.1200  -22.8180  -10.9910 N.1     1  UNL1       -0.1910
     14  C         20.2810  -22.8880   -8.0120 C.2     1  UNL1       -0.0060
     15  C         21.2170  -21.8630   -7.7900 C.2     1  UNL1        0.0150
     16  C         22.5420  -21.9860   -8.2250 C.2     1  UNL1        0.0180
     17  C         22.9510  -23.1370   -8.9090 C.2     1  UNL1        0.0320
     18  C         22.0310  -24.1640   -9.1380 C.2     1  UNL1        0.0180
     19  C         20.7080  -24.0350   -8.7020 C.2     1  UNL1        0.0150
     20  C         24.3510  -23.3160   -9.3860 C.2     1  UNL1        0.2520
     21  N         24.8140  -22.3870  -10.2890 N.am    1  UNL1       -0.3490
     22  H         24.1500  -21.8030  -10.7760 H       1  UNL1        0.1630
     23  O         25.0230  -24.2670   -9.0030 O.2     1  UNL1       -0.2680
     24  C         26.1340  -22.5400  -10.8720 C.3     1  UNL1        0.2110
     25  C         26.0610  -23.3000  -12.1420 C.ar    1  UNL1        0.1860
     26  N         26.4730  -24.5210  -12.4120 N.ar    1  UNL1       -0.1250
     27  N         26.1600  -24.7560  -13.7350 N.ar    1  UNL1       -0.1270
     28  C         25.5770  -23.6650  -14.1780 C.ar    1  UNL1        0.1650
     29  C         25.0320  -23.3590  -15.5100 C.3     1  UNL1        0.1020
     30  O         25.4690  -22.6910  -13.2230 O.2     1  UNL1       -0.2760
@<TRIPOS>BOND
     1    29    28    1
     2    28    27   ar
     3    28    30   ar
     4    27    26   ar
     5    30    25   ar
     6    26    25   ar
     7    25    24    1
     8    13    12    3
     9    24    21    1
    10    22    21    1
    11    21    20   am
    12    12    11    1
    13    20    23    2
    14    20    17    1
    15    18    17    2
    16    18    19    1
    17    17    16    1
    18    10     9    1
    19    19    14    2
    20    11     9   ar
    21    11     1   ar
    22    16    15    2
    23    14    15    1
    24    14     1    1
    25     9     8   ar
    26     1     2   ar
    27     8     7    1
    28     8     3   ar
    29     2     3   ar
    30     7     6    2
    31     3     4    1
    32     6     5    1
    33     4     5    2
