@<TRIPOS>MOLECULE
45627_out_ligand_01.pdbqt
 32 36 0 0 0
SMALL
GASTEIGER

@<TRIPOS>ATOM
      1  C         18.8500  -21.3070  -11.1800 C.2     1  UNL1        0.1430
      2  C         17.6480  -20.6700  -11.4460 C.2     1  UNL1        0.0450
      3  C         16.6390  -21.3810  -10.7520 C.2     1  UNL1        0.0370
      4  C         17.2720  -22.4140  -10.0980 C.2     1  UNL1        0.0820
      5  O         18.6080  -22.3750  -10.3550 O.2     1  UNL1       -0.3080
      6  C         20.2310  -21.0670  -11.5850 C.2     1  UNL1        0.2820
      7  N         20.9370  -22.2200  -11.8450 N.am    1  UNL1       -0.2840
      8  H         20.5160  -23.1280  -11.7620 H       1  UNL1        0.1720
      9  O         20.7000  -19.9370  -11.6800 O.2     1  UNL1       -0.2650
     10  C         22.2410  -22.1910  -12.2370 C.ar    1  UNL1        0.2750
     11  N         23.3350  -22.6740  -11.7030 N.ar    1  UNL1       -0.1020
     12  N         24.3690  -22.3370  -12.5520 N.ar    1  UNL1       -0.1190
     13  C         23.8410  -21.6650  -13.5590 C.ar    1  UNL1        0.2130
     14  O         22.4750  -21.5380  -13.4150 O.2     1  UNL1       -0.2540
     15  C         24.5770  -21.1300  -14.6640 C.ar    1  UNL1        0.0860
     16  C         24.7620  -21.6720  -15.9290 C.ar    1  UNL1        0.0530
     17  N         25.5360  -20.9030  -16.7880 N.ar    1  UNL1       -0.2500
     18  C         24.2320  -22.9600  -16.4500 C.3     1  UNL1        0.0720
     19  C         25.9270  -19.8020  -16.1840 C.ar    1  UNL1        0.0720
     20  C         26.7720  -18.7520  -16.8140 C.3     1  UNL1        0.0780
     21  S         25.3970  -19.6230  -14.5650 S.2     1  UNL1       -0.0690
     22  C         16.7910  -23.5090   -9.2030 C.3     1  UNL1        0.3370
     23  N         17.4160  -23.4520   -7.8690 N.3     1  UNL1        0.0990
     24  C         17.7330  -22.0520   -7.4910 C.3     1  UNL1        0.2780
     25  C         19.0250  -21.8550   -6.6800 C.3     1  UNL1        0.0690
     26  C         20.1640  -22.4820   -7.4360 C.2     1  UNL1       -0.0490
     27  C         21.4200  -21.8840   -7.5530 C.2     1  UNL1        0.0070
     28  C         19.9130  -23.7280   -8.0350 C.2     1  UNL1       -0.0240
     29  C         22.4220  -22.5230   -8.2830 C.2     1  UNL1        0.0010
     30  C         22.1750  -23.7580   -8.8850 C.2     1  UNL1        0.0010
     31  C         20.9250  -24.3660   -8.7570 C.2     1  UNL1        0.0090
     32  C         18.5680  -24.3680   -7.7860 C.3     1  UNL1        0.3120
@<TRIPOS>BOND
     1    20    19    1
     2    17    19   ar
     3    17    16   ar
     4    18    16    1
     5    19    21   ar
     6    16    15   ar
     7    15    21   ar
     8    15    13    1
     9    13    14   ar
    10    13    12   ar
    11    14    10   ar
    12    12    11   ar
    13    10     7    1
    14    10    11   ar
    15     7     8    1
    16     7     6   am
    17     9     6    2
    18     6     1    1
    19     2     1    2
    20     2     3    1
    21     1     5    1
    22     3     4    2
    23     5     4    1
    24     4    22    1
    25    22    23    1
    26    30    31    2
    27    30    29    1
    28    31    28    1
    29    29    27    2
    30    28    32    1
    31    28    26    2
    32    23    32    1
    33    23    24    1
    34    27    26    1
    35    24    25    1
    36    26    25    1
