@<TRIPOS>MOLECULE
45629_out_ligand_01.pdbqt
 29 32 0 0 0
SMALL
GASTEIGER

@<TRIPOS>ATOM
      1  C         22.1780  -22.5090  -11.0250 C.2     1  UNL1        0.0320
      2  C         21.2020  -21.6590  -11.5590 C.2     1  UNL1        0.0170
      3  C         19.8710  -21.7930  -11.1570 C.2     1  UNL1        0.0100
      4  C         19.4970  -22.7720  -10.2200 C.2     1  UNL1       -0.0410
      5  C         20.4860  -23.6200   -9.6940 C.2     1  UNL1        0.0100
      6  C         21.8190  -23.4850  -10.0850 C.2     1  UNL1        0.0170
      7  C         23.6080  -22.3950  -11.4140 C.2     1  UNL1        0.2510
      8  O         24.2700  -21.4300  -11.0520 O.2     1  UNL1       -0.2680
      9  N         24.1250  -23.4550  -12.1350 N.am    1  UNL1       -0.3570
     10  H         23.6080  -24.3240  -12.1450 H       1  UNL1        0.1620
     11  C         25.5480  -23.5340  -12.4170 C.3     1  UNL1        0.1270
     12  C         25.8590  -24.2540  -13.7380 C.3     1  UNL1        0.0580
     13  C         25.5030  -23.4260  -14.9540 C.2     1  UNL1       -0.0570
     14  C         24.8440  -24.0110  -16.0460 C.2     1  UNL1        0.0070
     15  C         24.5240  -23.2500  -17.1730 C.2     1  UNL1        0.0010
     16  C         24.8660  -21.9000  -17.2200 C.2     1  UNL1        0.0000
     17  C         25.5260  -21.3100  -16.1420 C.2     1  UNL1        0.0010
     18  C         25.8430  -22.0690  -15.0150 C.2     1  UNL1        0.0070
     19  C         18.0490  -22.8860   -9.7870 C.3     1  UNL1        0.1550
     20  N         17.7960  -22.7980   -8.3490 N.3     1  UNL1       -0.4040
     21  C         17.0710  -23.9350   -7.7720 C.3     1  UNL1        0.1220
     22  C         17.5220  -24.4050   -6.3800 C.3     1  UNL1        0.0580
     23  C         17.8690  -23.2440   -5.4950 C.2     1  UNL1       -0.0490
     24  C         17.5990  -23.2340   -4.1240 C.2     1  UNL1        0.0080
     25  C         18.5400  -22.1620   -6.0890 C.2     1  UNL1       -0.0340
     26  C         17.9800  -22.1360   -3.3490 C.2     1  UNL1        0.0010
     27  C         18.6390  -21.0540   -3.9400 C.2     1  UNL1        0.0010
     28  C         18.9260  -21.0690   -5.3050 C.2     1  UNL1        0.0090
     29  C         18.8960  -22.2670   -7.5530 C.3     1  UNL1        0.1560
@<TRIPOS>BOND
     1    16    15    2
     2    16    17    1
     3    15    14    1
     4    17    18    2
     5    14    13    2
     6    18    13    1
     7    13    12    1
     8    12    11    1
     9    11     9    1
    10    10     9    1
    11     9     7   am
    12     2     3    1
    13     2     1    2
    14     7     8    2
    15     7     1    1
    16     3     4    2
    17     1     6    1
    18     4    19    1
    19     4     5    1
    20     6     5    2
    21    19    20    1
    22    20    21    1
    23    20    29    1
    24    21    22    1
    25    29    25    1
    26    22    23    1
    27    25    23    2
    28    25    28    1
    29    23    24    1
    30    28    27    2
    31    24    26    2
    32    27    26    1
