@<TRIPOS>MOLECULE
45636_out_ligand_01.pdbqt
 24 26 0 0 0
SMALL
GASTEIGER

@<TRIPOS>ATOM
      1  C         19.6140  -21.5640  -12.1940 C.3     1  UNL1        0.0500
      2  C         20.1130  -22.0190  -10.8420 C.ar    1  UNL1       -0.0260
      3  C         19.2330  -22.1800   -9.7510 C.ar    1  UNL1        0.0810
      4  C         17.8230  -21.9570   -9.8900 C.1     1  UNL1        0.1020
      5  N         16.6850  -21.7700  -10.0190 N.1     1  UNL1       -0.1910
      6  C         19.7540  -22.5980   -8.5230 C.ar    1  UNL1        0.0890
      7  N         21.0710  -22.8830   -8.3530 N.ar    1  UNL1       -0.2460
      8  C         21.9150  -22.7380   -9.3830 C.ar    1  UNL1        0.0680
      9  C         23.2550  -23.0310   -9.1720 C.2     1  UNL1        0.0320
     10  C         24.2060  -22.9120  -10.1860 C.2     1  UNL1        0.0020
     11  C         23.8110  -22.4920  -11.4460 C.2     1  UNL1        0.0010
     12  C         22.4700  -22.1930  -11.6830 C.2     1  UNL1        0.0140
     13  C         21.4960  -22.3070  -10.6610 C.ar    1  UNL1        0.0000
     14  C         18.9540  -22.7940   -7.3000 C.2     1  UNL1       -0.0060
     15  C         18.2620  -24.0010   -7.0910 C.2     1  UNL1        0.0150
     16  C         17.5010  -24.2120   -5.9360 C.2     1  UNL1        0.0180
     17  C         17.4190  -23.2140   -4.9600 C.2     1  UNL1        0.0310
     18  C         18.1250  -22.0200   -5.1380 C.2     1  UNL1        0.0180
     19  C         18.8840  -21.8140   -6.2960 C.2     1  UNL1        0.0150
     20  C         16.6280  -23.3880   -3.7140 C.2     1  UNL1        0.2490
     21  N         16.0800  -22.2670   -3.1530 N.am    1  UNL1       -0.3660
     22  H         16.4090  -21.3410   -3.3840 H       1  UNL1        0.1590
     23  H         15.6660  -22.3960   -2.2380 H       1  UNL1        0.1590
     24  O         16.4960  -24.4820   -3.1810 O.2     1  UNL1       -0.2680
@<TRIPOS>BOND
     1     1     2    1
     2    12    11    2
     3    12    13    1
     4    11    10    1
     5     2    13   ar
     6     2     3   ar
     7    13     8   ar
     8    10     9    2
     9     5     4    3
    10     4     3    1
    11     3     6   ar
    12     8     9    1
    13     8     7   ar
    14     6     7   ar
    15     6    14    1
    16    14    15    2
    17    14    19    1
    18    15    16    1
    19    19    18    2
    20    16    17    2
    21    18    17    1
    22    17    20    1
    23    20    24    2
    24    20    21   am
    25    22    21    1
    26    21    23    1
