@<TRIPOS>MOLECULE
45631_out_ligand_01.pdbqt
 31 32 0 0 0
SMALL
GASTEIGER

@<TRIPOS>ATOM
      1  C         20.2080  -21.8480  -11.2310 C.2     1  UNL1        0.0340
      2  C         19.0490  -21.5260  -11.9390 C.2     1  UNL1        0.0180
      3  C         17.8000  -21.7110  -11.3400 C.2     1  UNL1        0.0220
      4  C         17.6850  -22.2250  -10.0360 C.2     1  UNL1        0.0340
      5 BR         15.9040  -22.4340   -9.4170 Br      1  UNL1       -0.0490
      6  C         18.8450  -22.5590   -9.3320 C.2     1  UNL1        0.0970
      7  C         20.1040  -22.3710   -9.9380 C.2     1  UNL1        0.0430
      8  C         21.5610  -21.6920  -11.8310 C.2     1  UNL1        0.2560
      9  O         21.6540  -21.0610  -12.8770 O.2     1  UNL1       -0.2670
     10  N         22.5820  -22.3150  -11.1360 N.am    1  UNL1       -0.3230
     11  H         22.3130  -22.9010  -10.3560 H       1  UNL1        0.1690
     12  C         23.9580  -22.3040  -11.4510 C.2     1  UNL1        0.0370
     13  C         24.8800  -21.4160  -10.8890 C.2     1  UNL1        0.0290
     14  C         26.2330  -21.4650  -11.2440 C.2     1  UNL1        0.0050
     15  C         26.6840  -22.4050  -12.1670 C.2     1  UNL1        0.0360
     16  C         25.7670  -23.2990  -12.7300 C.2     1  UNL1        0.1050
     17  C         24.4090  -23.2530  -12.3770 C.2     1  UNL1        0.0650
     18  N         26.2280  -24.2980  -13.6990 N.pl3   1  UNL1       -0.1160
     19  O         27.0710  -25.1240  -13.3170 O.2     1  UNL1       -0.5320
     20  O         25.7520  -24.2590  -14.8430 O.2     1  UNL1       -0.5320
     21  S         18.8850  -23.1920   -7.6710 S.O2    1  UNL1        0.2600
     22  O         19.6340  -22.3320   -6.7890 O.2     1  UNL1       -0.2000
     23  O         19.1990  -24.6010   -7.7680 O.2     1  UNL1       -0.2000
     24  N         17.2680  -23.1170   -7.2410 N.3     1  UNL1       -0.3110
     25  H         16.6590  -22.7610   -7.9760 H       1  UNL1        0.1720
     26  C         16.7230  -24.0060   -6.2080 C.3     1  UNL1        0.0930
     27  C         17.3610  -23.6500   -4.8600 C.3     1  UNL1        0.0260
     28  C         16.8680  -22.3190   -4.2950 C.3     1  UNL1        0.0020
     29  C         15.3460  -22.2630   -4.2300 C.3     1  UNL1        0.0000
     30  C         14.7140  -22.5560   -5.5870 C.3     1  UNL1        0.0020
     31  C         15.1960  -23.8890   -6.1600 C.3     1  UNL1        0.0260
@<TRIPOS>BOND
     1    20    18    2
     2    18    19    2
     3    18    16    1
     4     9     8    2
     5    16    17    1
     6    16    15    2
     7    17    12    2
     8    15    14    1
     9     2     3    1
    10     2     1    2
    11     8     1    1
    12     8    10   am
    13    12    10    1
    14    12    13    1
    15     3     4    2
    16    14    13    2
    17     1     7    1
    18    10    11    1
    19     4     6    1
    20     7     6    2
    21     6    21    1
    22    25    24    1
    23    23    21    2
    24    21    24    1
    25    21    22    2
    26    24    26    1
    27    26    31    1
    28    26    27    1
    29    31    30    1
    30    30    29    1
    31    27    28    1
    32    28    29    1
