@<TRIPOS>MOLECULE
45633_out_ligand_01.pdbqt
 33 35 0 0 0
SMALL
GASTEIGER

@<TRIPOS>ATOM
      1  C         19.2910  -22.7200   -9.1140 C.2     1  UNL1        0.0550
      2  C         20.6830  -22.8890   -9.0470 C.2     1  UNL1        0.0440
      3  C         21.4900  -22.4380  -10.0930 C.2     1  UNL1        0.0810
      4  C         20.9290  -21.7900  -11.1970 C.2     1  UNL1        0.0270
      5  C         19.5420  -21.6310  -11.2670 C.2     1  UNL1        0.0260
      6  C         18.7190  -22.1030  -10.2350 C.2     1  UNL1        0.0490
      7 CL         17.0150  -21.9170  -10.4410 Cl      1  UNL1       -0.0830
      8  C         18.5030  -23.2590   -7.9780 C.2     1  UNL1        0.2580
      9  O         18.6390  -24.4460   -7.7130 O.2     1  UNL1       -0.2670
     10  N         17.7470  -22.3290   -7.2980 N.am    1  UNL1       -0.3220
     11  H         17.7800  -21.3640   -7.6330 H       1  UNL1        0.1690
     12  C         16.9090  -22.5190   -6.1720 C.2     1  UNL1        0.0510
     13  C         15.6750  -23.1750   -6.2740 C.2     1  UNL1        0.0300
     14  C         14.8520  -23.3520   -5.1570 C.2     1  UNL1        0.0020
     15  C         15.2480  -22.8740   -3.9140 C.2     1  UNL1        0.0010
     16  C         16.4700  -22.2200   -3.7880 C.2     1  UNL1        0.0200
     17  C         17.3090  -22.0360   -4.9050 C.2     1  UNL1        0.0640
     18  C         18.5870  -21.3210   -4.6270 C.2     1  UNL1        0.1780
     19  O         19.3830  -20.9370   -5.4660 O.2     1  UNL1       -0.6460
     20  O         18.8340  -21.0960   -3.3200 O.3     1  UNL1       -0.7730
     21  H         18.2670  -21.7690   -2.8800 H       1  UNL1        0.1670
     22  S         23.2570  -22.6440   -9.9970 S.O2    1  UNL1        0.2630
     23  O         23.5360  -23.5820   -8.9320 O.2     1  UNL1       -0.2000
     24  O         23.8410  -21.3190  -10.0010 O.2     1  UNL1       -0.2000
     25  N         23.6430  -23.3320  -11.4860 N.pl3   1  UNL1       -0.2810
     26  H         23.7080  -24.3480  -11.4410 H       1  UNL1        0.1790
     27  C         24.4910  -22.6400  -12.3940 C.2     1  UNL1        0.0450
     28  C         25.8800  -22.7290  -12.2970 C.2     1  UNL1        0.0300
     29  C         26.6930  -22.0780  -13.2290 C.2     1  UNL1        0.0050
     30  C         26.1130  -21.3300  -14.2520 C.2     1  UNL1        0.0420
     31  C         24.7290  -21.2370  -14.3300 C.2     1  UNL1        0.1180
     32  F         24.1700  -20.5160  -15.3100 F       1  UNL1       -0.2060
     33  C         23.9100  -21.8820  -13.4090 C.2     1  UNL1        0.0720
@<TRIPOS>BOND
     1    32    31    1
     2    31    30    2
     3    31    33    1
     4    30    29    1
     5    33    27    2
     6    29    28    2
     7    27    28    1
     8    27    25    1
     9    25    26    1
    10    25    22    1
    11     5     4    2
    12     5     6    1
    13     4     3    1
    14     7     6    1
    15     6     1    2
    16     3    22    1
    17     3     2    2
    18    24    22    2
    19    22    23    2
    20     1     2    1
    21     1     8    1
    22     8     9    2
    23     8    10   am
    24    11    10    1
    25    10    12    1
    26    13    12    2
    27    13    14    1
    28    12    17    1
    29    19    18    2
    30    14    15    2
    31    17    18    1
    32    17    16    2
    33    18    20    1
    34    15    16    1
    35    20    21    1
