@<TRIPOS>MOLECULE
45642_out_ligand_01.pdbqt
 32 35 0 0 0
SMALL
GASTEIGER

@<TRIPOS>ATOM
      1  C         18.8090  -22.1530   -9.8400 C.2     1  UNL1        0.0330
      2  C         18.5620  -21.3940  -11.0140 C.2     1  UNL1        0.0180
      3  C         19.5620  -21.1880  -11.9720 C.2     1  UNL1        0.0190
      4  C         20.7940  -21.7590  -11.7260 C.2     1  UNL1        0.0480
      5  C         21.0370  -22.5080  -10.5890 C.2     1  UNL1        0.0490
      6  C         20.0690  -22.7340   -9.6280 C.2     1  UNL1        0.0350
      7  C         22.4250  -22.9580  -10.6460 C.2     1  UNL1        0.2620
      8  O         22.9610  -23.6240   -9.7810 O.2     1  UNL1       -0.2670
      9  N         22.9430  -22.4700  -11.8120 N.am    1  UNL1       -0.2760
     10  C         22.0270  -21.7380  -12.5130 C.2     1  UNL1        0.2620
     11  O         22.1520  -21.1610  -13.5750 O.2     1  UNL1       -0.2670
     12  C         17.6830  -22.3320   -8.8720 C.2     1  UNL1        0.2560
     13  O         16.5410  -22.1970   -9.2940 O.2     1  UNL1       -0.2670
     14  N         18.0590  -22.6040   -7.5720 N.am    1  UNL1       -0.3220
     15  H         19.0520  -22.5770   -7.3470 H       1  UNL1        0.1690
     16  C         17.2340  -22.8520   -6.4450 C.2     1  UNL1        0.0510
     17  C         16.1560  -23.7450   -6.5020 C.2     1  UNL1        0.0300
     18  C         15.3510  -23.9810   -5.3820 C.2     1  UNL1        0.0020
     19  C         15.6100  -23.3290   -4.1830 C.2     1  UNL1        0.0010
     20  C         16.6800  -22.4400   -4.1030 C.2     1  UNL1        0.0200
     21  C         17.4990  -22.1950   -5.2210 C.2     1  UNL1        0.0640
     22  C         18.6110  -21.2280   -4.9930 C.2     1  UNL1        0.1780
     23  O         19.5150  -20.9900   -5.7740 O.2     1  UNL1       -0.6460
     24  O         18.5630  -20.5820   -3.8080 O.3     1  UNL1       -0.7730
     25  H         19.2580  -21.0490   -3.2890 H       1  UNL1        0.1670
     26  C         24.2920  -22.7270  -12.2650 C.3     1  UNL1        0.1750
     27  C         25.1460  -21.4920  -12.1900 C.2     1  UNL1       -0.0220
     28  C         25.5910  -20.8410  -13.3450 C.2     1  UNL1        0.0120
     29  C         26.3990  -19.7150  -13.2340 C.2     1  UNL1        0.0200
     30  C         26.7440  -19.2770  -11.9650 C.2     1  UNL1        0.1160
     31  N         26.3450  -19.8870  -10.8280 N.2     1  UNL1       -0.2730
     32  C         25.5620  -20.9800  -10.9650 C.2     1  UNL1        0.1240
@<TRIPOS>BOND
     1    11    10    2
     2    28    29    1
     3    28    27    2
     4    29    30    2
     5    10     9   am
     6    10     4    1
     7    26    27    1
     8    26     9    1
     9    27    32    1
    10     3     4    2
    11     3     2    1
    12    30    31    1
    13     9     7   am
    14     4     5    1
    15     2     1    2
    16    32    31    2
    17     7     5    1
    18     7     8    2
    19     5     6    2
    20     1     6    1
    21     1    12    1
    22    13    12    2
    23    12    14   am
    24    14    15    1
    25    14    16    1
    26    17    16    2
    27    17    18    1
    28    16    21    1
    29    23    22    2
    30    18    19    2
    31    21    22    1
    32    21    20    2
    33    22    24    1
    34    19    20    1
    35    24    25    1
