@<TRIPOS>MOLECULE
45653_out_ligand_01.pdbqt
 32 35 0 0 0
SMALL
GASTEIGER

@<TRIPOS>ATOM
      1  C         18.7790  -22.7810   -9.7670 C.2     1  UNL1        0.0340
      2  C         17.8890  -21.8860  -10.3670 C.2     1  UNL1        0.0170
      3  C         18.3340  -21.0570  -11.3970 C.2     1  UNL1        0.0030
      4  C         19.6650  -21.1140  -11.8230 C.2     1  UNL1        0.0290
      5  C         20.5690  -21.9930  -11.2210 C.2     1  UNL1        0.0350
      6  C         20.1170  -22.8200  -10.1860 C.2     1  UNL1        0.0460
      7  C         18.3630  -23.6870   -8.6600 C.2     1  UNL1        0.2510
      8  O         19.1710  -24.4670   -8.1720 O.2     1  UNL1       -0.2680
      9  N         17.0400  -23.6060   -8.2690 N.am    1  UNL1       -0.3560
     10  H         16.3970  -23.1880   -8.9260 H       1  UNL1        0.1620
     11  C         16.5000  -24.5380   -7.2990 C.3     1  UNL1        0.1290
     12  C         16.2420  -23.9520   -5.8990 C.3     1  UNL1        0.0260
     13  C         14.9430  -23.1320   -5.8110 C.3     1  UNL1        0.0100
     14  C         14.9240  -22.1700   -4.6230 C.3     1  UNL1        0.0200
     15  C         15.8130  -22.6260   -3.4720 C.3     1  UNL1        0.1170
     16  N         17.1830  -22.9770   -3.8450 N.3     1  UNL1       -0.4080
     17  C         18.2200  -22.2180   -3.1550 C.3     1  UNL1        0.1170
     18  C         17.4540  -23.2140   -5.2750 C.3     1  UNL1        0.0840
     19  C         18.5300  -20.8940   -3.8440 C.3     1  UNL1        0.0190
     20  C         18.9470  -21.1380   -5.2860 C.3     1  UNL1        0.0040
     21  C         17.8840  -21.9390   -6.0340 C.3     1  UNL1        0.0250
     22  N         21.9310  -22.0940  -11.5790 N.am    1  UNL1       -0.3230
     23  C         23.0230  -21.7090  -10.8210 C.2     1  UNL1        0.2570
     24  O         23.0020  -21.1340   -9.7410 O.2     1  UNL1       -0.2670
     25  H         22.1030  -22.4230  -12.5220 H       1  UNL1        0.1690
     26  C         24.3460  -21.9940  -11.4250 C.2     1  UNL1        0.0510
     27  C         25.5120  -21.3930  -10.9640 C.2     1  UNL1        0.1330
     28  N         26.7390  -21.6330  -11.4880 N.2     1  UNL1       -0.2710
     29  C         26.7950  -22.4880  -12.5380 C.2     1  UNL1        0.1350
     30  C         25.6800  -23.1120  -13.0800 C.2     1  UNL1        0.0290
     31 BR         25.8510  -24.2810  -14.5490 Br      1  UNL1       -0.0500
     32  C         24.4340  -22.8590  -12.5180 C.2     1  UNL1        0.0390
@<TRIPOS>BOND
     1    31    30    1
     2    30    29    2
     3    30    32    1
     4    29    28    1
     5    25    22    1
     6    32    26    2
     7     4     3    2
     8     4     5    1
     9    22     5    1
    10    22    23   am
    11    28    27    2
    12    26    27    1
    13    26    23    1
    14     3     2    1
    15     5     6    2
    16    23    24    2
    17     2     1    2
    18     6     1    1
    19     1     7    1
    20    10     9    1
    21     7     9   am
    22     7     8    2
    23     9    11    1
    24    11    12    1
    25    21    20    1
    26    21    18    1
    27    12    13    1
    28    12    18    1
    29    13    14    1
    30    20    19    1
    31    18    16    1
    32    14    15    1
    33    16    15    1
    34    16    17    1
    35    19    17    1
