@<TRIPOS>MOLECULE
45651_out_ligand_01.pdbqt
 30 33 0 0 0
SMALL
GASTEIGER

@<TRIPOS>ATOM
      1  C         18.6620  -22.9310   -9.7760 C.2     1  UNL1        0.0320
      2  C         18.9250  -22.0320  -10.8150 C.2     1  UNL1        0.0190
      3  C         20.2360  -21.8470  -11.2760 C.2     1  UNL1        0.0300
      4  C         21.2980  -22.5610  -10.7130 C.2     1  UNL1        0.0350
      5  C         21.0250  -23.4730   -9.6850 C.2     1  UNL1        0.0300
      6  C         19.7190  -23.6600   -9.2220 C.2     1  UNL1        0.0190
      7  C         17.2890  -23.1630   -9.2500 C.2     1  UNL1        0.2510
      8  O         16.3190  -22.7630   -9.8820 O.2     1  UNL1       -0.2680
      9  N         17.1960  -23.8640   -8.0650 N.am    1  UNL1       -0.3560
     10  H         18.0230  -24.3000   -7.6800 H       1  UNL1        0.1620
     11  C         15.9170  -24.2220   -7.4760 C.3     1  UNL1        0.1290
     12  C         15.8570  -23.8930   -5.9750 C.3     1  UNL1        0.0260
     13  C         14.6490  -23.0040   -5.6260 C.3     1  UNL1        0.0100
     14  C         14.8460  -22.1950   -4.3450 C.3     1  UNL1        0.0200
     15  C         15.8530  -22.8260   -3.3900 C.3     1  UNL1        0.1170
     16  N         17.1380  -23.1830   -3.9880 N.3     1  UNL1       -0.4080
     17  C         18.2970  -22.5210   -3.3990 C.3     1  UNL1        0.1170
     18  C         17.1830  -23.2850   -5.4560 C.3     1  UNL1        0.0840
     19  C         18.5820  -21.1570   -4.0180 C.3     1  UNL1        0.0190
     20  C         18.7750  -21.2900   -5.5220 C.3     1  UNL1        0.0040
     21  C         17.5650  -21.9630   -6.1630 C.3     1  UNL1        0.0250
     22  N         22.6430  -22.4360  -11.1170 N.am    1  UNL1       -0.3210
     23  C         23.6530  -21.6990  -10.5090 C.2     1  UNL1        0.2790
     24  O         23.5030  -21.0470   -9.4800 O.2     1  UNL1       -0.2650
     25  H         22.8980  -22.9600  -11.9410 H       1  UNL1        0.1690
     26  C         24.9370  -21.7700  -11.2000 C.2     1  UNL1        0.1420
     27  C         26.1070  -21.0280  -11.1350 C.2     1  UNL1        0.0450
     28  C         27.0120  -21.5970  -12.0670 C.2     1  UNL1        0.0270
     29  C         26.3510  -22.6510  -12.6440 C.2     1  UNL1        0.1430
     30  O         25.1030  -22.7660  -12.1310 O.2     1  UNL1       -0.3170
@<TRIPOS>BOND
     1    29    30    1
     2    29    28    2
     3    30    26    1
     4    28    27    1
     5    25    22    1
     6     3     2    1
     7     3     4    2
     8    26    27    2
     9    26    23    1
    10    22     4    1
    11    22    23   am
    12     2     1    2
    13     4     5    1
    14    23    24    2
    15     8     7    2
    16     1     7    1
    17     1     6    1
    18     5     6    2
    19     7     9   am
    20     9    10    1
    21     9    11    1
    22    11    12    1
    23    21    20    1
    24    21    18    1
    25    12    13    1
    26    12    18    1
    27    13    14    1
    28    20    19    1
    29    18    16    1
    30    14    15    1
    31    19    17    1
    32    16    17    1
    33    16    15    1
