@<TRIPOS>MOLECULE
45650_out_ligand_01.pdbqt
 31 34 0 0 0
SMALL
GASTEIGER

@<TRIPOS>ATOM
      1  C         19.2610  -22.0750  -10.2240 C.2     1  UNL1        0.0340
      2  C         18.6290  -21.1220  -11.0290 C.2     1  UNL1        0.0170
      3  C         19.2820  -20.6350  -12.1610 C.2     1  UNL1        0.0030
      4  C         20.5650  -21.0890  -12.4870 C.2     1  UNL1        0.0290
      5  C         21.2120  -22.0300  -11.6830 C.2     1  UNL1        0.0350
      6  C         20.5530  -22.5130  -10.5470 C.2     1  UNL1        0.0460
      7  C         18.6170  -22.6290   -9.0010 C.2     1  UNL1        0.2510
      8  O         17.4910  -23.1060   -9.0730 O.2     1  UNL1       -0.2680
      9  N         19.3450  -22.5390   -7.8340 N.am    1  UNL1       -0.3560
     10  H         20.1830  -21.9740   -7.8180 H       1  UNL1        0.1620
     11  C         18.8140  -22.9740   -6.5480 C.3     1  UNL1        0.1290
     12  C         18.0010  -21.8520   -5.8680 C.3     1  UNL1        0.0370
     13  C         18.8650  -21.0860   -4.8390 C.3     1  UNL1        0.0100
     14  C         18.4890  -21.3930   -3.3890 C.3     1  UNL1        0.0310
     15  C         18.0780  -22.8520   -3.1990 C.3     1  UNL1        0.2730
     16  N         16.9960  -23.2960   -4.0900 N.3     1  UNL1        0.0930
     17  C         15.7820  -23.6550   -3.3460 C.3     1  UNL1        0.2730
     18  C         16.7030  -22.3550   -5.1860 C.3     1  UNL1        0.2280
     19  C         14.7310  -24.2810   -4.2640 C.3     1  UNL1        0.0300
     20  C         14.4200  -23.3870   -5.4590 C.3     1  UNL1        0.0040
     21  C         15.7090  -22.9890   -6.1740 C.3     1  UNL1        0.0360
     22  N         22.5090  -22.5230  -11.9320 N.am    1  UNL1       -0.3230
     23  C         23.6590  -22.2670  -11.2060 C.2     1  UNL1        0.2560
     24  O         23.7720  -21.5010  -10.2570 O.2     1  UNL1       -0.2670
     25  H         22.6130  -23.0750  -12.7740 H       1  UNL1        0.1690
     26  C         24.8740  -22.9860  -11.6860 C.2     1  UNL1        0.0320
     27  C         25.9620  -23.2400  -10.8410 C.2     1  UNL1        0.0170
     28  C         27.0820  -23.9170  -11.3320 C.2     1  UNL1        0.0010
     29  C         27.1190  -24.3330  -12.6640 C.2     1  UNL1        0.0000
     30  C         26.0450  -24.0660  -13.5120 C.2     1  UNL1        0.0010
     31  C         24.9260  -23.3880  -13.0260 C.2     1  UNL1        0.0170
@<TRIPOS>BOND
     1    30    31    1
     2    30    29    2
     3    31    26    2
     4    25    22    1
     5    29    28    1
     6     4     3    2
     7     4     5    1
     8     3     2    1
     9    22     5    1
    10    22    23   am
    11    26    23    1
    12    26    27    1
    13     5     6    2
    14    28    27    2
    15    23    24    2
    16     2     1    2
    17     6     1    1
    18     1     7    1
    19     8     7    2
    20     7     9   am
    21     9    10    1
    22     9    11    1
    23    11    12    1
    24    21    20    1
    25    21    18    1
    26    12    18    1
    27    12    13    1
    28    20    19    1
    29    18    16    1
    30    13    14    1
    31    19    17    1
    32    16    17    1
    33    16    15    1
    34    14    15    1
