@<TRIPOS>MOLECULE
45665_out_ligand_01.pdbqt
 33 37 0 0 0
SMALL
GASTEIGER

@<TRIPOS>ATOM
      1  C         20.6580  -22.1980  -10.4770 C.2     1  UNL1        0.0360
      2  C         19.9890  -21.5340  -11.5070 C.2     1  UNL1        0.0320
      3  C         20.6560  -21.2070  -12.6920 C.2     1  UNL1        0.0350
      4  C         22.0060  -21.5250  -12.8870 C.2     1  UNL1        0.0750
      5  C         22.6750  -22.2060  -11.8520 C.2     1  UNL1        0.0630
      6  C         21.9980  -22.5380  -10.6590 C.2     1  UNL1        0.0490
      7  C         24.0950  -22.6430  -11.9440 C.2     1  UNL1        0.2570
      8  O         24.4350  -23.7050  -11.4300 O.2     1  UNL1       -0.2670
      9  N         24.9860  -21.8250  -12.6000 N.am    1  UNL1       -0.3360
     10  C         26.3830  -22.1770  -12.7580 C.3     1  UNL1        0.1270
     11  C         26.9100  -21.1600  -13.7580 C.3     1  UNL1        0.0220
     12  C         26.0730  -19.9170  -13.4570 C.3     1  UNL1        0.0350
     13  C         24.7020  -20.4830  -13.0880 C.3     1  UNL1        0.1640
     14  C         23.7280  -20.6860  -14.2290 C.2     1  UNL1        0.1610
     15  N         22.5320  -21.1640  -14.1450 N.2     1  UNL1       -0.2260
     16  N         19.9160  -22.4840   -9.3120 N.am    1  UNL1       -0.3230
     17  C         19.8930  -23.6680   -8.6010 C.2     1  UNL1        0.2580
     18  O         20.4930  -24.7050   -8.8510 O.2     1  UNL1       -0.2670
     19  H         19.3240  -21.7350   -8.9700 H       1  UNL1        0.1690
     20  C         18.9890  -23.6590   -7.4320 C.2     1  UNL1        0.0610
     21  C         18.1190  -24.7380   -7.3160 C.2     1  UNL1        0.1370
     22  N         17.1820  -24.8490   -6.3490 N.2     1  UNL1       -0.2350
     23  C         17.1430  -23.8400   -5.4630 C.2     1  UNL1        0.1730
     24  C         17.9790  -22.7170   -5.4490 C.2     1  UNL1        0.0280
     25  C         17.8860  -21.7030   -4.4720 C.2     1  UNL1        0.0170
     26  C         18.9540  -22.6240   -6.4670 C.2     1  UNL1       -0.0040
     27  C         18.7560  -20.6160   -4.4800 C.2     1  UNL1        0.0010
     28  C         19.7390  -20.5270   -5.4580 C.2     1  UNL1        0.0010
     29  C         19.8420  -21.5190   -6.4350 C.2     1  UNL1        0.0130
     30  O         16.1760  -24.0140   -4.5240 O.2     1  UNL1       -0.3440
     31  H         15.4210  -23.6060   -4.9870 H       1  UNL1        0.2190
     32  O         24.1490  -20.3430  -15.4520 O.2     1  UNL1       -0.3460
     33  H         24.3740  -21.1680  -15.9170 H       1  UNL1        0.2190
@<TRIPOS>BOND
     1    33    32    1
     2    32    14    1
     3    14    15    2
     4    14    13    1
     5    15     4    1
     6    11    12    1
     7    11    10    1
     8    12    13    1
     9    13     9    1
    10     4     3    2
    11     4     5    1
    12    10     9    1
    13     3     2    1
    14     9     7   am
    15     7     5    1
    16     7     8    2
    17     5     6    2
    18     2     1    2
    19     6     1    1
    20     1    16    1
    21    16    19    1
    22    16    17   am
    23    18    17    2
    24    17    20    1
    25    20    21    2
    26    20    26    1
    27    21    22    1
    28    26    29    1
    29    26    24    2
    30    29    28    2
    31    22    23    2
    32    23    24    1
    33    23    30    1
    34    28    27    1
    35    24    25    1
    36    31    30    1
    37    27    25    2
