@<TRIPOS>MOLECULE
45677_out_ligand_01.pdbqt
 37 41 0 0 0
SMALL
GASTEIGER

@<TRIPOS>ATOM
      1  C         19.7620  -21.6860  -11.5720 C.2     1  UNL1        0.0350
      2  C         18.8480  -20.6890  -11.9150 C.2     1  UNL1        0.0290
      3  C         17.5940  -20.6290  -11.2970 C.2     1  UNL1        0.0030
      4  C         17.2440  -21.5630  -10.3220 C.2     1  UNL1        0.0170
      5  C         18.1580  -22.5570   -9.9590 C.2     1  UNL1        0.0340
      6  C         19.4060  -22.6230  -10.5950 C.2     1  UNL1        0.0460
      7  N         21.0350  -21.8280  -12.1650 N.am    1  UNL1       -0.3230
      8  C         22.2630  -21.7920  -11.5310 C.2     1  UNL1        0.2560
      9  O         22.4700  -21.7140  -10.3260 O.2     1  UNL1       -0.2670
     10  H         21.0340  -22.0390  -13.1550 H       1  UNL1        0.1690
     11  C         23.4350  -21.8940  -12.4430 C.2     1  UNL1        0.0370
     12  C         24.6460  -22.4540  -12.0090 C.2     1  UNL1        0.0570
     13  C         25.7360  -22.5370  -12.8820 C.2     1  UNL1        0.1050
     14  C         25.5970  -22.0610  -14.1970 C.2     1  UNL1        0.1350
     15  C         24.3690  -21.5480  -14.6370 C.2     1  UNL1        0.1050
     16  O         26.6960  -22.1390  -15.0240 O.2     1  UNL1       -0.3440
     17  C         23.2920  -21.4530  -13.7610 C.2     1  UNL1        0.0570
     18  O         24.1480  -21.1070  -15.9180 O.2     1  UNL1       -0.3460
     19  C         25.1690  -21.5610  -16.8120 C.3     1  UNL1        0.2020
     20  C         26.5400  -21.3420  -16.2000 C.3     1  UNL1        0.2020
     21  O         26.9630  -23.0540  -12.5540 O.2     1  UNL1       -0.3530
     22  C         26.9960  -24.2270  -11.7510 C.3     1  UNL1        0.2100
     23  C         17.8420  -23.5830   -8.9300 C.2     1  UNL1        0.2510
     24  O         18.7440  -24.2400   -8.4240 O.2     1  UNL1       -0.2680
     25  N         16.5140  -23.7040   -8.5740 N.am    1  UNL1       -0.3560
     26  H         15.8550  -23.0100   -8.8980 H       1  UNL1        0.1620
     27  C         16.0920  -24.6040   -7.5170 C.3     1  UNL1        0.1290
     28  C         15.5280  -23.8710   -6.2870 C.3     1  UNL1        0.0370
     29  C         15.1710  -22.4230   -6.6500 C.3     1  UNL1        0.0100
     30  C         14.5340  -21.6780   -5.4760 C.3     1  UNL1        0.0310
     31  C         14.6500  -22.4340   -4.1540 C.3     1  UNL1        0.2730
     32  N         15.9640  -23.0270   -3.9250 N.3     1  UNL1        0.0930
     33  C         16.9730  -22.0820   -3.4420 C.3     1  UNL1        0.2730
     34  C         16.4060  -23.9490   -4.9970 C.3     1  UNL1        0.2280
     35  C         17.8330  -21.4520   -4.5360 C.3     1  UNL1        0.0300
     36  C         18.4620  -22.4880   -5.4620 C.3     1  UNL1        0.0040
     37  C         17.9350  -23.8920   -5.2040 C.3     1  UNL1        0.0360
@<TRIPOS>BOND
     1    19    20    1
     2    19    18    1
     3    20    16    1
     4    18    15    1
     5    16    14    1
     6    15    14    2
     7    15    17    1
     8    14    13    1
     9    17    11    2
    10    10     7    1
    11    13    21    1
    12    13    12    2
    13    21    22    1
    14    11    12    1
    15    11     8    1
    16     7     1    1
    17     7     8   am
    18     2     1    2
    19     2     3    1
    20     1     6    1
    21     8     9    2
    22     3     4    2
    23     6     5    2
    24     4     5    1
    25     5    23    1
    26    23    25   am
    27    23    24    2
    28    26    25    1
    29    25    27    1
    30    27    28    1
    31    29    28    1
    32    29    30    1
    33    28    34    1
    34    30    31    1
    35    36    37    1
    36    36    35    1
    37    37    34    1
    38    34    32    1
    39    35    33    1
    40    31    32    1
    41    32    33    1
