@<TRIPOS>MOLECULE
45680_out_ligand_01.pdbqt
 34 38 0 0 0
SMALL
GASTEIGER

@<TRIPOS>ATOM
      1  C         17.2360  -22.2730   -9.9430 C.2     1  UNL1        0.0340
      2  C         16.6640  -21.3240  -10.7960 C.2     1  UNL1        0.0170
      3  C         17.4660  -20.6560  -11.7200 C.2     1  UNL1        0.0030
      4  C         18.8340  -20.9350  -11.8000 C.2     1  UNL1        0.0290
      5  C         19.4150  -21.8900  -10.9640 C.2     1  UNL1        0.0350
      6  C         18.6050  -22.5620  -10.0410 C.2     1  UNL1        0.0460
      7  C         16.4350  -23.0200   -8.9360 C.2     1  UNL1        0.2510
      8  O         15.9900  -24.1260   -9.2170 O.2     1  UNL1       -0.2680
      9  N         16.2800  -22.4110   -7.7080 N.am    1  UNL1       -0.3560
     10  H         16.7860  -21.5610   -7.5070 H       1  UNL1        0.1620
     11  C         15.5490  -23.0320   -6.6120 C.3     1  UNL1        0.1290
     12  C         16.4880  -23.7450   -5.6140 C.3     1  UNL1        0.0370
     13  C         15.7570  -24.1410   -4.3190 C.3     1  UNL1        0.0100
     14  C         15.4400  -22.9190   -3.4630 C.3     1  UNL1        0.0310
     15  C         16.6950  -22.0920   -3.1990 C.3     1  UNL1        0.2730
     16  N         17.4100  -21.7200   -4.4360 N.3     1  UNL1        0.0930
     17  C         18.6070  -20.9390   -4.0720 C.3     1  UNL1        0.2730
     18  C         17.7530  -22.9150   -5.2380 C.3     1  UNL1        0.2280
     19  C         19.4290  -20.5250   -5.2910 C.3     1  UNL1        0.0300
     20  C         19.8230  -21.7420   -6.1150 C.3     1  UNL1        0.0040
     21  C         18.5750  -22.5330   -6.4860 C.3     1  UNL1        0.0360
     22  N         20.7810  -22.2410  -10.9920 N.am    1  UNL1       -0.3230
     23  C         21.7150  -21.9000  -11.9560 C.2     1  UNL1        0.2560
     24  O         21.5380  -21.1710  -12.9250 O.2     1  UNL1       -0.2670
     25  H         21.1170  -22.7460  -10.1820 H       1  UNL1        0.1690
     26  C         23.0800  -22.4590  -11.7330 C.2     1  UNL1        0.0350
     27  C         23.5640  -22.5290  -10.4070 C.2     1  UNL1        0.0200
     28  C         24.8340  -23.0460  -10.1380 C.2     1  UNL1        0.0410
     29  C         25.5900  -23.4710  -11.2080 C.2     1  UNL1        0.1050
     30  C         25.1280  -23.3880  -12.5010 C.2     1  UNL1        0.1060
     31  O         26.8410  -23.9980  -11.1360 O.2     1  UNL1       -0.3230
     32  C         23.8820  -22.8830  -12.8030 C.2     1  UNL1        0.0560
     33  O         26.0350  -23.8500  -13.4040 O.2     1  UNL1       -0.3230
     34  C         27.1200  -24.2310  -12.5330 C.3     1  UNL1        0.3520
@<TRIPOS>BOND
     1    33    34    1
     2    33    30    1
     3    24    23    2
     4    32    30    1
     5    32    26    2
     6    34    31    1
     7    30    29    2
     8    23    26    1
     9    23    22   am
    10     4     3    2
    11     4     5    1
    12    26    27    1
    13     3     2    1
    14    29    31    1
    15    29    28    1
    16    22     5    1
    17    22    25    1
    18     5     6    2
    19     2     1    2
    20    27    28    2
    21     6     1    1
    22     1     7    1
    23     8     7    2
    24     7     9   am
    25     9    10    1
    26     9    11    1
    27    11    12    1
    28    21    20    1
    29    21    18    1
    30    20    19    1
    31    12    18    1
    32    12    13    1
    33    19    17    1
    34    18    16    1
    35    16    17    1
    36    16    15    1
    37    13    14    1
    38    14    15    1
