@<TRIPOS>MOLECULE
45704_out_ligand_01.pdbqt
 35 39 0 0 0
SMALL
GASTEIGER

@<TRIPOS>ATOM
      1  N         21.3700  -21.7730  -10.3620 N.am    1  UNL1       -0.3510
      2  C         22.5980  -22.2060  -10.7980 C.2     1  UNL1        0.2180
      3  O         22.7500  -23.0230  -11.6980 O.2     1  UNL1       -0.2740
      4  H         21.3180  -20.9740   -9.7420 H       1  UNL1        0.1630
      5  C         20.1430  -22.2160  -10.9810 C.3     1  UNL1        0.1350
      6  C         19.4950  -21.0800  -11.8050 C.3     1  UNL1        0.0320
      7  C         17.9940  -21.3200  -12.0580 C.3     1  UNL1        0.0070
      8  C         17.1950  -21.4160  -10.7420 C.3     1  UNL1        0.0420
      9  C         17.8880  -22.3040   -9.7650 C.ar    1  UNL1       -0.0210
     10  C         19.2210  -22.6380   -9.8900 C.ar    1  UNL1        0.0400
     11  C         17.3970  -22.9440   -8.5910 C.ar    1  UNL1        0.0020
     12  N         19.5500  -23.4860   -8.8680 N.ar    1  UNL1       -0.3570
     13  C         18.4580  -23.6760   -8.0510 C.ar    1  UNL1        0.0430
     14  H         20.4630  -23.9000   -8.7340 H       1  UNL1        0.1660
     15  C         18.3250  -24.4400   -6.8870 C.2     1  UNL1        0.0330
     16  C         17.0760  -24.4490   -6.2610 C.2     1  UNL1        0.0390
     17  C         15.9940  -23.7280   -6.7690 C.2     1  UNL1        0.0690
     18  C         16.1460  -22.9730   -7.9380 C.2     1  UNL1        0.0510
     19  O         14.8420  -23.8430   -6.0360 O.2     1  UNL1       -0.3560
     20  C         14.9800  -23.8550   -4.6210 C.3     1  UNL1        0.2100
     21  C         23.7550  -21.5510  -10.0690 C.3     1  UNL1        0.1030
     22  C         25.1160  -21.9910  -10.6120 C.3     1  UNL1        0.0170
     23  C         25.9010  -20.8700  -11.3040 C.3     1  UNL1        0.0810
     24  C         25.6860  -20.8440  -12.7950 C.2     1  UNL1        0.1290
     25  N         25.8020  -19.6590  -13.4160 N.2     1  UNL1       -0.2090
     26  C         25.6310  -19.6960  -14.7420 C.2     1  UNL1        0.1760
     27  C         25.3510  -20.8270  -15.4920 C.2     1  UNL1        0.0450
     28  C         25.1690  -20.8450  -16.8940 C.2     1  UNL1        0.0180
     29  C         25.2540  -21.9990  -14.7410 C.2     1  UNL1        0.0730
     30  C         24.8850  -22.0410  -17.5460 C.2     1  UNL1        0.0010
     31  C         24.7760  -23.2110  -16.8040 C.2     1  UNL1        0.0020
     32  C         24.9590  -23.1780  -15.4170 C.2     1  UNL1        0.0320
     33  N         25.4320  -22.0170  -13.4100 N.pl3   1  UNL1       -0.2330
     34  O         25.7560  -18.4730  -15.3250 O.2     1  UNL1       -0.3440
     35  H         26.1810  -18.7240  -16.1640 H       1  UNL1        0.2190
@<TRIPOS>BOND
     1    30    28    1
     2    30    31    2
     3    28    27    2
     4    31    32    1
     5    35    34    1
     6    27    26    1
     7    27    29    1
     8    32    29    2
     9    34    26    1
    10    26    25    2
    11    29    33    1
    12    25    24    2
    13    33    24    1
    14    24    23    1
    15     7     6    1
    16     7     8    1
    17     6     5    1
    18     3     2    2
    19    23    22    1
    20     5     1    1
    21     5    10    1
    22     2     1   am
    23     2    21    1
    24     8     9    1
    25    22    21    1
    26     1     4    1
    27    10     9   ar
    28    10    12   ar
    29     9    11   ar
    30    12    14    1
    31    12    13   ar
    32    11    13   ar
    33    11    18    1
    34    13    15    1
    35    18    17    2
    36    15    16    2
    37    17    16    1
    38    17    19    1
    39    19    20    1
