@<TRIPOS>MOLECULE
45717_out_ligand_01.pdbqt
 39 43 0 0 0
SMALL
GASTEIGER

@<TRIPOS>ATOM
      1  C         17.4420  -22.1820   -9.9390 C.2     1  UNL1        0.0760
      2  C         17.3390  -21.2400  -10.9670 C.2     1  UNL1        0.0380
      3  C         18.4150  -21.0090  -11.8290 C.2     1  UNL1        0.0140
      4  C         19.6070  -21.7140  -11.6690 C.2     1  UNL1       -0.0340
      5  C         19.7150  -22.6580  -10.6440 C.2     1  UNL1        0.0230
      6  C         18.6400  -22.8980   -9.7670 C.2     1  UNL1       -0.0060
      7  C         20.7360  -21.4810  -12.5690 C.2     1  UNL1        0.0330
      8  C         22.0460  -21.4870  -12.2530 C.2     1  UNL1        0.0860
      9  C         23.0150  -21.2700  -13.3570 C.2     1  UNL1        0.2710
     10  C         22.6510  -21.6810  -10.9420 C.2     1  UNL1        0.1830
     11  O         22.6350  -20.7750  -14.4220 O.2     1  UNL1       -0.2660
     12  N         24.3370  -21.5880  -13.0380 N.am    1  UNL1       -0.2250
     13  C         24.7930  -21.8100  -11.7270 C.2     1  UNL1        0.3580
     14  O         25.9740  -22.0310  -11.4680 O.2     1  UNL1       -0.2440
     15  N         23.8950  -21.8020  -10.6870 N.am    1  UNL1       -0.1680
     16  C         25.2890  -21.6110  -14.1160 C.2     1  UNL1        0.0800
     17  C         25.9410  -20.4340  -14.5180 C.2     1  UNL1        0.0330
     18  C         26.8390  -20.4470  -15.5870 C.2     1  UNL1        0.0020
     19  C         27.1120  -21.6370  -16.2550 C.2     1  UNL1        0.0030
     20  C         26.4920  -22.8210  -15.8550 C.2     1  UNL1        0.0390
     21  C         25.5780  -22.8150  -14.7950 C.2     1  UNL1        0.0950
     22  O         25.0340  -23.9740  -14.2900 O.2     1  UNL1       -0.3540
     23  C         25.2890  -25.1400  -15.0740 C.3     1  UNL1        0.2100
     24  O         21.8250  -21.7000   -9.8940 O.2     1  UNL1       -0.3440
     25  H         21.2840  -20.8930   -9.9180 H       1  UNL1        0.2190
     26  C         18.7900  -23.9540   -8.6930 C.3     1  UNL1        0.1770
     27  N         18.5100  -23.4250   -7.3720 N.am    1  UNL1       -0.2760
     28  C         19.1890  -22.3840   -6.7990 C.2     1  UNL1        0.2620
     29  O         20.1290  -21.7340   -7.2160 O.2     1  UNL1       -0.2670
     30  C         18.5880  -22.1740   -5.4820 C.2     1  UNL1        0.0480
     31  C         18.8840  -21.2500   -4.4980 C.2     1  UNL1        0.0180
     32  C         17.5970  -23.1230   -5.3190 C.2     1  UNL1        0.0480
     33  C         18.1330  -21.3080   -3.3200 C.2     1  UNL1        0.0010
     34  C         17.1210  -22.2760   -3.1530 C.2     1  UNL1        0.0010
     35  C         16.8410  -23.2030   -4.1640 C.2     1  UNL1        0.0180
     36  C         17.5590  -23.9360   -6.5330 C.2     1  UNL1        0.2620
     37  O         16.8140  -24.8830   -6.6930 O.2     1  UNL1       -0.2670
     38  O         16.4490  -22.4560   -9.0390 O.2     1  UNL1       -0.3550
     39  C         15.2950  -23.1320   -9.5200 C.3     1  UNL1        0.2100
@<TRIPOS>BOND
     1    19    20    2
     2    19    18    1
     3    20    21    1
     4    18    17    2
     5    23    22    1
     6    21    22    1
     7    21    16    2
     8    17    16    1
     9    11     9    2
    10    16    12    1
    11     9    12   am
    12     9     8    1
    13    12    13   am
    14     7     8    2
    15     7     4    1
    16     8    10    1
    17     3     4    2
    18     3     2    1
    19    13    14    2
    20    13    15    1
    21     4     5    1
    22     2     1    2
    23    10    15    2
    24    10    24    1
    25     5     6    2
    26     1     6    1
    27     1    38    1
    28    25    24    1
    29     6    26    1
    30    39    38    1
    31    26    27    1
    32    27    28   am
    33    27    36   am
    34    29    28    2
    35    28    30    1
    36    37    36    2
    37    36    32    1
    38    30    32    2
    39    30    31    1
    40    32    35    1
    41    31    33    2
    42    35    34    2
    43    33    34    1
