@<TRIPOS>MOLECULE
45724_out_ligand_01.pdbqt
 33 37 0 0 0
SMALL
GASTEIGER

@<TRIPOS>ATOM
      1  C         21.0810  -23.6170   -8.8360 C.2     1  UNL1        0.2360
      2  O         21.1290  -24.8390   -8.9860 O.2     1  UNL1       -0.2720
      3  N         19.8920  -22.9370   -8.7090 N.am    1  UNL1       -0.3500
      4  H         19.9100  -21.9800   -8.3780 H       1  UNL1        0.1630
      5  C         22.3500  -22.7990   -8.6830 C.3     1  UNL1        0.2310
      6  N         23.1380  -22.6920   -9.9040 N.pl3   1  UNL1       -0.3470
      7  C         24.4400  -23.1040  -10.0240 C.2     1  UNL1        0.0920
      8  C         24.8520  -22.8170  -11.3060 C.2     1  UNL1        0.0330
      9  C         23.7610  -22.2150  -12.0030 C.2     1  UNL1        0.0190
     10  C         22.6930  -22.1590  -11.0980 C.2     1  UNL1        0.0470
     11  C         23.5850  -21.7130  -13.3210 C.2     1  UNL1        0.0470
     12  C         21.4460  -21.6220  -11.4500 C.2     1  UNL1        0.0310
     13  C         21.2890  -21.1350  -12.7460 C.2     1  UNL1        0.0050
     14  C         22.3360  -21.1790  -13.6650 C.2     1  UNL1        0.0300
     15  N         24.6790  -21.7790  -14.2140 N.am    1  UNL1       -0.3270
     16  C         25.5800  -20.7780  -14.5270 C.2     1  UNL1        0.2180
     17  C         26.6150  -21.2320  -15.5250 C.3     1  UNL1        0.1170
     18  O         25.6150  -19.6440  -14.0650 O.2     1  UNL1       -0.2740
     19  H         24.8150  -22.6740  -14.6640 H       1  UNL1        0.1690
     20  C         18.5940  -23.5730   -8.8110 C.3     1  UNL1        0.1350
     21  C         17.8080  -22.9820  -10.0090 C.3     1  UNL1        0.0320
     22  C         16.2830  -23.1500   -9.8770 C.3     1  UNL1        0.0070
     23  C         15.7400  -22.4650   -8.6090 C.3     1  UNL1        0.0420
     24  C         16.5590  -22.8440   -7.4230 C.ar    1  UNL1       -0.0210
     25  C         17.8440  -23.3330   -7.5460 C.ar    1  UNL1        0.0400
     26  C         16.2440  -22.8090   -6.0360 C.ar    1  UNL1       -0.0010
     27  N         18.2890  -23.6750   -6.2980 N.ar    1  UNL1       -0.3570
     28  C         17.3460  -23.3310   -5.3540 C.ar    1  UNL1        0.0430
     29  H         19.1800  -24.1190   -6.1050 H       1  UNL1        0.1660
     30  C         17.3810  -23.4570   -3.9600 C.2     1  UNL1        0.0300
     31  C         16.2570  -23.0340   -3.2430 C.2     1  UNL1        0.0020
     32  C         15.1430  -22.5110   -3.8960 C.2     1  UNL1        0.0010
     33  C         15.1220  -22.3960   -5.2920 C.2     1  UNL1        0.0140
@<TRIPOS>BOND
     1    17    16    1
     2    19    15    1
     3    16    15   am
     4    16    18    2
     5    15    11    1
     6    14    11    1
     7    14    13    2
     8    11     9    2
     9    13    12    1
    10     9     8    1
    11     9    10    1
    12    12    10    2
    13     8     7    2
    14    10     6    1
    15     7     6    1
    16    21    22    1
    17    21    20    1
    18     6     5    1
    19    22    23    1
    20     2     1    2
    21     1     3   am
    22     1     5    1
    23    20     3    1
    24    20    25    1
    25     3     4    1
    26    23    24    1
    27    25    24   ar
    28    25    27   ar
    29    24    26   ar
    30    27    29    1
    31    27    28   ar
    32    26    28   ar
    33    26    33    1
    34    28    30    1
    35    33    32    2
    36    30    31    2
    37    32    31    1
