@<TRIPOS>MOLECULE
45722_out_ligand_01.pdbqt
 36 39 0 0 0
SMALL
GASTEIGER

@<TRIPOS>ATOM
      1  C         19.7360  -21.8300  -11.0070 C.2     1  UNL1       -0.0360
      2  C         19.8930  -21.0410  -12.1650 C.2     1  UNL1        0.0090
      3  C         21.0930  -21.0240  -12.8740 C.2     1  UNL1        0.0140
      4  C         22.1490  -21.8270  -12.4500 C.2     1  UNL1       -0.0040
      5  C         22.0320  -22.6120  -11.3020 C.2     1  UNL1        0.0390
      6  C         20.8290  -22.6110  -10.5770 C.2     1  UNL1        0.0820
      7  S         20.7730  -23.6230   -9.1050 S.O2    1  UNL1        0.2460
      8  O         22.1150  -24.0990   -8.8340 O.2     1  UNL1       -0.2060
      9  O         19.6690  -24.5470   -9.2200 O.2     1  UNL1       -0.2060
     10  N         20.4740  -22.4390   -7.9180 N.pl3   1  UNL1       -0.1810
     11  H         21.3370  -22.3420   -7.3810 H       1  UNL1        0.1460
     12  C         19.3560  -22.6700   -7.0550 C.2     1  UNL1        0.0220
     13  C         18.6120  -23.8520   -7.1090 C.2     1  UNL1        0.0250
     14  C         17.5530  -24.0510   -6.2160 C.2     1  UNL1        0.0190
     15  C         17.2500  -23.0740   -5.2580 C.2     1  UNL1        0.0310
     16  C         18.0340  -21.9130   -5.1790 C.2     1  UNL1        0.0190
     17  C         19.0870  -21.7130   -6.0740 C.2     1  UNL1        0.0250
     18  C         16.1320  -23.2380   -4.2920 C.2     1  UNL1        0.2490
     19  N         15.5650  -22.1030   -3.7800 N.am    1  UNL1       -0.3660
     20  H         14.8950  -22.2390   -3.0340 H       1  UNL1        0.1590
     21  H         16.0020  -21.1930   -3.8530 H       1  UNL1        0.1590
     22  O         15.7500  -24.3490   -3.9390 O.2     1  UNL1       -0.2680
     23  C         18.3910  -21.7790  -10.3200 C.3     1  UNL1        0.0350
     24  C         17.3600  -21.0270  -11.1460 C.3     1  UNL1        0.0100
     25  C         23.4470  -21.7810  -13.1580 C.ar    1  UNL1        0.0940
     26  N         23.4380  -21.3010  -14.3610 N.ar    1  UNL1       -0.1690
     27  N         24.6230  -21.2730  -15.0490 N.ar    1  UNL1       -0.2380
     28  C         24.5470  -20.7780  -16.4090 C.3     1  UNL1        0.1830
     29  C         25.8170  -21.7800  -14.5610 C.ar    1  UNL1        0.2700
     30  O         26.8620  -21.8330  -15.2090 O.2     1  UNL1       -0.2660
     31  C         25.7950  -22.2650  -13.1510 C.ar    1  UNL1        0.0200
     32  C         24.6530  -22.2800  -12.4430 C.ar    1  UNL1       -0.0150
     33  C         27.1190  -22.7070  -12.5860 C.3     1  UNL1        0.0450
     34  C         24.5930  -22.7490  -11.0130 C.3     1  UNL1        0.0420
     35  C         25.8560  -23.4880  -10.5570 C.3     1  UNL1        0.0050
     36  C         27.1210  -22.8070  -11.0580 C.3     1  UNL1        0.0050
@<TRIPOS>BOND
     1    28    27    1
     2    30    29    2
     3    27    29   ar
     4    27    26   ar
     5    29    31   ar
     6    26    25   ar
     7    25     4    1
     8    25    32   ar
     9    31    33    1
    10    31    32   ar
    11     3     4    2
    12     3     2    1
    13    33    36    1
    14     4     5    1
    15    32    34    1
    16     2     1    2
    17     5     6    2
    18    24    23    1
    19    36    35    1
    20    34    35    1
    21     1     6    1
    22     1    23    1
    23     6     7    1
    24     9     7    2
    25     7     8    2
    26     7    10    1
    27    10    11    1
    28    10    12    1
    29    13    12    2
    30    13    14    1
    31    12    17    1
    32    14    15    2
    33    17    16    2
    34    15    16    1
    35    15    18    1
    36    18    22    2
    37    18    19   am
    38    21    19    1
    39    19    20    1
