@<TRIPOS>MOLECULE
4572_out_ligand_01.pdbqt
 30 33 0 0 0
SMALL
GASTEIGER

@<TRIPOS>ATOM
      1  C         18.8460  -23.3200   -9.3010 C.2     1  UNL1       -0.0050
      2  C         20.2570  -23.8020   -9.5880 C.2     1  UNL1        0.0410
      3  C         20.8170  -24.9620   -8.7910 C.3     1  UNL1        0.0710
      4  N         21.0490  -23.2980  -10.4880 N.2     1  UNL1       -0.2330
      5  C         20.5770  -22.2660  -11.2410 C.2     1  UNL1        0.1680
      6  C         21.1520  -21.5330  -12.2660 C.2     1  UNL1        0.0980
      7  C         20.1520  -20.6040  -12.6180 C.2     1  UNL1        0.1600
      8  N         19.0480  -20.7090  -11.8830 N.2     1  UNL1       -0.1770
      9  N         19.2960  -21.7500  -11.0430 N.pl3   1  UNL1       -0.2190
     10  C         18.4310  -22.2820  -10.0690 C.2     1  UNL1        0.0430
     11  C         17.0760  -21.6300   -9.9830 C.3     1  UNL1        0.0710
     12  C         22.4740  -21.7250  -12.8340 C.2     1  UNL1        0.2570
     13  O         22.8100  -21.2960  -13.9330 O.2     1  UNL1       -0.2670
     14  N         23.3480  -22.4300  -12.0300 N.am    1  UNL1       -0.3520
     15  H         23.0490  -22.7750  -11.1320 H       1  UNL1        0.1630
     16  C         24.7250  -22.6410  -12.4100 C.3     1  UNL1        0.1620
     17  C         25.5080  -21.3660  -12.2910 C.2     1  UNL1       -0.0230
     18  C         26.1060  -20.7620  -13.4000 C.2     1  UNL1        0.0120
     19  C         26.8380  -19.5900  -13.2360 C.2     1  UNL1        0.0200
     20  C         26.9550  -19.0620  -11.9610 C.2     1  UNL1        0.1160
     21  N         26.4000  -19.6220  -10.8650 N.2     1  UNL1       -0.2730
     22  C         25.6940  -20.7600  -11.0520 C.2     1  UNL1        0.1240
     23  C         18.0580  -23.9660   -8.1880 C.3     1  UNL1        0.0810
     24  C         18.0950  -23.2260   -6.8680 C.2     1  UNL1       -0.0540
     25  C         18.9070  -22.0930   -6.7230 C.2     1  UNL1        0.0080
     26  C         18.9390  -21.3850   -5.5200 C.2     1  UNL1        0.0070
     27  C         18.1570  -21.7940   -4.4360 C.2     1  UNL1       -0.0620
     28  C         18.1670  -21.0160   -3.1530 C.3     1  UNL1        0.0480
     29  C         17.3200  -22.9050   -4.5850 C.2     1  UNL1        0.0070
     30  C         17.2890  -23.6140   -5.7880 C.2     1  UNL1        0.0080
@<TRIPOS>BOND
     1    13    12    2
     2    18    19    1
     3    18    17    2
     4    19    20    2
     5    12     6    1
     6    12    14   am
     7     7     6    1
     8     7     8    2
     9    16    17    1
    10    16    14    1
    11    17    22    1
    12     6     5    2
    13    14    15    1
    14    20    21    1
    15     8     9    1
    16     5     9    1
    17     5     4    1
    18    22    21    2
    19     9    10    1
    20     4     2    2
    21    10    11    1
    22    10     1    2
    23     2     1    1
    24     2     3    1
    25     1    23    1
    26    23    24    1
    27    24    25    2
    28    24    30    1
    29    25    26    1
    30    30    29    2
    31    26    27    2
    32    29    27    1
    33    27    28    1
