@<TRIPOS>MOLECULE
45739_out_ligand_01.pdbqt
 29 33 0 0 0
SMALL
GASTEIGER

@<TRIPOS>ATOM
      1  C         24.7210  -22.8940  -11.4810 C.3     1  UNL1        0.1560
      2  N         25.4030  -22.5090  -12.5320 N.2     1  UNL1       -0.0420
      3  C         24.7400  -21.8200  -13.5160 C.cat   1  UNL1        0.7630
      4  N         25.1550  -21.3170  -14.6630 N.2     1  UNL1        0.0320
      5  N         24.0550  -20.7130  -15.2450 N.2     1  UNL1        0.0340
      6  N         22.9750  -20.8350  -14.4820 N.pl3   1  UNL1        0.0170
      7  N         23.3990  -21.5160  -13.4140 N.pl3   1  UNL1       -0.0590
      8  C         22.6500  -21.9210  -12.3450 C.ar    1  UNL1        0.1280
      9  S         21.0190  -21.6190  -12.1590 S.2     1  UNL1       -0.0710
     10  C         21.0230  -22.5060  -10.6970 C.ar    1  UNL1        0.0200
     11  C         22.2730  -23.0340  -10.3850 C.ar    1  UNL1       -0.0250
     12  C         23.2700  -22.6450  -11.3500 C.ar    1  UNL1        0.0540
     13  C         22.4150  -23.8840   -9.1560 C.3     1  UNL1        0.0710
     14  C         21.0410  -24.3570   -8.6270 C.3     1  UNL1        0.2780
     15  N         20.0750  -23.2420   -8.5450 N.3     1  UNL1        0.0970
     16  C         19.7640  -22.7180   -9.8980 C.3     1  UNL1        0.3190
     17  C         18.8450  -23.6800   -7.8600 C.3     1  UNL1        0.3110
     18  C         18.5910  -22.9570   -6.5550 C.2     1  UNL1       -0.0300
     19  C         17.7990  -23.5440   -5.5570 C.2     1  UNL1        0.0090
     20  C         17.5730  -22.8770   -4.3510 C.2     1  UNL1        0.0010
     21  C         18.1370  -21.6220   -4.1290 C.2     1  UNL1        0.0000
     22  C         18.9270  -21.0310   -5.1120 C.2     1  UNL1        0.0010
     23  C         19.1550  -21.6950   -6.3170 C.2     1  UNL1        0.0090
     24  N         25.2840  -23.5420  -10.4120 N.3     1  UNL1       -0.3710
     25  H         24.9320  -23.2480   -9.5070 H       1  UNL1        0.1610
     26  C         26.7090  -23.8650  -10.3810 C.3     1  UNL1        0.1470
     27  C         27.0720  -24.7160   -9.1560 C.3     1  UNL1        0.1830
     28  O         26.0750  -24.6850   -8.1400 O.3     1  UNL1       -0.3990
     29  H         25.2320  -24.9940   -8.5290 H       1  UNL1        0.2090
@<TRIPOS>BOND
     1     5     4    2
     2     5     6    1
     3     4     3    1
     4     6     7    1
     5     3     7    1
     6     3     2    2
     7     7     8    1
     8     2     1    1
     9     8     9   ar
    10     8    12   ar
    11     9    10   ar
    12     1    12    1
    13     1    24    1
    14    12    11   ar
    15    10    11   ar
    16    10    16    1
    17    24    26    1
    18    24    25    1
    19    11    13    1
    20    26    27    1
    21    16    15    1
    22    13    14    1
    23    27    28    1
    24    14    15    1
    25    15    17    1
    26    29    28    1
    27    17    18    1
    28    18    23    2
    29    18    19    1
    30    23    22    1
    31    19    20    2
    32    22    21    2
    33    20    21    1
