@<TRIPOS>MOLECULE
45784_out_ligand_01.pdbqt
 35 38 0 0 0
SMALL
GASTEIGER

@<TRIPOS>ATOM
      1  N         21.7330  -22.4760  -10.5740 N.am    1  UNL1       -0.3450
      2  C         20.9240  -21.8170  -11.4710 C.2     1  UNL1        0.2550
      3  O         21.2920  -21.2870  -12.5100 O.2     1  UNL1       -0.2680
      4  H         21.2910  -23.0280   -9.8450 H       1  UNL1        0.1630
      5  C         19.5000  -21.8060  -11.1110 C.2     1  UNL1        0.0670
      6  C         18.6470  -20.9250  -11.7810 C.2     1  UNL1        0.0210
      7  C         17.2970  -20.9090  -11.4530 C.2     1  UNL1        0.0200
      8  C         16.8530  -21.7810  -10.4740 C.2     1  UNL1        0.1180
      9  N         17.6570  -22.6490   -9.8190 N.2     1  UNL1       -0.2530
     10  C         18.9810  -22.6450  -10.1270 C.2     1  UNL1        0.1080
     11  S         19.9520  -23.8480   -9.2370 S.3     1  UNL1       -0.1060
     12  C         20.4260  -22.8340   -7.8030 C.3     1  UNL1        0.1080
     13  C         19.2160  -22.4430   -7.0090 C.2     1  UNL1       -0.0150
     14  C         18.3650  -23.3300   -6.4660 C.2     1  UNL1        0.0080
     15  C         17.1870  -22.9580   -5.6710 C.2     1  UNL1       -0.0360
     16  C         17.2190  -22.9120   -4.2710 C.2     1  UNL1        0.0110
     17  C         16.0720  -22.5820   -3.5440 C.2     1  UNL1        0.0010
     18  C         14.8790  -22.3070   -4.2100 C.2     1  UNL1        0.0000
     19  C         14.8310  -22.3660   -5.6030 C.2     1  UNL1        0.0010
     20  C         15.9800  -22.6940   -6.3280 C.2     1  UNL1        0.0110
     21  C         23.1710  -22.7650  -10.7860 C.3     1  UNL1        0.0600
     22  C         23.6070  -23.8170   -9.7450 C.3     1  UNL1        0.0410
     23  C         23.4390  -23.2720  -12.2250 C.3     1  UNL1        0.0710
     24  C         24.8500  -22.9540  -12.7850 C.3     1  UNL1        0.0660
     25  C         25.4010  -24.1980  -13.5360 C.3     1  UNL1        0.0680
     26  O         25.7630  -22.6990  -11.7040 O.3     1  UNL1       -0.3770
     27  C         24.8350  -21.7760  -13.7820 C.3     1  UNL1        0.0680
     28  C         26.3440  -23.8450  -14.6940 C.3     1  UNL1        0.2720
     29  N         27.1190  -22.6380  -14.4190 N.3     1  UNL1        0.0830
     30  C         26.2380  -21.4690  -14.3250 C.3     1  UNL1        0.2720
     31  H         27.5660  -22.7660  -13.5050 H       1  UNL1        0.3150
     32  C         25.4380  -21.6080  -10.8470 C.3     1  UNL1        0.2030
     33  C         23.9390  -21.4370  -10.5890 C.3     1  UNL1        0.1690
     34  O         23.6890  -20.8890   -9.2860 O.3     1  UNL1       -0.3910
     35  H         22.8200  -20.4500   -9.3090 H       1  UNL1        0.2100
@<TRIPOS>BOND
     1    28    29    1
     2    28    25    1
     3    29    30    1
     4    29    31    1
     5    30    27    1
     6    27    24    1
     7    25    24    1
     8    24    23    1
     9    24    26    1
    10     3     2    2
    11    23    21    1
    12     6     7    1
    13     6     5    2
    14    26    32    1
    15     2     5    1
    16     2     1   am
    17     7     8    2
    18     5    10    1
    19    32    33    1
    20    21    33    1
    21    21     1    1
    22    21    22    1
    23    33    34    1
    24     1     4    1
    25     8     9    1
    26    10     9    2
    27    10    11    1
    28    35    34    1
    29    11    12    1
    30    12    13    1
    31    13    14    2
    32    14    15    1
    33    20    15    2
    34    20    19    1
    35    15    16    1
    36    19    18    2
    37    16    17    2
    38    18    17    1
