@<TRIPOS>MOLECULE
45848_out_ligand_01.pdbqt
 33 37 0 0 0
SMALL
GASTEIGER

@<TRIPOS>ATOM
      1  C         22.0010  -22.8260  -10.2530 C.2     1  UNL1        0.0320
      2  C         21.0650  -21.9610  -10.8310 C.2     1  UNL1        0.0170
      3  C         19.7000  -22.1460  -10.6000 C.2     1  UNL1        0.0100
      4  C         19.2490  -23.1900   -9.7790 C.2     1  UNL1       -0.0300
      5  C         20.1950  -24.0490   -9.1970 C.2     1  UNL1        0.0100
      6  C         21.5620  -23.8650   -9.4230 C.2     1  UNL1        0.0170
      7  C         23.4480  -22.5860  -10.5200 C.2     1  UNL1        0.2570
      8  N         23.7150  -21.5290  -11.3750 N.am    1  UNL1       -0.3080
      9  H         22.9450  -20.9460  -11.6670 H       1  UNL1        0.1700
     10  O         24.2690  -23.3010   -9.9560 O.2     1  UNL1       -0.2670
     11  C         25.0010  -21.1800  -11.7620 C.2     1  UNL1        0.1280
     12  C         26.1140  -20.8470  -11.0180 C.2     1  UNL1        0.0710
     13  C         27.1210  -20.5630  -11.9520 C.2     1  UNL1        0.1420
     14  N         26.7020  -20.7100  -13.2080 N.2     1  UNL1       -0.1830
     15  N         25.4140  -21.1010  -13.0800 N.pl3   1  UNL1       -0.2490
     16  C         24.6290  -21.3530  -14.2870 C.3     1  UNL1        0.1150
     17  C         24.5090  -22.8490  -14.6380 C.3     1  UNL1        0.0570
     18  C         25.4770  -23.2340  -15.7530 C.3     1  UNL1        0.2740
     19  N         25.2670  -22.4680  -16.9900 N.3     1  UNL1        0.0840
     20  C         24.4900  -23.2100  -17.9790 C.3     1  UNL1        0.3090
     21  C         24.7240  -21.1220  -16.7870 C.3     1  UNL1        0.2740
     22  C         25.1650  -20.5180  -15.4580 C.3     1  UNL1        0.0570
     23  C         17.7670  -23.3810   -9.5220 C.3     1  UNL1        0.3110
     24  N         17.3310  -23.4310   -8.1240 N.3     1  UNL1        0.0970
     25  C         15.8770  -23.4780   -7.9470 C.3     1  UNL1        0.2770
     26  C         15.5260  -23.8980   -6.5120 C.3     1  UNL1        0.0690
     27  C         16.3130  -23.1420   -5.4700 C.2     1  UNL1       -0.0490
     28  C         15.9140  -23.1730   -4.1270 C.2     1  UNL1        0.0070
     29  C         17.4840  -22.4540   -5.8360 C.2     1  UNL1       -0.0240
     30  C         16.6610  -22.5060   -3.1560 C.2     1  UNL1        0.0010
     31  C         17.8130  -21.8090   -3.5180 C.2     1  UNL1        0.0010
     32  C         18.2220  -21.7810   -4.8510 C.2     1  UNL1        0.0090
     33  C         17.9150  -22.3740   -7.2870 C.3     1  UNL1        0.3110
@<TRIPOS>BOND
     1    20    19    1
     2    19    21    1
     3    19    18    1
     4    21    22    1
     5    18    17    1
     6    22    16    1
     7    17    16    1
     8    16    15    1
     9    14    15    1
    10    14    13    2
    11    15    11    1
    12    13    12    1
    13    11     8    1
    14    11    12    2
    15     9     8    1
    16     8     7   am
    17     2     3    1
    18     2     1    2
    19     3     4    2
    20     7     1    1
    21     7    10    2
    22     1     6    1
    23     4    23    1
    24     4     5    1
    25    23    24    1
    26     6     5    2
    27    24    25    1
    28    24    33    1
    29    25    26    1
    30    33    29    1
    31    26    27    1
    32    29    27    2
    33    29    32    1
    34    27    28    1
    35    32    31    2
    36    28    30    2
    37    31    30    1
