@<TRIPOS>MOLECULE
45864_out_ligand_01.pdbqt
 43 46 0 0 0
SMALL
GASTEIGER

@<TRIPOS>ATOM
      1  C         21.4160  -22.4410  -11.0310 C.2     1  UNL1        0.2560
      2  O         20.3440  -22.0700  -11.4910 O.2     1  UNL1       -0.2670
      3  N         21.6580  -22.9450   -9.7660 N.am    1  UNL1       -0.3230
      4  H         22.5740  -23.3430   -9.6010 H       1  UNL1        0.1690
      5  C         20.7360  -23.0610   -8.7050 C.2     1  UNL1        0.0350
      6  C         20.6220  -21.9680   -7.8330 C.2     1  UNL1        0.0310
      7  C         19.7270  -21.9990   -6.7590 C.2     1  UNL1        0.0270
      8  C         18.9290  -23.1280   -6.5660 C.2     1  UNL1        0.0800
      9  C         19.0350  -24.2250   -7.4210 C.2     1  UNL1        0.0270
     10  C         19.9360  -24.1860   -8.4900 C.2     1  UNL1        0.0310
     11  S         17.7920  -23.1930   -5.2060 S.O2    1  UNL1        0.2630
     12  O         17.6690  -24.5820   -4.8140 O.2     1  UNL1       -0.2000
     13  O         18.1510  -22.1740   -4.2450 O.2     1  UNL1       -0.2000
     14  N         16.3200  -22.7830   -5.9400 N.pl3   1  UNL1       -0.2810
     15  H         15.9990  -21.8790   -5.5970 H       1  UNL1        0.1790
     16  C         16.1790  -23.0400   -7.3300 C.2     1  UNL1        0.0430
     17  C         15.4430  -24.1450   -7.7560 C.2     1  UNL1        0.0300
     18  C         15.2550  -24.3690   -9.1200 C.2     1  UNL1        0.0030
     19  C         15.7930  -23.4840  -10.0560 C.2     1  UNL1        0.0160
     20  C         16.5290  -22.3650   -9.6370 C.2     1  UNL1        0.0500
     21  C         16.7130  -22.1480   -8.2620 C.2     1  UNL1        0.0460
     22  C         17.0940  -21.3810  -10.6310 C.3     1  UNL1        0.4170
     23  F         17.2870  -21.9400  -11.8580 F       1  UNL1       -0.1660
     24  F         16.2770  -20.3100  -10.8330 F       1  UNL1       -0.1660
     25  F         18.3000  -20.8660  -10.2610 F       1  UNL1       -0.1660
     26  C         22.6120  -22.3860  -11.9110 C.2     1  UNL1        0.0320
     27  C         23.6950  -23.2540  -11.7200 C.2     1  UNL1        0.0190
     28  C         24.8070  -23.1680  -12.5590 C.2     1  UNL1        0.0250
     29  C         24.8520  -22.2080  -13.5740 C.2     1  UNL1        0.0250
     30  C         23.7670  -21.3490  -13.7710 C.2     1  UNL1        0.0250
     31  C         22.6550  -21.4260  -12.9290 C.2     1  UNL1        0.0190
     32  N         25.9990  -22.2050  -14.4450 N.pl3   1  UNL1       -0.1760
     33  C         27.1200  -21.3380  -14.0020 C.3     1  UNL1        0.1360
     34  S         25.5650  -22.0250  -16.1040 S.O2    1  UNL1        0.2470
     35  O         24.1350  -22.2420  -16.2130 O.2     1  UNL1       -0.2050
     36  O         26.5010  -22.7650  -16.9260 O.2     1  UNL1       -0.2050
     37  C         25.8850  -20.2990  -16.3880 C.2     1  UNL1        0.0750
     38  C         26.0370  -19.4250  -15.3110 C.2     1  UNL1        0.0250
     39  C         26.2970  -18.0760  -15.5570 C.2     1  UNL1        0.0080
     40  C         26.3930  -17.5970  -16.8730 C.2     1  UNL1       -0.0620
     41  C         26.6990  -16.1490  -17.1240 C.3     1  UNL1        0.0480
     42  C         26.2350  -18.4890  -17.9440 C.2     1  UNL1        0.0080
     43  C         25.9730  -19.8380  -17.7040 C.2     1  UNL1        0.0250
@<TRIPOS>BOND
     1    42    43    1
     2    42    40    2
     3    43    37    2
     4    41    40    1
     5    36    34    2
     6    40    39    1
     7    37    34    1
     8    37    38    1
     9    35    34    2
    10    34    32    1
    11    39    38    2
    12    32    33    1
    13    32    29    1
    14    30    29    2
    15    30    31    1
    16    29    28    1
    17    31    26    2
    18    28    27    2
    19    26    27    1
    20    26     1    1
    21    23    22    1
    22     2     1    2
    23     1     3   am
    24    24    22    1
    25    22    25    1
    26    22    20    1
    27    19    20    2
    28    19    18    1
    29     3     4    1
    30     3     5    1
    31    20    21    1
    32    18    17    2
    33     5    10    2
    34     5     6    1
    35    10     9    1
    36    21    16    2
    37     6     7    2
    38    17    16    1
    39     9     8    2
    40    16    14    1
    41     7     8    1
    42     8    11    1
    43    14    15    1
    44    14    11    1
    45    11    12    2
    46    11    13    2
