@<TRIPOS>MOLECULE
45869_out_ligand_01.pdbqt
 30 33 0 0 0
SMALL
GASTEIGER

@<TRIPOS>ATOM
      1  C         20.8230  -22.4580  -10.6310 C.2     1  UNL1        0.0350
      2  C         19.7500  -21.6840  -11.0820 C.2     1  UNL1        0.0310
      3  C         18.4600  -21.8940  -10.5820 C.2     1  UNL1        0.0270
      4  C         18.2400  -22.8920   -9.6310 C.2     1  UNL1        0.0800
      5  C         19.3010  -23.6650   -9.1600 C.2     1  UNL1        0.0270
      6  C         20.5860  -23.4460   -9.6630 C.2     1  UNL1        0.0310
      7  S         16.6030  -23.1500   -8.9970 S.O2    1  UNL1        0.2630
      8  O         15.8960  -23.9730   -9.9560 O.2     1  UNL1       -0.2000
      9  O         16.0650  -21.8760   -8.5710 O.2     1  UNL1       -0.2000
     10  N         16.8790  -24.1350   -7.6540 N.pl3   1  UNL1       -0.2800
     11  H         16.6620  -25.1100   -7.8510 H       1  UNL1        0.1790
     12  C         16.5310  -23.6330   -6.3620 C.2     1  UNL1        0.0530
     13  C         15.3570  -24.1170   -5.7810 C.2     1  UNL1        0.0310
     14  C         14.9670  -23.6760   -4.5220 C.2     1  UNL1        0.0030
     15  C         15.7520  -22.7480   -3.8390 C.2     1  UNL1        0.0120
     16  C         16.9380  -22.2520   -4.4020 C.2     1  UNL1       -0.0240
     17  C         17.7190  -21.3170   -3.7020 C.2     1  UNL1        0.0120
     18  C         17.3510  -22.6960   -5.6820 C.2     1  UNL1        0.0010
     19  C         18.9020  -20.8190   -4.2450 C.2     1  UNL1        0.0010
     20  C         19.3240  -21.2510   -5.4960 C.2     1  UNL1        0.0010
     21  C         18.5590  -22.1780   -6.2060 C.2     1  UNL1        0.0140
     22  N         22.1530  -22.3100  -11.0790 N.am    1  UNL1       -0.3210
     23  C         23.2070  -21.6790  -10.4280 C.2     1  UNL1        0.2790
     24  O         23.1040  -21.1090   -9.3460 O.2     1  UNL1       -0.2650
     25  H         22.3480  -22.6900  -11.9930 H       1  UNL1        0.1690
     26  C         24.4710  -21.7360  -11.1550 C.2     1  UNL1        0.1420
     27  C         24.9450  -22.5160  -12.1990 C.2     1  UNL1        0.0450
     28  C         26.2710  -22.0910  -12.4670 C.2     1  UNL1        0.0270
     29  C         26.5340  -21.0800  -11.5770 C.2     1  UNL1        0.1430
     30  O         25.4580  -20.8580  -10.7830 O.2     1  UNL1       -0.3170
@<TRIPOS>BOND
     1    28    27    1
     2    28    29    2
     3    27    26    2
     4    25    22    1
     5    29    30    1
     6    26    30    1
     7    26    23    1
     8     2     1    2
     9     2     3    1
    10    22     1    1
    11    22    23   am
    12     1     6    1
    13     3     4    2
    14    23    24    2
    15     8     7    2
    16     6     5    2
    17     4     5    1
    18     4     7    1
    19     7     9    2
    20     7    10    1
    21    11    10    1
    22    10    12    1
    23    12    13    2
    24    12    18    1
    25    21    18    1
    26    21    20    2
    27    13    14    1
    28    18    16    2
    29    20    19    1
    30    14    15    2
    31    16    15    1
    32    16    17    1
    33    19    17    2
