@<TRIPOS>MOLECULE
45868_out_ligand_01.pdbqt
 36 40 0 0 0
SMALL
GASTEIGER

@<TRIPOS>ATOM
      1  C         18.6230  -22.7120   -9.8810 C.2     1  UNL1        0.0800
      2  C         19.3910  -23.6740   -9.2210 C.2     1  UNL1        0.0270
      3  C         20.7620  -23.7680   -9.4830 C.2     1  UNL1        0.0310
      4  C         21.3640  -22.9240  -10.4210 C.2     1  UNL1        0.0340
      5  C         20.5730  -21.9860  -11.1050 C.2     1  UNL1        0.0310
      6  C         19.2050  -21.8750  -10.8380 C.2     1  UNL1        0.0270
      7  N         22.7380  -22.9500  -10.7320 N.am    1  UNL1       -0.3260
      8  C         23.7220  -22.0670  -10.3190 C.2     1  UNL1        0.2400
      9  O         23.5800  -21.1430   -9.5170 O.2     1  UNL1       -0.2710
     10  H         23.0480  -23.7180  -11.3260 H       1  UNL1        0.1690
     11  C         25.1140  -22.4100  -10.8580 C.3     1  UNL1        0.2350
     12  N         25.4960  -21.5980  -11.9930 N.am    1  UNL1       -0.3040
     13  C         26.0770  -20.3360  -11.9240 C.2     1  UNL1        0.2590
     14  O         26.4180  -19.7180  -10.9340 O.2     1  UNL1       -0.2670
     15  C         26.2720  -19.9150  -13.3270 C.2     1  UNL1        0.0450
     16  C         26.7860  -18.7670  -13.8920 C.2     1  UNL1        0.0180
     17  C         25.8400  -20.9520  -14.1150 C.2     1  UNL1        0.0170
     18  C         26.8450  -18.7050  -15.2960 C.2     1  UNL1        0.0020
     19  C         26.3990  -19.7830  -16.1020 C.2     1  UNL1        0.0120
     20  C         25.8770  -20.9530  -15.5060 C.2     1  UNL1       -0.0230
     21  C         25.3920  -22.1230  -16.1250 C.2     1  UNL1        0.0120
     22  C         24.9130  -23.1980  -15.3390 C.2     1  UNL1        0.0030
     23  C         24.9000  -23.1330  -13.9320 C.2     1  UNL1        0.0310
     24  C         25.3740  -21.9800  -13.3390 C.2     1  UNL1        0.0500
     25  S         16.8810  -22.5800   -9.5400 S.O2    1  UNL1        0.2630
     26  O         16.3760  -23.9060   -9.2520 O.2     1  UNL1       -0.2000
     27  O         16.2930  -21.7700  -10.5890 O.2     1  UNL1       -0.2000
     28  N         16.8330  -21.6300   -8.1420 N.pl3   1  UNL1       -0.2810
     29  H         17.5250  -20.8820   -8.1710 H       1  UNL1        0.1790
     30  C         16.5710  -22.2480   -6.8860 C.2     1  UNL1        0.0420
     31  C         17.6400  -22.7160   -6.1240 C.2     1  UNL1        0.0300
     32  C         17.4010  -23.3670   -4.9080 C.2     1  UNL1        0.0090
     33  C         16.0910  -23.5410   -4.4400 C.2     1  UNL1       -0.0620
     34  C         15.8320  -24.2770   -3.1540 C.3     1  UNL1        0.0480
     35  C         15.0220  -23.0690   -5.2150 C.2     1  UNL1        0.0090
     36  C         15.2620  -22.4210   -6.4300 C.2     1  UNL1        0.0300
@<TRIPOS>BOND
     1    21    20    1
     2    21    22    2
     3    19    20    2
     4    19    18    1
     5    20    17    1
     6    22    23    1
     7    18    16    2
     8    17    24    1
     9    17    15    2
    10    23    24    2
    11    16    15    1
    12    24    12    1
    13    15    13    1
    14    12    13   am
    15    12    11    1
    16    13    14    2
    17    10     7    1
    18     5     6    1
    19     5     4    2
    20    11     8    1
    21     6     1    2
    22     7     4    1
    23     7     8   am
    24    27    25    2
    25     4     3    1
    26     8     9    2
    27     1    25    1
    28     1     2    1
    29    25    26    2
    30    25    28    1
    31     3     2    2
    32    29    28    1
    33    28    30    1
    34    30    36    2
    35    30    31    1
    36    36    35    1
    37    31    32    2
    38    35    33    2
    39    32    33    1
    40    33    34    1
