@<TRIPOS>MOLECULE
45893_out_ligand_01.pdbqt
 37 41 0 0 0
SMALL
GASTEIGER

@<TRIPOS>ATOM
      1  C         19.8000  -23.3450   -9.2310 C.2     1  UNL1        0.0800
      2  C         20.0510  -22.5840  -10.3740 C.2     1  UNL1        0.0270
      3  C         21.3420  -22.5550  -10.9100 C.2     1  UNL1        0.0310
      4  C         22.3830  -23.2800  -10.3130 C.2     1  UNL1        0.0340
      5  C         22.1190  -24.0230   -9.1590 C.2     1  UNL1        0.0310
      6  C         20.8320  -24.0490   -8.6100 C.2     1  UNL1        0.0270
      7  N         23.6480  -23.2020  -10.9250 N.am    1  UNL1       -0.3260
      8  C         24.5700  -22.1740  -10.8510 C.2     1  UNL1        0.2400
      9  O         24.4280  -21.1210  -10.2320 O.2     1  UNL1       -0.2710
     10  H         23.9350  -24.0050  -11.4730 H       1  UNL1        0.1690
     11  C         25.8360  -22.4020  -11.6880 C.3     1  UNL1        0.2350
     12  N         25.6280  -22.4200  -13.1210 N.am    1  UNL1       -0.3040
     13  C         25.2370  -23.5300  -13.8650 C.2     1  UNL1        0.2590
     14  O         25.0510  -24.6700  -13.4910 O.2     1  UNL1       -0.2670
     15  C         25.1150  -23.0420  -15.2570 C.2     1  UNL1        0.0450
     16  C         24.7640  -23.6700  -16.4350 C.2     1  UNL1        0.0180
     17  C         25.4410  -21.7120  -15.2440 C.2     1  UNL1        0.0170
     18  C         24.7590  -22.8940  -17.6070 C.2     1  UNL1        0.0020
     19  C         25.0990  -21.5190  -17.5810 C.2     1  UNL1        0.0120
     20  C         25.4550  -20.8920  -16.3660 C.2     1  UNL1       -0.0230
     21  C         25.8240  -19.5520  -16.1330 C.2     1  UNL1        0.0120
     22  C         26.1480  -19.1190  -14.8240 C.2     1  UNL1        0.0030
     23  C         26.1130  -20.0020  -13.7290 C.2     1  UNL1        0.0310
     24  C         25.7500  -21.3090  -13.9710 C.2     1  UNL1        0.0500
     25  S         18.1700  -23.3700   -8.5200 S.O2    1  UNL1        0.2630
     26  O         17.2230  -23.1790   -9.6010 O.2     1  UNL1       -0.2000
     27  O         18.0780  -24.5200   -7.6450 O.2     1  UNL1       -0.2000
     28  N         18.1230  -21.9550   -7.6020 N.pl3   1  UNL1       -0.2800
     29  H         18.8050  -21.2670   -7.9180 H       1  UNL1        0.1790
     30  C         17.8020  -22.0070   -6.2130 C.2     1  UNL1        0.0490
     31  C         18.6600  -21.4250   -5.2630 C.2     1  UNL1       -0.0350
     32  C         18.3290  -21.5310   -3.9030 C.2     1  UNL1        0.0090
     33  C         19.9130  -20.6960   -5.6580 C.3     1  UNL1        0.0500
     34  C         17.1600  -22.1800   -3.4990 C.2     1  UNL1        0.0070
     35  C         16.2870  -22.7230   -4.4470 C.2     1  UNL1       -0.0600
     36  C         15.0330  -23.4220   -4.0120 C.3     1  UNL1        0.0480
     37  C         16.6240  -22.6410   -5.8020 C.2     1  UNL1        0.0370
@<TRIPOS>BOND
     1    18    19    2
     2    18    16    1
     3    19    20    1
     4    16    15    2
     5    20    21    1
     6    20    17    2
     7    21    22    2
     8    15    17    1
     9    15    13    1
    10    17    24    1
    11    22    23    1
    12    24    23    2
    13    24    12    1
    14    13    14    2
    15    13    12   am
    16    12    11    1
    17    11     8    1
    18    10     7    1
    19     7     8   am
    20     7     4    1
    21     3     2    1
    22     3     4    2
    23     8     9    2
    24     2     1    2
    25     4     5    1
    26    26    25    2
    27     1     6    1
    28     1    25    1
    29     5     6    2
    30    25    27    2
    31    25    28    1
    32    29    28    1
    33    28    30    1
    34    30    37    2
    35    30    31    1
    36    37    35    1
    37    33    31    1
    38    31    32    2
    39    35    36    1
    40    35    34    2
    41    32    34    1
