@<TRIPOS>MOLECULE
458_out_ligand_01.pdbqt
 37 39 0 0 0
SMALL
GASTEIGER

@<TRIPOS>ATOM
      1  C         22.4600  -23.2680   -8.7010 C.2     1  UNL1        0.0330
      2  C         21.7000  -24.4170   -8.9720 C.2     1  UNL1        0.0180
      3  C         20.3590  -24.4900   -8.5850 C.2     1  UNL1        0.0260
      4  C         19.7830  -23.4090   -7.9150 C.2     1  UNL1        0.0740
      5  C         20.5290  -22.2610   -7.6320 C.2     1  UNL1        0.0260
      6  C         21.8710  -22.1930   -8.0190 C.2     1  UNL1        0.0180
      7  C         23.8830  -23.2560   -9.1410 C.2     1  UNL1        0.2700
      8  O         24.6550  -24.1460   -8.7900 O.2     1  UNL1       -0.2660
      9  N         24.2740  -22.2210   -9.9670 N.am    1  UNL1       -0.2640
     10  H         23.6740  -21.4720  -10.2950 H       1  UNL1        0.1900
     11  N         25.6320  -22.1400  -10.3220 N.am    1  UNL1       -0.2740
     12  H         26.0610  -21.2610  -10.0380 H       1  UNL1        0.1890
     13  C         26.0790  -22.7540  -11.4640 C.2     1  UNL1        0.1860
     14  S         26.8990  -24.2130  -11.5140 S.2     1  UNL1       -0.0400
     15  N         25.8690  -22.0920  -12.6350 N.am    1  UNL1       -0.3640
     16  H         26.3680  -22.5020  -13.4200 H       1  UNL1        0.1620
     17  C         25.5080  -20.6890  -12.8180 C.3     1  UNL1        0.1540
     18  C         24.5740  -20.4770  -14.0180 C.3     1  UNL1        0.1390
     19  C         23.7680  -21.7110  -14.4100 C.3     1  UNL1        0.0350
     20  C         24.4610  -22.2130  -15.6530 C.3     1  UNL1        0.0290
     21  C         24.9760  -20.9330  -16.2690 C.3     1  UNL1        0.1680
     22  O         25.3520  -20.0920  -15.1720 O.3     1  UNL1       -0.3840
     23  S         18.0770  -23.4700   -7.4200 S.O2    1  UNL1        0.2450
     24  O         17.7140  -22.1690   -6.8990 O.2     1  UNL1       -0.2060
     25  O         17.9010  -24.6870   -6.6590 O.2     1  UNL1       -0.2060
     26  N         17.3120  -23.6100   -8.9410 N.pl3   1  UNL1       -0.1810
     27  H         17.5530  -24.5320   -9.3110 H       1  UNL1        0.1460
     28  C         17.6840  -22.5800   -9.8670 C.2     1  UNL1        0.0230
     29  C         16.7210  -21.7050  -10.3690 C.2     1  UNL1        0.0240
     30  C         17.0830  -20.7430  -11.3120 C.2     1  UNL1        0.0030
     31  C         18.4030  -20.6650  -11.7600 C.2     1  UNL1        0.0160
     32  C         19.3780  -21.5490  -11.2680 C.2     1  UNL1        0.0490
     33  C         19.0010  -22.5150  -10.3230 C.2     1  UNL1        0.0400
     34  C         20.7930  -21.4900  -11.7830 C.3     1  UNL1        0.4170
     35  F         21.3960  -22.7110  -11.8410 F       1  UNL1       -0.1660
     36  F         21.6050  -20.7160  -11.0080 F       1  UNL1       -0.1660
     37  F         20.8710  -20.9720  -13.0380 F       1  UNL1       -0.1660
@<TRIPOS>BOND
     1    21    20    1
     2    21    22    1
     3    20    19    1
     4    22    18    1
     5    19    18    1
     6    18    17    1
     7    16    15    1
     8    37    34    1
     9    17    15    1
    10    15    13    1
    11    35    34    1
    12    34    32    1
    13    34    36    1
    14    31    30    2
    15    31    32    1
    16    14    13    2
    17    13    11    1
    18    30    29    1
    19    32    33    2
    20    29    28    2
    21    33    28    1
    22    11    12    1
    23    11     9    1
    24    10     9    1
    25     9     7   am
    26    28    26    1
    27    27    26    1
    28     7     8    2
    29     7     1    1
    30     2     1    2
    31     2     3    1
    32    26    23    1
    33     1     6    1
    34     3     4    2
    35     6     5    2
    36     4     5    1
    37     4    23    1
    38    23    24    2
    39    23    25    2
