@<TRIPOS>MOLECULE
45915_out_ligand_01.pdbqt
 34 38 0 0 0
SMALL
GASTEIGER

@<TRIPOS>ATOM
      1  O         19.6590  -24.3510   -8.9470 O.2     1  UNL1       -0.2710
      2  C         19.1180  -23.2980   -9.2850 C.2     1  UNL1        0.2400
      3  N         19.7170  -22.2480   -9.9630 N.am    1  UNL1       -0.3260
      4  H         19.0990  -21.5010  -10.2650 H       1  UNL1        0.1690
      5  C         21.0810  -22.0890  -10.2760 C.2     1  UNL1        0.0340
      6  C         21.4200  -22.0300  -11.6370 C.2     1  UNL1        0.0310
      7  C         22.7460  -21.8420  -12.0350 C.2     1  UNL1        0.0270
      8  C         23.7430  -21.7110  -11.0660 C.2     1  UNL1        0.0750
      9  C         23.4260  -21.7920   -9.7090 C.2     1  UNL1        0.0270
     10  C         22.0940  -21.9740   -9.3190 C.2     1  UNL1        0.0310
     11  S         25.4270  -21.4860  -11.5730 S.O2    1  UNL1        0.2470
     12  O         25.9770  -20.3840  -10.8090 O.2     1  UNL1       -0.2050
     13  O         26.0880  -22.7730  -11.5810 O.2     1  UNL1       -0.2050
     14  N         25.2400  -20.8760  -13.1280 N.pl3   1  UNL1       -0.1590
     15  H         25.6860  -19.9640  -13.1840 H       1  UNL1        0.1480
     16  C         25.6530  -21.7990  -14.1550 C.2     1  UNL1        0.1580
     17  N         24.8550  -22.7540  -14.5660 N.2     1  UNL1       -0.2400
     18  C         25.4590  -23.4270  -15.6100 C.2     1  UNL1        0.1260
     19  C         26.6930  -22.9470  -15.9940 C.2     1  UNL1        0.0720
     20  S         27.1210  -21.6100  -15.0050 S.3     1  UNL1       -0.0680
     21  C         17.6150  -23.1010   -9.0690 C.3     1  UNL1        0.2350
     22  N         17.2510  -23.1470   -7.6700 N.am    1  UNL1       -0.3040
     23  C         16.2060  -23.8900   -7.1320 C.2     1  UNL1        0.2590
     24  O         15.4060  -24.5890   -7.7180 O.2     1  UNL1       -0.2670
     25  C         16.2190  -23.5940   -5.6840 C.2     1  UNL1        0.0450
     26  C         15.4370  -24.0390   -4.6370 C.2     1  UNL1        0.0180
     27  C         17.2230  -22.6840   -5.4740 C.2     1  UNL1        0.0170
     28  C         15.7160  -23.5250   -3.3580 C.2     1  UNL1        0.0020
     29  C         16.7540  -22.5810   -3.1530 C.2     1  UNL1        0.0120
     30  C         17.5410  -22.1330   -4.2380 C.2     1  UNL1       -0.0230
     31  C         18.6010  -21.2020   -4.2460 C.2     1  UNL1        0.0120
     32  C         19.2600  -20.8810   -5.4570 C.2     1  UNL1        0.0030
     33  C         18.8890  -21.4770   -6.6770 C.2     1  UNL1        0.0310
     34  C         17.8550  -22.3900   -6.6540 C.2     1  UNL1        0.0500
@<TRIPOS>BOND
     1    19    18    2
     2    19    20    1
     3    18    17    1
     4    20    16    1
     5    17    16    2
     6    16    14    1
     7    15    14    1
     8    14    11    1
     9     7     6    1
    10     7     8    2
    11     6     5    2
    12    13    11    2
    13    11     8    1
    14    11    12    2
    15     8     9    1
    16     5     3    1
    17     5    10    1
    18     4     3    1
    19     3     2   am
    20     9    10    2
    21     2    21    1
    22     2     1    2
    23    21    22    1
    24    24    23    2
    25    22    23   am
    26    22    34    1
    27    23    25    1
    28    33    34    2
    29    33    32    1
    30    34    27    1
    31    25    27    2
    32    25    26    1
    33    27    30    1
    34    32    31    2
    35    26    28    2
    36    31    30    1
    37    30    29    2
    38    28    29    1
