@<TRIPOS>MOLECULE
45928_out_ligand_01.pdbqt
 38 42 0 0 0
SMALL
GASTEIGER

@<TRIPOS>ATOM
      1  C         18.6940  -22.7500   -9.7530 C.2     1  UNL1        0.0750
      2  C         19.4870  -23.6370   -9.0190 C.2     1  UNL1        0.0270
      3  C         20.8540  -23.7400   -9.3020 C.2     1  UNL1        0.0310
      4  C         21.4250  -22.9860  -10.3330 C.2     1  UNL1        0.0340
      5  C         20.6050  -22.1370  -11.0930 C.2     1  UNL1        0.0310
      6  C         19.2430  -22.0140  -10.8070 C.2     1  UNL1        0.0270
      7  N         22.7940  -23.0040  -10.6560 N.am    1  UNL1       -0.3260
      8  C         23.7660  -22.0770  -10.3190 C.2     1  UNL1        0.2400
      9  O         23.6190  -21.1230   -9.5580 O.2     1  UNL1       -0.2710
     10  H         23.1080  -23.7850  -11.2250 H       1  UNL1        0.1690
     11  C         25.1500  -22.3970  -10.9010 C.3     1  UNL1        0.2350
     12  N         25.4850  -21.5700  -12.0410 N.am    1  UNL1       -0.3040
     13  C         26.0370  -20.2930  -11.9840 C.2     1  UNL1        0.2590
     14  O         26.3580  -19.6530  -11.0030 O.2     1  UNL1       -0.2670
     15  C         26.2570  -19.8970  -13.3910 C.2     1  UNL1        0.0450
     16  C         26.7770  -18.7530  -13.9640 C.2     1  UNL1        0.0180
     17  C         25.8660  -20.9560  -14.1680 C.2     1  UNL1        0.0170
     18  C         26.8840  -18.7220  -15.3640 C.2     1  UNL1        0.0020
     19  C         26.4780  -19.8240  -16.1580 C.2     1  UNL1        0.0120
     20  C         25.9540  -20.9890  -15.5540 C.2     1  UNL1       -0.0230
     21  C         25.5150  -22.1870  -16.1580 C.2     1  UNL1        0.0120
     22  C         25.0330  -23.2540  -15.3610 C.2     1  UNL1        0.0030
     23  C         24.9730  -23.1550  -13.9590 C.2     1  UNL1        0.0310
     24  C         25.4010  -21.9780  -13.3800 C.2     1  UNL1        0.0500
     25  S         16.9640  -22.5840   -9.3700 S.O2    1  UNL1        0.2450
     26  O         16.3710  -21.7690  -10.4120 O.2     1  UNL1       -0.2060
     27  O         16.4440  -23.9020   -9.0730 O.2     1  UNL1       -0.2060
     28  N         16.9570  -21.6400   -7.9620 N.pl3   1  UNL1       -0.1790
     29  H         17.7760  -21.0260   -7.9450 H       1  UNL1        0.1460
     30  C         16.7510  -22.3180   -6.7160 C.2     1  UNL1        0.0560
     31  C         15.5290  -22.9390   -6.4580 C.2     1  UNL1        0.0340
     32  C         15.3410  -23.6600   -5.2730 C.2     1  UNL1       -0.0600
     33  C         16.4050  -23.7740   -4.3710 C.2     1  UNL1        0.0090
     34  C         14.0390  -24.3540   -5.0140 C.3     1  UNL1        0.0480
     35  C         17.6280  -23.1450   -4.6230 C.2     1  UNL1        0.0390
     36  C         17.8150  -22.4220   -5.8020 C.2     1  UNL1        0.0900
     37  O         18.9750  -21.7750   -6.1510 O.2     1  UNL1       -0.3540
     38  C         19.3200  -20.6450   -5.3570 C.3     1  UNL1        0.2100
@<TRIPOS>BOND
     1    21    20    1
     2    21    22    2
     3    19    20    2
     4    19    18    1
     5    20    17    1
     6    18    16    2
     7    22    23    1
     8    17    15    2
     9    17    24    1
    10    16    15    1
    11    23    24    2
    12    15    13    1
    13    24    12    1
    14    12    13   am
    15    12    11    1
    16    13    14    2
    17    10     7    1
    18     5     6    1
    19     5     4    2
    20    11     8    1
    21     6     1    2
    22     7     4    1
    23     7     8   am
    24    26    25    2
    25     4     3    1
    26     8     9    2
    27     1    25    1
    28     1     2    1
    29    25    27    2
    30    25    28    1
    31     3     2    2
    32    28    29    1
    33    28    30    1
    34    30    31    2
    35    30    36    1
    36    31    32    1
    37    37    36    1
    38    37    38    1
    39    36    35    2
    40    32    34    1
    41    32    33    2
    42    35    33    1
