@<TRIPOS>MOLECULE
45938_out_ligand_01.pdbqt
 35 38 0 0 0
SMALL
GASTEIGER

@<TRIPOS>ATOM
      1  C         21.3520  -22.1170  -11.1180 C.2     1  UNL1        0.0340
      2  C         21.1380  -23.1700  -10.2150 C.2     1  UNL1        0.0310
      3  C         19.8590  -23.4390   -9.7190 C.2     1  UNL1        0.0270
      4  C         18.7880  -22.6410  -10.1190 C.2     1  UNL1        0.0800
      5  C         18.9800  -21.5990  -11.0280 C.2     1  UNL1        0.0270
      6  C         20.2620  -21.3390  -11.5230 C.2     1  UNL1        0.0310
      7  S         17.1550  -22.9780   -9.5080 S.O2    1  UNL1        0.2630
      8  O         16.6360  -21.7410   -8.9620 O.2     1  UNL1       -0.2000
      9  O         16.4230  -23.7080  -10.5200 O.2     1  UNL1       -0.2000
     10  N         17.4590  -23.9770   -8.1800 N.pl3   1  UNL1       -0.2800
     11  H         18.4030  -24.3590   -8.2120 H       1  UNL1        0.1790
     12  C         16.9610  -23.5710   -6.9030 C.2     1  UNL1        0.0530
     13  C         15.7420  -24.1130   -6.4870 C.2     1  UNL1        0.0310
     14  C         15.1950  -23.7440   -5.2620 C.2     1  UNL1        0.0030
     15  C         15.8660  -22.8290   -4.4520 C.2     1  UNL1        0.0120
     16  C         17.0890  -22.2680   -4.8520 C.2     1  UNL1       -0.0240
     17  C         17.7520  -21.3460   -4.0250 C.2     1  UNL1        0.0120
     18  C         17.6560  -22.6300   -6.1000 C.2     1  UNL1        0.0010
     19  C         18.9620  -20.7720   -4.4120 C.2     1  UNL1        0.0010
     20  C         19.5260  -21.1120   -5.6350 C.2     1  UNL1        0.0010
     21  C         18.8830  -22.0280   -6.4700 C.2     1  UNL1        0.0140
     22  N         22.6730  -21.9180  -11.5650 N.am    1  UNL1       -0.3270
     23  C         23.7720  -21.5380  -10.8170 C.2     1  UNL1        0.2260
     24  O         23.7960  -21.3170   -9.6100 O.2     1  UNL1       -0.2730
     25  H         22.8390  -22.1160  -12.5510 H       1  UNL1        0.1690
     26  C         25.0450  -21.4210  -11.6460 C.3     1  UNL1        0.1440
     27  C         25.0030  -22.2660  -12.9000 C.2     1  UNL1       -0.0160
     28  C         25.4520  -23.5980  -12.8110 C.2     1  UNL1        0.0100
     29  C         25.4640  -24.4350  -13.9300 C.2     1  UNL1        0.0010
     30  C         25.0260  -23.9650  -15.1660 C.2     1  UNL1        0.0020
     31  C         24.5650  -22.6560  -15.2850 C.2     1  UNL1        0.0370
     32  C         24.5460  -21.8190  -14.1560 C.2     1  UNL1        0.1090
     33  N         24.0180  -20.4700  -14.3450 N.pl3   1  UNL1       -0.1150
     34  O         22.7850  -20.3330  -14.3300 O.2     1  UNL1       -0.5320
     35  O         24.8340  -19.5560  -14.5200 O.2     1  UNL1       -0.5320
@<TRIPOS>BOND
     1    31    30    2
     2    31    32    1
     3    30    29    1
     4    35    33    2
     5    33    34    2
     6    33    32    1
     7    32    27    2
     8    29    28    2
     9    27    28    1
    10    27    26    1
    11    25    22    1
    12    26    23    1
    13    22     1    1
    14    22    23   am
    15     6     1    2
    16     6     5    1
    17     1     2    1
    18     5     4    2
    19    23    24    2
    20     9     7    2
    21     2     3    2
    22     4     3    1
    23     4     7    1
    24     7     8    2
    25     7    10    1
    26    11    10    1
    27    10    12    1
    28    12    13    2
    29    12    18    1
    30    13    14    1
    31    21    18    1
    32    21    20    2
    33    18    16    2
    34    20    19    1
    35    14    15    2
    36    16    15    1
    37    16    17    1
    38    19    17    2
