@<TRIPOS>MOLECULE
45939_out_ligand_01.pdbqt
 38 41 0 0 0
SMALL
GASTEIGER

@<TRIPOS>ATOM
      1  C         21.6440  -21.7980  -11.6680 C.2     1  UNL1        0.2570
      2  O         20.8530  -20.8630  -11.7210 O.2     1  UNL1       -0.2670
      3  N         21.4950  -22.9440  -10.9080 N.am    1  UNL1       -0.3230
      4  H         22.2230  -23.6430  -10.9870 H       1  UNL1        0.1690
      5  C         20.4320  -23.2740  -10.0420 C.2     1  UNL1        0.0350
      6  C         20.5760  -24.0320   -8.8760 C.2     1  UNL1        0.0310
      7  C         19.4680  -24.3170   -8.0700 C.2     1  UNL1        0.0270
      8  C         18.2050  -23.8520   -8.4410 C.2     1  UNL1        0.0800
      9  C         18.0460  -23.0830   -9.5940 C.2     1  UNL1        0.0270
     10  C         19.1580  -22.7990  -10.3910 C.2     1  UNL1        0.0310
     11  S         16.7960  -24.1960   -7.4180 S.O2    1  UNL1        0.2630
     12  O         15.7170  -24.6790   -8.2500 O.2     1  UNL1       -0.2000
     13  O         17.2710  -24.9720   -6.2910 O.2     1  UNL1       -0.2000
     14  N         16.4080  -22.6730   -6.7930 N.pl3   1  UNL1       -0.2800
     15  H         16.1800  -22.0240   -7.5430 H       1  UNL1        0.1790
     16  C         17.1840  -22.1730   -5.7070 C.2     1  UNL1        0.0480
     17  C         18.3720  -21.4950   -5.9940 C.2     1  UNL1        0.0300
     18  C         19.1380  -20.9520   -4.9630 C.2     1  UNL1        0.0020
     19  C         18.7140  -21.0810   -3.6430 C.2     1  UNL1        0.0010
     20  C         17.5280  -21.7570   -3.3530 C.2     1  UNL1        0.0090
     21  C         16.7490  -22.3140   -4.3790 C.2     1  UNL1       -0.0350
     22  C         15.4640  -23.0120   -4.0310 C.3     1  UNL1        0.0500
     23  C         22.9200  -21.7750  -12.4870 C.2     1  UNL1        0.0430
     24  C         22.7980  -21.3140  -13.7510 C.2     1  UNL1        0.0290
     25  C         23.8700  -21.1750  -14.7450 C.2     1  UNL1       -0.0350
     26  C         24.6910  -20.0440  -14.7110 C.2     1  UNL1        0.0140
     27  C         25.7220  -19.8960  -15.6430 C.2     1  UNL1        0.0370
     28  C         25.9530  -20.8730  -16.6130 C.2     1  UNL1        0.0680
     29  C         25.1450  -22.0090  -16.6410 C.2     1  UNL1        0.0370
     30  C         24.1120  -22.1610  -15.7070 C.2     1  UNL1        0.0140
     31  O         26.9910  -20.6010  -17.4620 O.2     1  UNL1       -0.3560
     32  C         27.1200  -19.2570  -17.9070 C.3     1  UNL1        0.2100
     33  C         24.2080  -22.2250  -11.9230 C.2     1  UNL1       -0.0210
     34  C         24.7270  -23.4770  -12.2830 C.2     1  UNL1        0.0120
     35  C         25.9580  -23.9010  -11.7780 C.2     1  UNL1        0.0010
     36  C         26.6790  -23.0790  -10.9130 C.2     1  UNL1        0.0000
     37  C         26.1690  -21.8330  -10.5490 C.2     1  UNL1        0.0010
     38  C         24.9400  -21.4050  -11.0530 C.2     1  UNL1        0.0120
@<TRIPOS>BOND
     1    32    31    1
     2    31    28    1
     3    29    28    2
     4    29    30    1
     5    28    27    1
     6    30    25    2
     7    27    26    2
     8    25    26    1
     9    25    24    1
    10    24    23    2
    11    23    33    1
    12    23     1    1
    13    34    33    2
    14    34    35    1
    15    33    38    1
    16    35    36    2
    17     2     1    2
    18     1     3   am
    19    38    37    2
    20     4     3    1
    21    36    37    1
    22     3     5    1
    23    10     5    2
    24    10     9    1
    25     5     6    1
    26     9     8    2
    27     6     7    2
    28     8     7    1
    29     8    11    1
    30    12    11    2
    31    15    14    1
    32    11    14    1
    33    11    13    2
    34    14    16    1
    35    17    16    2
    36    17    18    1
    37    16    21    1
    38    18    19    2
    39    21    22    1
    40    21    20    2
    41    19    20    1
