@<TRIPOS>MOLECULE
45947_out_ligand_01.pdbqt
 33 36 0 0 0
SMALL
GASTEIGER

@<TRIPOS>ATOM
      1  C         20.8230  -22.4880  -10.7780 C.2     1  UNL1        0.0340
      2  C         20.6040  -23.4720   -9.8030 C.2     1  UNL1        0.0310
      3  C         19.3270  -23.6960   -9.2870 C.2     1  UNL1        0.0270
      4  C         18.2600  -22.9180   -9.7410 C.2     1  UNL1        0.0800
      5  C         18.4500  -21.9780  -10.7560 C.2     1  UNL1        0.0270
      6  C         19.7330  -21.7610  -11.2660 C.2     1  UNL1        0.0310
      7  S         16.6510  -23.1120   -9.0100 S.O2    1  UNL1        0.2630
      8  O         16.2330  -21.8140   -8.5220 O.2     1  UNL1       -0.2000
      9  O         15.8280  -23.8660   -9.9310 O.2     1  UNL1       -0.2000
     10  N         16.9620  -24.0510   -7.6340 N.pl3   1  UNL1       -0.2800
     11  H         16.8280  -25.0440   -7.8080 H       1  UNL1        0.1790
     12  C         16.5770  -23.5360   -6.3560 C.2     1  UNL1        0.0530
     13  C         15.4170  -24.0530   -5.7720 C.2     1  UNL1        0.0310
     14  C         15.0340  -23.6520   -4.4970 C.2     1  UNL1        0.0030
     15  C         15.8190  -22.7400   -3.7940 C.2     1  UNL1        0.0120
     16  C         16.9930  -22.2110   -4.3550 C.2     1  UNL1       -0.0240
     17  C         17.7830  -21.3130   -3.6190 C.2     1  UNL1        0.0120
     18  C         17.3880  -22.5970   -5.6600 C.2     1  UNL1        0.0010
     19  C         18.9610  -20.7910   -4.1500 C.2     1  UNL1        0.0010
     20  C         19.3590  -21.1500   -5.4310 C.2     1  UNL1        0.0010
     21  C         18.5790  -22.0360   -6.1800 C.2     1  UNL1        0.0140
     22  N         22.1570  -22.2800  -11.1870 N.am    1  UNL1       -0.3270
     23  C         23.1680  -21.6560  -10.4770 C.2     1  UNL1        0.2220
     24  O         23.0510  -21.0770   -9.4020 O.2     1  UNL1       -0.2730
     25  H         22.4140  -22.7060  -12.0680 H       1  UNL1        0.1690
     26  C         24.5020  -21.7100  -11.2060 C.3     1  UNL1        0.1080
     27  C         24.8200  -23.1110  -11.7270 C.3     1  UNL1        0.0470
     28  C         24.8880  -23.1600  -13.2350 C.2     1  UNL1       -0.0580
     29  C         24.4610  -22.0690  -14.0030 C.2     1  UNL1        0.0070
     30  C         24.5140  -22.1220  -15.3980 C.2     1  UNL1        0.0010
     31  C         24.9920  -23.2660  -16.0360 C.2     1  UNL1        0.0000
     32  C         25.4130  -24.3590  -15.2810 C.2     1  UNL1        0.0010
     33  C         25.3590  -24.3070  -13.8870 C.2     1  UNL1        0.0070
@<TRIPOS>BOND
     1    31    30    2
     2    31    32    1
     3    30    29    1
     4    32    33    2
     5    29    28    2
     6    33    28    1
     7    28    27    1
     8    25    22    1
     9    27    26    1
    10     6     1    2
    11     6     5    1
    12    26    23    1
    13    22     1    1
    14    22    23   am
    15     1     2    1
    16     5     4    2
    17    23    24    2
    18     9     7    2
    19     2     3    2
    20     4     3    1
    21     4     7    1
    22     7     8    2
    23     7    10    1
    24    11    10    1
    25    10    12    1
    26    12    13    2
    27    12    18    1
    28    21    18    1
    29    21    20    2
    30    13    14    1
    31    18    16    2
    32    20    19    1
    33    14    15    2
    34    16    15    1
    35    16    17    1
    36    19    17    2
