@<TRIPOS>MOLECULE
45941_out_ligand_01.pdbqt
 35 38 0 0 0
SMALL
GASTEIGER

@<TRIPOS>ATOM
      1  C         20.9040  -22.3470  -10.9110 C.2     1  UNL1        0.0340
      2  C         20.7130  -23.3660   -9.9670 C.2     1  UNL1        0.0310
      3  C         19.4490  -23.6100   -9.4220 C.2     1  UNL1        0.0270
      4  C         18.3690  -22.8150   -9.8120 C.2     1  UNL1        0.0800
      5  C         18.5350  -21.8250  -10.7810 C.2     1  UNL1        0.0270
      6  C         19.8030  -21.5900  -11.3230 C.2     1  UNL1        0.0310
      7  S         16.7720  -23.0680   -9.0720 S.O2    1  UNL1        0.2630
      8  O         16.3170  -21.7890   -8.5690 O.2     1  UNL1       -0.2000
      9  O         15.9680  -23.8390   -9.9960 O.2     1  UNL1       -0.2000
     10  N         17.1160  -24.0060   -7.7070 N.pl3   1  UNL1       -0.2800
     11  H         17.0380  -25.0040   -7.8900 H       1  UNL1        0.1790
     12  C         16.7110  -23.5260   -6.4210 C.2     1  UNL1        0.0530
     13  C         15.5590  -24.0800   -5.8560 C.2     1  UNL1        0.0310
     14  C         15.1520  -23.7020   -4.5820 C.2     1  UNL1        0.0030
     15  C         15.9030  -22.7760   -3.8610 C.2     1  UNL1        0.0120
     16  C         17.0680  -22.2120   -4.4040 C.2     1  UNL1       -0.0240
     17  C         17.8230  -21.2950   -3.6540 C.2     1  UNL1        0.0120
     18  C         17.4900  -22.5770   -5.7060 C.2     1  UNL1        0.0010
     19  C         18.9920  -20.7360   -4.1680 C.2     1  UNL1        0.0010
     20  C         19.4180  -21.0800   -5.4440 C.2     1  UNL1        0.0010
     21  C         18.6740  -21.9820   -6.2070 C.2     1  UNL1        0.0140
     22  N         22.2200  -22.1470  -11.3780 N.am    1  UNL1       -0.3260
     23  C         23.2990  -21.6250  -10.6730 C.2     1  UNL1        0.2360
     24  O         23.2520  -21.1840   -9.5290 O.2     1  UNL1       -0.2720
     25  H         22.3920  -22.4390  -12.3330 H       1  UNL1        0.1690
     26  C         24.5810  -21.6020  -11.5200 C.3     1  UNL1        0.1400
     27  C         25.6680  -20.8420  -10.7700 C.3     1  UNL1        0.0310
     28  S         25.1720  -23.2910  -11.9130 S.3     1  UNL1       -0.1160
     29  C         24.9640  -23.2740  -13.6830 C.2     1  UNL1        0.0010
     30  C         24.5400  -22.1060  -14.3230 C.2     1  UNL1        0.0190
     31  C         24.3960  -22.0770  -15.7140 C.2     1  UNL1        0.0080
     32  C         24.6880  -23.2090  -16.4820 C.2     1  UNL1       -0.0620
     33  C         24.5340  -23.1870  -17.9740 C.3     1  UNL1        0.0480
     34  C         25.1060  -24.3790  -15.8350 C.2     1  UNL1        0.0080
     35  C         25.2500  -24.4090  -14.4450 C.2     1  UNL1        0.0190
@<TRIPOS>BOND
     1    33    32    1
     2    32    34    2
     3    32    31    1
     4    34    35    1
     5    31    30    2
     6    35    29    2
     7    30    29    1
     8    29    28    1
     9    25    22    1
    10    28    26    1
    11    26    27    1
    12    26    23    1
    13    22     1    1
    14    22    23   am
    15     6     1    2
    16     6     5    1
    17     1     2    1
    18     5     4    2
    19    23    24    2
    20     9     7    2
    21     2     3    2
    22     4     3    1
    23     4     7    1
    24     7     8    2
    25     7    10    1
    26    11    10    1
    27    10    12    1
    28    12    13    2
    29    12    18    1
    30    21    18    1
    31    21    20    2
    32    13    14    1
    33    18    16    2
    34    20    19    1
    35    14    15    2
    36    16    15    1
    37    16    17    1
    38    19    17    2
