@<TRIPOS>MOLECULE
45954_out_ligand_01.pdbqt
 35 37 0 0 0
SMALL
GASTEIGER

@<TRIPOS>ATOM
      1  C         21.0780  -23.2750   -8.8740 C.2     1  UNL1        0.0340
      2  C         21.0080  -22.1930   -7.9920 C.2     1  UNL1        0.0310
      3  C         20.0280  -22.1510   -6.9960 C.2     1  UNL1        0.0270
      4  C         19.1060  -23.1920   -6.8880 C.2     1  UNL1        0.0800
      5  C         19.1720  -24.2890   -7.7480 C.2     1  UNL1        0.0270
      6  C         20.1580  -24.3250   -8.7390 C.2     1  UNL1        0.0310
      7  S         17.8650  -23.1480   -5.6220 S.O2    1  UNL1        0.2630
      8  O         17.4170  -24.5080   -5.4060 O.2     1  UNL1       -0.2000
      9  O         18.3390  -22.3370   -4.5210 O.2     1  UNL1       -0.2000
     10  N         16.5800  -22.3570   -6.3890 N.pl3   1  UNL1       -0.2810
     11  H         16.5070  -21.3950   -6.0590 H       1  UNL1        0.1790
     12  C         16.3900  -22.5920   -7.7770 C.2     1  UNL1        0.0430
     13  C         15.6760  -23.7140   -8.1940 C.2     1  UNL1        0.0300
     14  C         15.5220  -23.9730   -9.5540 C.2     1  UNL1        0.0030
     15  C         16.0880  -23.1130  -10.4960 C.2     1  UNL1        0.0160
     16  C         16.8160  -21.9840  -10.0860 C.2     1  UNL1        0.0500
     17  C         16.9660  -21.7340   -8.7140 C.2     1  UNL1        0.0460
     18  C         17.4380  -21.0730  -11.1160 C.3     1  UNL1        0.4170
     19  F         16.8780  -19.8340  -11.1240 F       1  UNL1       -0.1660
     20  F         17.3340  -21.5420  -12.3900 F       1  UNL1       -0.1660
     21  F         18.7690  -20.8800  -10.9010 F       1  UNL1       -0.1660
     22  N         22.0350  -23.3950   -9.9000 N.am    1  UNL1       -0.3270
     23  C         22.3020  -22.4970  -10.9180 C.2     1  UNL1        0.2260
     24  O         21.7140  -21.4410  -11.1330 O.2     1  UNL1       -0.2730
     25  H         22.5490  -24.2750   -9.9240 H       1  UNL1        0.1690
     26  C         23.4360  -22.9470  -11.8290 C.3     1  UNL1        0.1440
     27  C         24.4570  -21.8580  -12.0730 C.2     1  UNL1       -0.0160
     28  C         25.3830  -21.5820  -11.0490 C.2     1  UNL1        0.0100
     29  C         26.3690  -20.6030  -11.2110 C.2     1  UNL1        0.0010
     30  C         26.4540  -19.8770  -12.3970 C.2     1  UNL1        0.0020
     31  C         25.5450  -20.1200  -13.4240 C.2     1  UNL1        0.0370
     32  C         24.5510  -21.0980  -13.2540 C.2     1  UNL1        0.1090
     33  N         23.6120  -21.2800  -14.3560 N.pl3   1  UNL1       -0.1150
     34  O         23.9290  -22.0700  -15.2530 O.2     1  UNL1       -0.5320
     35  O         22.5610  -20.6200  -14.3230 O.2     1  UNL1       -0.5320
@<TRIPOS>BOND
     1    34    33    2
     2    33    35    2
     3    33    32    1
     4    31    32    1
     5    31    30    2
     6    32    27    2
     7    30    29    1
     8    20    18    1
     9    27    26    1
    10    27    28    1
    11    26    23    1
    12    29    28    2
    13    24    23    2
    14    19    18    1
    15    18    21    1
    16    18    16    1
    17    23    22   am
    18    15    16    2
    19    15    14    1
    20    16    17    1
    21    25    22    1
    22    22     1    1
    23    14    13    2
    24     1     6    2
    25     1     2    1
    26     6     5    1
    27    17    12    2
    28    13    12    1
    29     2     3    2
    30    12    10    1
    31     5     4    2
    32     3     4    1
    33     4     7    1
    34    10    11    1
    35    10     7    1
    36     7     8    2
    37     7     9    2
