@<TRIPOS>MOLECULE
45950_out_ligand_01.pdbqt
 41 44 0 0 0
SMALL
GASTEIGER

@<TRIPOS>ATOM
      1  C         21.2890  -22.0000  -10.8260 C.2     1  UNL1        0.2560
      2  O         20.4100  -21.1760  -11.0490 O.2     1  UNL1       -0.2670
      3  N         21.3710  -22.8460   -9.7340 N.am    1  UNL1       -0.3230
      4  H         22.0470  -23.5980   -9.7870 H       1  UNL1        0.1690
      5  C         22.3650  -22.1830  -11.8430 C.2     1  UNL1        0.0320
      6  C         23.3020  -23.2070  -11.6510 C.2     1  UNL1        0.0190
      7  C         24.3170  -23.4150  -12.5880 C.2     1  UNL1        0.0260
      8  C         24.3950  -22.6050  -13.7210 C.2     1  UNL1        0.0250
      9  C         23.4480  -21.5970  -13.9300 C.2     1  UNL1        0.0260
     10  C         22.4310  -21.3860  -12.9930 C.2     1  UNL1        0.0190
     11  N         25.4440  -22.8590  -14.6750 N.pl3   1  UNL1       -0.1720
     12  C         26.8060  -22.4630  -14.2140 C.3     1  UNL1        0.1520
     13  C         26.8810  -21.1360  -13.4930 C.2     1  UNL1       -0.0380
     14  C         26.8500  -19.9550  -14.2590 C.2     1  UNL1        0.0090
     15  C         26.9250  -18.7020  -13.6520 C.2     1  UNL1        0.0010
     16  C         27.0300  -18.6080  -12.2690 C.2     1  UNL1        0.0010
     17  C         27.0590  -19.7680  -11.4940 C.2     1  UNL1        0.0070
     18  C         26.9770  -21.0380  -12.0880 C.2     1  UNL1       -0.0540
     19  C         27.0250  -22.2540  -11.2030 C.3     1  UNL1        0.0490
     20  S         25.0300  -22.4190  -16.2800 S.O2    1  UNL1        0.2120
     21  C         26.6130  -22.4360  -17.0950 C.3     1  UNL1        0.1800
     22  O         24.2620  -23.4940  -16.8780 O.2     1  UNL1       -0.2110
     23  O         24.5150  -21.0640  -16.2690 O.2     1  UNL1       -0.2110
     24  C         20.5330  -22.8530   -8.6010 C.2     1  UNL1        0.0350
     25  C         20.4710  -21.8080   -7.6750 C.2     1  UNL1        0.0310
     26  C         19.6260  -21.8890   -6.5630 C.2     1  UNL1        0.0270
     27  C         18.8260  -23.0190   -6.3850 C.2     1  UNL1        0.0750
     28  C         18.8850  -24.0780   -7.2930 C.2     1  UNL1        0.0270
     29  C         19.7410  -23.9930   -8.3940 C.2     1  UNL1        0.0310
     30  S         17.7540  -23.1300   -4.9730 S.O2    1  UNL1        0.2450
     31  O         17.5870  -24.5320   -4.6570 O.2     1  UNL1       -0.2060
     32  O         18.2080  -22.1690   -3.9900 O.2     1  UNL1       -0.2060
     33  N         16.3080  -22.5140   -5.6420 N.pl3   1  UNL1       -0.1810
     34  H         15.5410  -22.8150   -5.0380 H       1  UNL1        0.1460
     35  C         16.0800  -22.9230   -6.9980 C.2     1  UNL1        0.0240
     36  C         15.5800  -24.1990   -7.2700 C.2     1  UNL1        0.0240
     37  C         15.3940  -24.6030   -8.5930 C.2     1  UNL1        0.0030
     38  C         15.7170  -23.7360   -9.6370 C.2     1  UNL1        0.0240
     39  C         16.2350  -22.4720   -9.3560 C.2     1  UNL1        0.0350
     40 CL         16.6390  -21.4090  -10.6480 Cl      1  UNL1       -0.0840
     41  C         16.4270  -22.0630   -8.0370 C.2     1  UNL1        0.0480
@<TRIPOS>BOND
     1    21    20    1
     2    22    20    2
     3    20    23    2
     4    20    11    1
     5    11    12    1
     6    11     8    1
     7    14    15    1
     8    14    13    2
     9    12    13    1
    10     9     8    2
    11     9    10    1
    12     8     7    1
    13    15    16    2
    14    13    18    1
    15    10     5    2
    16     7     6    2
    17    16    17    1
    18    18    17    2
    19    18    19    1
    20     5     6    1
    21     5     1    1
    22     2     1    2
    23     1     3   am
    24    40    39    1
    25     4     3    1
    26     3    24    1
    27    38    39    2
    28    38    37    1
    29    39    41    1
    30    24    29    2
    31    24    25    1
    32    37    36    2
    33    29    28    1
    34    41    35    2
    35    25    26    2
    36    28    27    2
    37    36    35    1
    38    35    33    1
    39    26    27    1
    40    27    30    1
    41    33    34    1
    42    33    30    1
    43    30    31    2
    44    30    32    2
