@<TRIPOS>MOLECULE
4595_out_ligand_01.pdbqt
 34 37 0 0 0
SMALL
GASTEIGER

@<TRIPOS>ATOM
      1  C         20.4890  -22.8590   -8.3610 C.2     1  UNL1        0.0320
      2  C         21.6170  -22.1930   -7.8660 C.2     1  UNL1        0.0180
      3  C         22.6690  -21.8620   -8.7280 C.2     1  UNL1        0.0170
      4  C         22.6170  -22.1970  -10.0900 C.2     1  UNL1        0.0170
      5  C         21.4870  -22.8770  -10.5700 C.2     1  UNL1        0.0170
      6  C         20.4330  -23.2110   -9.7140 C.2     1  UNL1        0.0180
      7  C         23.7070  -21.8760  -11.0080 C.ar    1  UNL1        0.1800
      8  N         23.9340  -22.3300  -12.2250 N.ar    1  UNL1       -0.2250
      9  C         25.1190  -21.7340  -12.6010 C.ar    1  UNL1        0.0810
     10  C         25.5500  -20.9030  -11.5900 C.ar    1  UNL1        0.0770
     11  C         26.7140  -20.0210  -11.3850 C.3     1  UNL1        0.0790
     12  O         24.6540  -20.9910  -10.5630 O.2     1  UNL1       -0.2940
     13  C         25.7290  -22.0370  -13.9140 C.3     1  UNL1        0.2070
     14  S         24.7780  -21.4120  -15.2860 S.O2    1  UNL1        0.1810
     15  O         24.8870  -22.3650  -16.3770 O.2     1  UNL1       -0.2220
     16  O         23.4630  -21.0230  -14.8000 O.2     1  UNL1       -0.2220
     17  C         25.6310  -19.9370  -15.7980 C.2     1  UNL1        0.0590
     18  C         25.8800  -19.7140  -17.1540 C.2     1  UNL1        0.0230
     19  C         26.5470  -18.5540  -17.5450 C.2     1  UNL1        0.0020
     20  C         26.9730  -17.6340  -16.5840 C.2     1  UNL1        0.0000
     21  C         26.7390  -17.8740  -15.2290 C.2     1  UNL1        0.0020
     22  C         26.0700  -19.0310  -14.8290 C.2     1  UNL1        0.0230
     23  C         19.3540  -23.2440   -7.4750 C.2     1  UNL1        0.2560
     24  N         18.8420  -22.2100   -6.7090 N.am    1  UNL1       -0.3220
     25  H         19.1910  -21.2890   -6.9240 H       1  UNL1        0.1690
     26  O         18.9610  -24.4030   -7.5190 O.2     1  UNL1       -0.2670
     27  C         17.8160  -22.2720   -5.7340 C.2     1  UNL1        0.0410
     28  C         18.1010  -22.2650   -4.3640 C.2     1  UNL1        0.0300
     29  C         17.0790  -22.3330   -3.4190 C.2     1  UNL1        0.0030
     30  C         15.7560  -22.4100   -3.8290 C.2     1  UNL1        0.0070
     31  C         15.4280  -22.4110   -5.1920 C.2     1  UNL1       -0.0540
     32  C         13.9730  -22.5050   -5.5690 C.3     1  UNL1        0.0490
     33  C         16.4600  -22.3300   -6.1610 C.2     1  UNL1       -0.0290
     34  C         16.1250  -22.3240   -7.6340 C.3     1  UNL1        0.0510
@<TRIPOS>BOND
     1    19    18    1
     2    19    20    2
     3    18    17    2
     4    20    21    1
     5    15    14    2
     6    17    14    1
     7    17    22    1
     8    14    16    2
     9    14    13    1
    10    21    22    2
    11    13     9    1
    12     9     8   ar
    13     9    10   ar
    14     8     7   ar
    15    10    11    1
    16    10    12   ar
    17     7    12   ar
    18     7     4    1
    19     5     4    2
    20     5     6    1
    21     4     3    1
    22     6     1    2
    23     3     2    2
    24     1     2    1
    25     1    23    1
    26    34    33    1
    27    26    23    2
    28    23    24   am
    29    25    24    1
    30    24    27    1
    31    33    27    2
    32    33    31    1
    33    27    28    1
    34    32    31    1
    35    31    30    2
    36    28    29    2
    37    30    29    1
