@<TRIPOS>MOLECULE
45968_out_ligand_01.pdbqt
 40 43 0 0 0
SMALL
GASTEIGER

@<TRIPOS>ATOM
      1  C         21.3720  -22.3410  -10.9290 C.2     1  UNL1        0.2560
      2  O         20.3510  -21.7830  -11.3150 O.2     1  UNL1       -0.2670
      3  N         21.5680  -22.9760   -9.7170 N.am    1  UNL1       -0.3230
      4  H         22.4390  -23.4770   -9.5980 H       1  UNL1        0.1690
      5  C         22.5420  -22.3800  -11.8500 C.2     1  UNL1        0.0320
      6  C         23.6190  -23.2500  -11.6330 C.2     1  UNL1        0.0190
      7  C         24.7020  -23.2510  -12.5170 C.2     1  UNL1        0.0250
      8  C         24.7150  -22.3830  -13.6100 C.2     1  UNL1        0.0250
      9  C         23.6510  -21.5010  -13.8180 C.2     1  UNL1        0.0250
     10  C         22.5680  -21.4960  -12.9360 C.2     1  UNL1        0.0190
     11  N         25.8630  -22.4190  -14.4790 N.pl3   1  UNL1       -0.1760
     12  C         27.0250  -21.6430  -13.9820 C.3     1  UNL1        0.1360
     13  S         25.4640  -22.1490  -16.1320 S.O2    1  UNL1        0.2470
     14  O         24.0250  -22.2670  -16.2690 O.2     1  UNL1       -0.2050
     15  O         26.3610  -22.9210  -16.9650 O.2     1  UNL1       -0.2050
     16  C         25.9000  -20.4400  -16.3500 C.2     1  UNL1        0.0750
     17  C         25.9320  -19.5750  -15.2520 C.2     1  UNL1        0.0250
     18  C         26.2850  -18.2380  -15.4440 C.2     1  UNL1        0.0080
     19  C         26.5880  -17.7590  -16.7270 C.2     1  UNL1       -0.0620
     20  C         26.9990  -16.3290  -16.9300 C.3     1  UNL1        0.0480
     21  C         26.5490  -18.6390  -17.8180 C.2     1  UNL1        0.0080
     22  C         26.1990  -19.9780  -17.6350 C.2     1  UNL1        0.0250
     23  C         20.6560  -23.0790   -8.6450 C.2     1  UNL1        0.0350
     24  C         20.5850  -21.9920   -7.7610 C.2     1  UNL1        0.0310
     25  C         19.6990  -22.0050   -6.6800 C.2     1  UNL1        0.0270
     26  C         18.8740  -23.1130   -6.4830 C.2     1  UNL1        0.0800
     27  C         18.9490  -24.2130   -7.3410 C.2     1  UNL1        0.0270
     28  C         19.8330  -24.1880   -8.4240 C.2     1  UNL1        0.0310
     29  S         17.7380  -23.1480   -5.1160 S.O2    1  UNL1        0.2630
     30  O         18.1160  -22.1040   -4.1880 O.2     1  UNL1       -0.2000
     31  O         17.6130  -24.5260   -4.6880 O.2     1  UNL1       -0.2000
     32  N         16.2660  -22.7440   -5.8400 N.pl3   1  UNL1       -0.2810
     33  H         15.4820  -22.8720   -5.2010 H       1  UNL1        0.1790
     34  C         16.0610  -23.0190   -7.2200 C.2     1  UNL1        0.0440
     35  C         15.5010  -24.2470   -7.5840 C.2     1  UNL1        0.0300
     36  C         15.3120  -24.5580   -8.9310 C.2     1  UNL1        0.0040
     37  C         15.6790  -23.6400   -9.9140 C.2     1  UNL1        0.0240
     38  C         16.2340  -22.4150   -9.5450 C.2     1  UNL1        0.0360
     39 CL         16.6880  -21.2860  -10.7620 Cl      1  UNL1       -0.0840
     40  C         16.4260  -22.0990   -8.2000 C.2     1  UNL1        0.0540
@<TRIPOS>BOND
     1    21    22    1
     2    21    19    2
     3    22    16    2
     4    15    13    2
     5    20    19    1
     6    19    18    1
     7    16    13    1
     8    16    17    1
     9    14    13    2
    10    13    11    1
    11    18    17    2
    12    11    12    1
    13    11     8    1
    14     9     8    2
    15     9    10    1
    16     8     7    1
    17    10     5    2
    18     7     6    2
    19     5     6    1
    20     5     1    1
    21     2     1    2
    22     1     3   am
    23    39    38    1
    24    37    38    2
    25    37    36    1
    26     3     4    1
    27     3    23    1
    28    38    40    1
    29    36    35    2
    30    23    28    2
    31    23    24    1
    32    28    27    1
    33    40    34    2
    34    24    25    2
    35    35    34    1
    36    27    26    2
    37    34    32    1
    38    25    26    1
    39    26    29    1
    40    32    33    1
    41    32    29    1
    42    29    31    2
    43    29    30    2
