@<TRIPOS>MOLECULE
45978_out_ligand_01.pdbqt
 43 47 0 0 0
SMALL
GASTEIGER

@<TRIPOS>ATOM
      1  N         22.2210  -22.3030  -10.1730 N.am    1  UNL1       -0.3230
      2  C         22.1570  -22.1030   -8.8050 C.2     1  UNL1        0.2560
      3  O         22.9940  -21.5590   -8.0950 O.2     1  UNL1       -0.2670
      4  H         21.5070  -22.8920  -10.5790 H       1  UNL1        0.1690
      5  C         20.9300  -22.6490   -8.1630 C.2     1  UNL1        0.0320
      6  C         20.1460  -21.8050   -7.3730 C.2     1  UNL1        0.0170
      7  C         18.9880  -22.2960   -6.7640 C.2     1  UNL1        0.0110
      8  C         18.5880  -23.6310   -6.9470 C.2     1  UNL1       -0.0250
      9  C         19.3720  -24.4590   -7.7710 C.2     1  UNL1        0.0110
     10  C         20.5350  -23.9740   -8.3750 C.2     1  UNL1        0.0170
     11  C         17.3150  -24.1320   -6.2870 C.3     1  UNL1        0.1830
     12  S         17.3580  -23.8620   -4.4980 S.3     1  UNL1       -0.1300
     13  C         15.9850  -22.6920   -4.5120 C.3     1  UNL1        0.1790
     14  C         15.3750  -22.7370   -5.8900 C.2     1  UNL1        0.2300
     15  O         14.3310  -22.1570   -6.1780 O.2     1  UNL1       -0.2730
     16  N         16.1220  -23.4770   -6.7860 N.am    1  UNL1       -0.3340
     17  C         15.6480  -23.7250   -8.1460 C.3     1  UNL1        0.1320
     18  C         15.4950  -22.4510   -8.9900 C.3     1  UNL1        0.0580
     19  C         16.6570  -22.2030   -9.9220 C.2     1  UNL1       -0.0570
     20  C         16.8850  -20.9270  -10.4570 C.2     1  UNL1        0.0070
     21  C         17.9800  -20.6960  -11.2920 C.2     1  UNL1        0.0010
     22  C         18.8500  -21.7380  -11.6060 C.2     1  UNL1        0.0000
     23  C         18.6260  -23.0120  -11.0880 C.2     1  UNL1        0.0010
     24  C         17.5350  -23.2450  -10.2490 C.2     1  UNL1        0.0070
     25  C         23.2000  -21.8190  -11.0640 C.2     1  UNL1        0.0350
     26  C         24.4800  -21.4140  -10.6730 C.2     1  UNL1        0.0310
     27  C         25.3880  -20.9170  -11.6160 C.2     1  UNL1        0.0270
     28  C         25.0080  -20.8120  -12.9540 C.2     1  UNL1        0.0800
     29  C         23.7400  -21.2300  -13.3640 C.2     1  UNL1        0.0270
     30  C         22.8390  -21.7240  -12.4160 C.2     1  UNL1        0.0310
     31  S         26.1620  -20.2060  -14.1580 S.O2    1  UNL1        0.2630
     32  O         25.4200  -19.6710  -15.2770 O.2     1  UNL1       -0.2000
     33  O         27.1210  -19.3840  -13.4460 O.2     1  UNL1       -0.2000
     34  N         27.0070  -21.5940  -14.6160 N.pl3   1  UNL1       -0.2800
     35  H         27.7860  -21.3780  -15.2320 H       1  UNL1        0.1790
     36  C         26.2930  -22.8040  -14.8650 C.2     1  UNL1        0.0540
     37  C         25.5990  -22.9880  -16.0780 C.2     1  UNL1       -0.0340
     38  C         24.8720  -24.1750  -16.2740 C.2     1  UNL1        0.0090
     39  C         25.5590  -21.9550  -17.1740 C.3     1  UNL1        0.0500
     40  C         24.8660  -25.1750  -15.3050 C.2     1  UNL1        0.0010
     41  C         25.5970  -25.0070  -14.1310 C.2     1  UNL1        0.0090
     42  C         26.3320  -23.8320  -13.9040 C.2     1  UNL1       -0.0340
     43  C         27.1210  -23.7400  -12.6270 C.3     1  UNL1        0.0500
@<TRIPOS>BOND
     1    39    37    1
     2    38    37    1
     3    38    40    2
     4    37    36    2
     5    40    41    1
     6    32    31    2
     7    35    34    1
     8    36    34    1
     9    36    42    1
    10    34    31    1
    11    31    33    2
    12    31    28    1
    13    41    42    2
    14    42    43    1
    15    29    28    2
    16    29    30    1
    17    28    27    1
    18    30    25    2
    19    27    26    2
    20    22    21    2
    21    22    23    1
    22    21    20    1
    23    23    24    2
    24    25    26    1
    25    25     1    1
    26     4     1    1
    27    20    19    2
    28    24    19    1
    29     1     2   am
    30    19    18    1
    31    18    17    1
    32     2     5    1
    33     2     3    2
    34    10     5    2
    35    10     9    1
    36     5     6    1
    37    17    16    1
    38     9     8    2
    39     6     7    2
    40     8     7    1
    41     8    11    1
    42    16    11    1
    43    16    14   am
    44    11    12    1
    45    15    14    2
    46    14    13    1
    47    13    12    1
