@<TRIPOS>MOLECULE
45996_out_ligand_01.pdbqt
 38 43 0 0 0
SMALL
GASTEIGER

@<TRIPOS>ATOM
      1  C         20.9130  -22.1250   -7.8510 C.2     1  UNL1        0.2560
      2  O         21.9330  -21.5770   -7.4540 O.2     1  UNL1       -0.2670
      3  N         20.6570  -22.5990   -9.1240 N.am    1  UNL1       -0.3230
      4  H         19.8190  -23.1520   -9.2480 H       1  UNL1        0.1690
      5  C         19.8160  -22.3570   -6.8740 C.2     1  UNL1        0.0320
      6  C         19.1630  -23.5950   -6.7910 C.2     1  UNL1        0.0190
      7  C         18.1320  -23.7740   -5.8660 C.2     1  UNL1        0.0250
      8  C         17.7580  -22.7270   -5.0180 C.2     1  UNL1        0.0250
      9  C         18.3850  -21.4830   -5.1240 C.2     1  UNL1        0.0250
     10  C         19.4130  -21.2980   -6.0510 C.2     1  UNL1        0.0190
     11  N         16.6570  -22.9600   -4.1200 N.pl3   1  UNL1       -0.1760
     12  C         16.8900  -24.0610   -3.1540 C.3     1  UNL1        0.1360
     13  S         15.1250  -22.9860   -4.8970 S.O2    1  UNL1        0.2470
     14  O         14.4760  -21.7120   -4.6580 O.2     1  UNL1       -0.2050
     15  O         14.4580  -24.2340   -4.5850 O.2     1  UNL1       -0.2050
     16  C         15.5840  -23.0620   -6.6130 C.2     1  UNL1        0.0750
     17  C         15.5910  -24.2840   -7.2910 C.2     1  UNL1        0.0250
     18  C         15.9500  -24.3150   -8.6390 C.2     1  UNL1        0.0080
     19  C         16.3210  -23.1360   -9.3050 C.2     1  UNL1       -0.0620
     20  C         16.6680  -23.1660  -10.7640 C.3     1  UNL1        0.0480
     21  C         16.3120  -21.9190   -8.6080 C.2     1  UNL1        0.0080
     22  C         15.9520  -21.8790   -7.2610 C.2     1  UNL1        0.0250
     23  C         21.4850  -22.4860  -10.2610 C.2     1  UNL1        0.0350
     24  C         22.7380  -23.0800  -10.3750 C.2     1  UNL1        0.0300
     25  C         23.5070  -22.9190  -11.5390 C.2     1  UNL1        0.0100
     26  C         23.0500  -22.1580  -12.6160 C.2     1  UNL1       -0.0530
     27  C         21.7850  -21.5590  -12.4850 C.2     1  UNL1        0.0100
     28  C         21.0150  -21.7180  -11.3260 C.2     1  UNL1        0.0300
     29  C         23.8270  -21.9430  -13.9080 C.3     1  UNL1        0.0270
     30  C         24.6570  -23.1530  -14.4190 C.3     1  UNL1       -0.0050
     31  C         24.9720  -22.8950  -15.9120 C.3     1  UNL1        0.0100
     32  C         26.0030  -23.2990  -13.6830 C.3     1  UNL1        0.0100
     33  C         25.7920  -21.5970  -16.0680 C.3     1  UNL1       -0.0130
     34  C         27.1170  -21.7530  -15.3040 C.3     1  UNL1        0.0090
     35  C         25.0120  -20.4050  -15.4760 C.3     1  UNL1        0.0100
     36  C         26.8310  -22.0090  -13.8150 C.3     1  UNL1       -0.0130
     37  C         26.0430  -20.8160  -13.2480 C.3     1  UNL1        0.0100
     38  C         24.6970  -20.6600  -13.9810 C.3     1  UNL1       -0.0050
@<TRIPOS>BOND
     1    33    31    1
     2    33    35    1
     3    33    34    1
     4    31    30    1
     5    35    38    1
     6    34    36    1
     7    30    29    1
     8    30    32    1
     9    38    29    1
    10    38    37    1
    11    29    26    1
    12    36    32    1
    13    36    37    1
    14    26    27    2
    15    26    25    1
    16    27    28    1
    17    25    24    2
    18    28    23    2
    19    20    19    1
    20    24    23    1
    21    23     3    1
    22    19    18    2
    23    19    21    1
    24     4     3    1
    25     3     1   am
    26    18    17    1
    27    21    22    2
    28     1     2    2
    29     1     5    1
    30    17    16    2
    31    22    16    1
    32     5     6    2
    33     5    10    1
    34     6     7    1
    35    16    13    1
    36    10     9    2
    37     7     8    2
    38     9     8    1
    39     8    11    1
    40    13    14    2
    41    13    15    2
    42    13    11    1
    43    11    12    1
