@<TRIPOS>MOLECULE
45997_out_ligand_01.pdbqt
 31 34 0 0 0
SMALL
GASTEIGER

@<TRIPOS>ATOM
      1  C         22.8090  -22.4610  -11.9000 C.2     1  UNL1        0.0770
      2  C         21.9130  -21.7020  -12.6820 C.2     1  UNL1        0.0380
      3  C         20.6250  -21.4150  -12.2170 C.2     1  UNL1        0.0210
      4  C         20.2740  -21.9150  -10.9760 C.2     1  UNL1        0.0480
      5  C         21.1420  -22.6710  -10.2230 C.2     1  UNL1        0.0510
      6  C         22.4210  -22.9720  -10.6550 C.2     1  UNL1        0.0550
      7  C         20.4530  -23.0420   -8.9920 C.2     1  UNL1        0.2660
      8  O         21.0170  -23.7150   -8.1470 O.2     1  UNL1       -0.2670
      9  N         19.1850  -22.4950   -9.0490 N.am    1  UNL1       -0.2440
     10  C         19.0260  -21.7960  -10.2310 C.2     1  UNL1        0.2660
     11  O         18.0940  -21.1610  -10.6890 O.2     1  UNL1       -0.2670
     12  C         18.1860  -22.6280   -8.0310 C.2     1  UNL1        0.0460
     13  C         16.9870  -23.3260   -8.2590 C.2     1  UNL1        0.0310
     14  C         16.0080  -23.4550   -7.2640 C.2     1  UNL1        0.0190
     15  C         16.1930  -22.8810   -6.0060 C.2     1  UNL1        0.0320
     16  C         17.3810  -22.1970   -5.7490 C.2     1  UNL1        0.0190
     17  C         18.3570  -22.0730   -6.7520 C.2     1  UNL1        0.0310
     18  C         15.1260  -23.0440   -4.9840 C.2     1  UNL1        0.2490
     19  N         14.2680  -24.1010   -5.1260 N.am    1  UNL1       -0.3660
     20  H         13.6380  -24.2600   -4.3500 H       1  UNL1        0.1590
     21  H         14.4820  -24.8920   -5.7160 H       1  UNL1        0.1590
     22  O         15.0300  -22.2870   -4.0260 O.2     1  UNL1       -0.2680
     23  O         24.0390  -22.7190  -12.4640 O.2     1  UNL1       -0.3110
     24  C         24.7470  -21.6410  -12.9440 C.2     1  UNL1        0.0760
     25  C         24.8000  -21.3370  -14.3020 C.2     1  UNL1        0.0380
     26  C         25.5550  -20.2470  -14.7350 C.2     1  UNL1        0.0100
     27  C         26.2750  -19.4620  -13.8190 C.2     1  UNL1       -0.0560
     28  C         27.0830  -18.2990  -14.3260 C.3     1  UNL1        0.0490
     29  C         26.2480  -19.7960  -12.4480 C.2     1  UNL1       -0.0530
     30  C         25.4810  -20.8920  -12.0250 C.2     1  UNL1        0.0440
     31  C         27.0130  -18.9970  -11.4300 C.3     1  UNL1        0.0490
@<TRIPOS>BOND
     1    26    25    1
     2    26    27    2
     3    28    27    1
     4    25    24    2
     5    27    29    1
     6    24    23    1
     7    24    30    1
     8     2     3    1
     9     2     1    2
    10    23     1    1
    11    29    30    2
    12    29    31    1
    13     3     4    2
    14     1     6    1
    15     4    10    1
    16     4     5    1
    17    11    10    2
    18     6     5    2
    19    10     9   am
    20     5     7    1
    21     9     7   am
    22     9    12    1
    23     7     8    2
    24    13    12    2
    25    13    14    1
    26    12    17    1
    27    14    15    2
    28    17    16    2
    29    15    16    1
    30    15    18    1
    31    21    19    1
    32    19    18   am
    33    19    20    1
    34    18    22    2
