@<TRIPOS>MOLECULE
459_out_ligand_01.pdbqt
 39 41 0 0 0
SMALL
GASTEIGER

@<TRIPOS>ATOM
      1  N         22.1100  -22.0850   -9.7220 N.am    1  UNL1       -0.3230
      2  C         21.6670  -23.0860   -8.8770 C.2     1  UNL1        0.2560
      3  O         21.9330  -24.2780   -8.9390 O.2     1  UNL1       -0.2670
      4  H         21.6810  -21.1750   -9.6090 H       1  UNL1        0.1690
      5  C         20.7490  -22.6300   -7.8000 C.2     1  UNL1        0.0340
      6  C         21.0560  -21.4600   -7.1020 C.2     1  UNL1        0.0170
      7  C         20.2060  -21.0170   -6.0910 C.2     1  UNL1        0.0030
      8  C         19.0330  -21.7200   -5.8020 C.2     1  UNL1        0.0300
      9  C         18.6810  -22.8460   -6.5460 C.2     1  UNL1        0.0430
     10  C         19.5680  -23.3280   -7.5140 C.2     1  UNL1        0.0470
     11  N         17.5100  -23.6260   -6.2930 N.pl3   1  UNL1       -0.2810
     12  H         17.5980  -24.6330   -6.4340 H       1  UNL1        0.1790
     13  S         15.9840  -23.1310   -6.8300 S.O2    1  UNL1        0.2530
     14  O         15.0970  -23.3730   -5.7090 O.2     1  UNL1       -0.2010
     15  O         16.1090  -21.7820   -7.3470 O.2     1  UNL1       -0.2010
     16  C         15.5020  -24.1520   -8.1420 C.2     1  UNL1        0.1320
     17  C         15.8620  -24.0010   -9.4260 C.2     1  UNL1        0.0250
     18  C         16.7090  -22.9740  -10.0380 C.2     1  UNL1       -0.0360
     19  C         16.1350  -21.7440  -10.3840 C.2     1  UNL1        0.0110
     20  C         16.9080  -20.7390  -10.9690 C.2     1  UNL1        0.0010
     21  C         18.2590  -20.9630  -11.2240 C.2     1  UNL1        0.0000
     22  C         18.8330  -22.1930  -10.9100 C.2     1  UNL1        0.0010
     23  C         18.0580  -23.2000  -10.3280 C.2     1  UNL1        0.0110
     24  C         23.0350  -22.2080  -10.7820 C.2     1  UNL1        0.0360
     25  C         24.2380  -22.8690  -10.5000 C.2     1  UNL1        0.0460
     26  C         25.2060  -23.0440  -11.4990 C.2     1  UNL1        0.0350
     27  C         24.9640  -22.5850  -12.7960 C.2     1  UNL1        0.0340
     28  C         23.7620  -21.9360  -13.0890 C.2     1  UNL1        0.0350
     29  C         22.8090  -21.7360  -12.0770 C.2     1  UNL1        0.0460
     30  C         26.4890  -23.7410  -11.2320 C.2     1  UNL1        0.2490
     31  N         26.9560  -23.7330   -9.9470 N.am    1  UNL1       -0.3660
     32  H         26.6470  -23.0480   -9.2740 H       1  UNL1        0.1590
     33  H         27.8970  -24.0950   -9.8290 H       1  UNL1        0.1590
     34  O         27.1190  -24.2760  -12.1350 O.2     1  UNL1       -0.2680
     35  C         23.4670  -21.4280  -14.4550 C.2     1  UNL1        0.2490
     36  N         22.7610  -20.2610  -14.5530 N.am    1  UNL1       -0.3660
     37  H         22.6310  -19.6280  -13.7770 H       1  UNL1        0.1590
     38  H         22.6670  -19.8780  -15.4860 H       1  UNL1        0.1590
     39  O         23.8590  -22.0080  -15.4570 O.2     1  UNL1       -0.2680
@<TRIPOS>BOND
     1    38    36    1
     2    39    35    2
     3    36    35   am
     4    36    37    1
     5    35    28    1
     6    28    27    2
     7    28    29    1
     8    27    26    1
     9    34    30    2
    10    29    24    2
    11    26    30    1
    12    26    25    2
    13    30    31   am
    14    21    20    2
    15    21    22    1
    16    20    19    1
    17    22    23    2
    18    24    25    1
    19    24     1    1
    20    19    18    2
    21    23    18    1
    22    18    17    1
    23    31    33    1
    24    31    32    1
    25     1     4    1
    26     1     2   am
    27    17    16    2
    28     3     2    2
    29     2     5    1
    30    16    13    1
    31     5    10    2
    32     5     6    1
    33    10     9    1
    34    15    13    2
    35     6     7    2
    36    13    11    1
    37    13    14    2
    38     9    11    1
    39     9     8    2
    40    12    11    1
    41     7     8    1
