@<TRIPOS>MOLECULE
46003_out_ligand_01.pdbqt
 43 47 0 0 0
SMALL
GASTEIGER

@<TRIPOS>ATOM
      1  N         22.0490  -22.4280  -10.5200 N.am    1  UNL1       -0.3230
      2  C         22.3380  -22.7390   -9.2040 C.2     1  UNL1        0.2560
      3  O         23.4320  -23.0460   -8.7450 O.2     1  UNL1       -0.2670
      4  H         21.1330  -22.0430  -10.7070 H       1  UNL1        0.1690
      5  C         21.1830  -22.6410   -8.2670 C.2     1  UNL1        0.0320
      6  C         20.2570  -23.6890   -8.2350 C.2     1  UNL1        0.0170
      7  C         19.1590  -23.6300   -7.3720 C.2     1  UNL1        0.0110
      8  C         18.9590  -22.5160   -6.5370 C.2     1  UNL1       -0.0250
      9  C         19.8900  -21.4640   -6.5870 C.2     1  UNL1        0.0110
     10  C         20.9890  -21.5210   -7.4490 C.2     1  UNL1        0.0170
     11  C         17.7750  -22.4330   -5.5950 C.3     1  UNL1        0.1830
     12  S         18.0290  -23.4430   -4.1180 S.3     1  UNL1       -0.1300
     13  C         16.3780  -24.1620   -4.1710 C.3     1  UNL1        0.1790
     14  C         15.6970  -23.6410   -5.4130 C.2     1  UNL1        0.2300
     15  O         14.5300  -23.9040   -5.6880 O.2     1  UNL1       -0.2730
     16  N         16.5220  -22.8460   -6.1900 N.am    1  UNL1       -0.3340
     17  C         15.9770  -22.1280   -7.3420 C.3     1  UNL1        0.1320
     18  C         15.9000  -23.0020   -8.5980 C.3     1  UNL1        0.0580
     19  C         16.6970  -22.4160   -9.7350 C.2     1  UNL1       -0.0570
     20  C         17.8520  -23.0590  -10.1970 C.2     1  UNL1        0.0070
     21  C         18.6000  -22.5060  -11.2380 C.2     1  UNL1        0.0010
     22  C         18.2020  -21.3030  -11.8210 C.2     1  UNL1        0.0000
     23  C         17.0590  -20.6520  -11.3640 C.2     1  UNL1        0.0010
     24  C         16.3090  -21.2040  -10.3240 C.2     1  UNL1        0.0070
     25  C         22.9180  -22.5040  -11.6280 C.2     1  UNL1        0.0350
     26  C         24.0150  -23.3680  -11.7010 C.2     1  UNL1        0.0310
     27  C         24.8230  -23.3990  -12.8430 C.2     1  UNL1        0.0270
     28  C         24.5410  -22.5490  -13.9140 C.2     1  UNL1        0.0800
     29  C         23.4360  -21.6970  -13.8670 C.2     1  UNL1        0.0270
     30  C         22.6320  -21.6750  -12.7230 C.2     1  UNL1        0.0310
     31  S         25.5490  -22.6050  -15.3790 S.O2    1  UNL1        0.2630
     32  O         25.8340  -23.9920  -15.6750 O.2     1  UNL1       -0.2000
     33  O         24.9200  -21.7500  -16.3660 O.2     1  UNL1       -0.2000
     34  N         26.9620  -21.8090  -14.9180 N.pl3   1  UNL1       -0.2800
     35  H         27.8020  -22.2970  -15.2230 H       1  UNL1        0.1790
     36  C         26.9930  -20.3880  -14.8400 C.2     1  UNL1        0.0490
     37  C         27.0530  -19.7460  -13.5920 C.2     1  UNL1       -0.0350
     38  C         27.1210  -18.3450  -13.5570 C.2     1  UNL1        0.0090
     39  C         27.0520  -20.5090  -12.2980 C.3     1  UNL1        0.0500
     40  C         27.1180  -17.5980  -14.7370 C.2     1  UNL1        0.0070
     41  C         27.0310  -18.2350  -15.9780 C.2     1  UNL1       -0.0600
     42  C         27.0550  -17.4390  -17.2480 C.3     1  UNL1        0.0480
     43  C         26.9780  -19.6330  -16.0190 C.2     1  UNL1        0.0370
@<TRIPOS>BOND
     1    42    41    1
     2    33    31    2
     3    43    41    1
     4    43    36    2
     5    41    40    2
     6    32    31    2
     7    31    34    1
     8    31    28    1
     9    35    34    1
    10    34    36    1
    11    36    37    1
    12    40    38    1
    13    28    29    2
    14    28    27    1
    15    29    30    1
    16    37    38    2
    17    37    39    1
    18    27    26    2
    19    30    25    2
    20    22    23    2
    21    22    21    1
    22    26    25    1
    23    25     1    1
    24    23    24    1
    25    21    20    2
    26     4     1    1
    27     1     2   am
    28    24    19    2
    29    20    19    1
    30    19    18    1
    31     2     3    2
    32     2     5    1
    33    18    17    1
    34     5     6    2
    35     5    10    1
    36     6     7    1
    37    10     9    2
    38     7     8    2
    39    17    16    1
    40     9     8    1
    41     8    11    1
    42    16    11    1
    43    16    14   am
    44    15    14    2
    45    11    12    1
    46    14    13    1
    47    13    12    1
