@<TRIPOS>MOLECULE
46007_out_ligand_01.pdbqt
 36 39 0 0 0
SMALL
GASTEIGER

@<TRIPOS>ATOM
      1  C         18.3710  -23.6430   -8.5300 C.2     1  UNL1        0.0800
      2  C         19.6300  -24.1140   -8.1510 C.2     1  UNL1        0.0270
      3  C         20.7450  -23.8330   -8.9470 C.2     1  UNL1        0.0310
      4  C         20.6090  -23.0950  -10.1260 C.2     1  UNL1        0.0350
      5  C         19.3340  -22.6500  -10.5050 C.2     1  UNL1        0.0310
      6  C         18.2140  -22.9270   -9.7160 C.2     1  UNL1        0.0270
      7  N         21.6780  -22.7650  -10.9840 N.am    1  UNL1       -0.3230
      8  C         21.6970  -21.8170  -11.9910 C.2     1  UNL1        0.2570
      9  O         20.7520  -21.1080  -12.3260 O.2     1  UNL1       -0.2670
     10  H         22.5290  -23.2930  -10.8380 H       1  UNL1        0.1690
     11  C         23.0310  -21.7140  -12.7100 C.2     1  UNL1        0.0430
     12  C         23.0010  -21.1420  -13.9340 C.2     1  UNL1        0.0290
     13  C         24.1350  -20.9210  -14.8420 C.2     1  UNL1       -0.0350
     14  C         24.9710  -19.8170  -14.6270 C.2     1  UNL1        0.0110
     15  C         26.0650  -19.5850  -15.4620 C.2     1  UNL1        0.0010
     16  C         26.3390  -20.4600  -16.5110 C.2     1  UNL1        0.0000
     17  C         25.5240  -21.5700  -16.7240 C.2     1  UNL1        0.0010
     18  C         24.4290  -21.8050  -15.8870 C.2     1  UNL1        0.0110
     19  C         24.2790  -22.2130  -12.0950 C.2     1  UNL1       -0.0210
     20  C         24.8120  -23.4450  -12.4990 C.2     1  UNL1        0.0120
     21  C         26.0110  -23.9070  -11.9520 C.2     1  UNL1        0.0010
     22  C         26.6830  -23.1420  -10.9990 C.2     1  UNL1        0.0000
     23  C         26.1580  -21.9180  -10.5890 C.2     1  UNL1        0.0010
     24  C         24.9610  -21.4510  -11.1360 C.2     1  UNL1        0.0120
     25  S         16.9480  -24.0100   -7.5280 S.O2    1  UNL1        0.2630
     26  O         15.8490  -24.2950   -8.4300 O.2     1  UNL1       -0.2000
     27  O         17.3440  -24.9640   -6.5140 O.2     1  UNL1       -0.2000
     28  N         16.5800  -22.5280   -6.8110 N.pl3   1  UNL1       -0.2800
     29  H         16.4040  -21.7980   -7.4960 H       1  UNL1        0.1790
     30  C         17.1780  -22.1650   -5.5690 C.2     1  UNL1        0.0480
     31  C         18.3990  -21.4830   -5.5700 C.2     1  UNL1        0.0300
     32  C         18.9900  -21.0920   -4.3690 C.2     1  UNL1        0.0020
     33  C         18.3650  -21.3840   -3.1620 C.2     1  UNL1        0.0010
     34  C         17.1520  -22.0740   -3.1530 C.2     1  UNL1        0.0090
     35  C         16.5430  -22.4750   -4.3550 C.2     1  UNL1       -0.0350
     36  C         15.2420  -23.2230   -4.2990 C.3     1  UNL1        0.0500
@<TRIPOS>BOND
     1    17    16    2
     2    17    18    1
     3    16    15    1
     4    18    13    2
     5    15    14    2
     6    13    14    1
     7    13    12    1
     8    12    11    2
     9    11    19    1
    10    11     8    1
    11    20    19    2
    12    20    21    1
    13     9     8    2
    14    19    24    1
    15     8     7   am
    16    21    22    2
    17    24    23    2
    18    22    23    1
    19     7    10    1
    20     7     4    1
    21     5     4    2
    22     5     6    1
    23     4     3    1
    24     6     1    2
    25     3     2    2
    26     1     2    1
    27     1    25    1
    28    26    25    2
    29    25    28    1
    30    25    27    2
    31    29    28    1
    32    28    30    1
    33    31    30    2
    34    31    32    1
    35    30    35    1
    36    32    33    2
    37    35    36    1
    38    35    34    2
    39    33    34    1
