@<TRIPOS>MOLECULE
46018_out_ligand_01.pdbqt
 37 41 0 0 0
SMALL
GASTEIGER

@<TRIPOS>ATOM
      1  C         18.6950  -22.5460  -10.0890 C.2     1  UNL1        0.0800
      2  C         19.5600  -23.4760   -9.5140 C.2     1  UNL1        0.0270
      3  C         20.9090  -23.4760   -9.8780 C.2     1  UNL1        0.0310
      4  C         21.3980  -22.5580  -10.8180 C.2     1  UNL1        0.0340
      5  C         20.5110  -21.6550  -11.4090 C.2     1  UNL1        0.0310
      6  C         19.1570  -21.6520  -11.0550 C.2     1  UNL1        0.0270
      7  N         22.7760  -22.6060  -11.0980 N.am    1  UNL1       -0.3260
      8  C         23.8050  -21.9530  -10.4450 C.2     1  UNL1        0.2400
      9  O         23.6780  -21.1330   -9.5400 O.2     1  UNL1       -0.2710
     10  H         23.0580  -23.2160  -11.8560 H       1  UNL1        0.1690
     11  C         25.1940  -22.2540  -11.0200 C.3     1  UNL1        0.2350
     12  N         25.5640  -21.4250  -12.1470 N.am    1  UNL1       -0.3040
     13  C         26.1430  -20.1630  -12.0700 C.2     1  UNL1        0.2590
     14  O         26.4030  -19.5060  -11.0820 O.2     1  UNL1       -0.2670
     15  C         26.3390  -19.7370  -13.4710 C.2     1  UNL1        0.0450
     16  C         26.8620  -18.5870  -14.0280 C.2     1  UNL1        0.0180
     17  C         25.8620  -20.7440  -14.2650 C.2     1  UNL1        0.0170
     18  C         26.8850  -18.4990  -15.4300 C.2     1  UNL1        0.0020
     19  C         26.3890  -19.5470  -16.2410 C.2     1  UNL1        0.0120
     20  C         25.8550  -20.7150  -15.6540 C.2     1  UNL1       -0.0230
     21  C         25.3140  -21.8570  -16.2780 C.2     1  UNL1        0.0120
     22  C         24.8200  -22.9290  -15.4990 C.2     1  UNL1        0.0030
     23  C         24.8540  -22.8940  -14.0930 C.2     1  UNL1        0.0310
     24  C         25.3910  -21.7740  -13.4950 C.2     1  UNL1        0.0500
     25  S         16.9790  -22.5190   -9.6150 S.O2    1  UNL1        0.2630
     26  O         16.2610  -21.7690  -10.6230 O.2     1  UNL1       -0.2000
     27  O         16.5880  -23.8680   -9.2690 O.2     1  UNL1       -0.2000
     28  N         16.9750  -21.5540   -8.2280 N.pl3   1  UNL1       -0.2800
     29  H         17.6610  -20.8050   -8.2850 H       1  UNL1        0.1790
     30  C         16.7180  -22.1390   -6.9530 C.2     1  UNL1        0.0480
     31  C         15.4130  -22.5000   -6.6110 C.2     1  UNL1        0.0310
     32  C         15.1450  -23.1080   -5.3840 C.2     1  UNL1        0.0090
     33  C         16.1810  -23.3670   -4.4840 C.2     1  UNL1       -0.0610
     34  C         15.8930  -23.9960   -3.1530 C.3     1  UNL1        0.0480
     35  C         17.4850  -22.9740   -4.8170 C.2     1  UNL1        0.0150
     36  C         17.7700  -22.3610   -6.0490 C.2     1  UNL1       -0.0340
     37  C         19.1860  -21.9590   -6.3520 C.3     1  UNL1        0.0500
@<TRIPOS>BOND
     1    21    20    1
     2    21    22    2
     3    19    20    2
     4    19    18    1
     5    20    17    1
     6    22    23    1
     7    18    16    2
     8    17    24    1
     9    17    15    2
    10    23    24    2
    11    16    15    1
    12    24    12    1
    13    15    13    1
    14    12    13   am
    15    12    11    1
    16    13    14    2
    17    10     7    1
    18     5     6    1
    19     5     4    2
    20     7     4    1
    21     7     8   am
    22     6     1    2
    23    11     8    1
    24     4     3    1
    25    26    25    2
    26     8     9    2
    27     1    25    1
    28     1     2    1
    29     3     2    2
    30    25    27    2
    31    25    28    1
    32    29    28    1
    33    28    30    1
    34    30    31    2
    35    30    36    1
    36    31    32    1
    37    37    36    1
    38    36    35    2
    39    32    33    2
    40    35    33    1
    41    33    34    1
