@<TRIPOS>MOLECULE
46011_out_ligand_01.pdbqt
 41 44 0 0 0
SMALL
GASTEIGER

@<TRIPOS>ATOM
      1  N         21.4490  -22.7620   -9.6660 N.am    1  UNL1       -0.3230
      2  C         21.2500  -22.0870  -10.8580 C.2     1  UNL1        0.2560
      3  O         20.2670  -21.4310  -11.1740 O.2     1  UNL1       -0.2670
      4  H         22.2790  -23.3360   -9.5950 H       1  UNL1        0.1690
      5  C         22.3630  -22.2100  -11.8450 C.2     1  UNL1        0.0320
      6  C         22.4430  -21.3880  -12.9780 C.2     1  UNL1        0.0190
      7  C         23.4950  -21.5440  -13.8880 C.2     1  UNL1        0.0310
      8  C         24.4740  -22.5220  -13.6750 C.2     1  UNL1        0.0450
      9  C         24.3720  -23.3600  -12.5630 C.2     1  UNL1        0.0310
     10  C         23.3250  -23.2070  -11.6500 C.2     1  UNL1        0.0190
     11  N         25.5250  -22.7470  -14.6290 N.pl3   1  UNL1       -0.2720
     12  C         26.9020  -22.3130  -14.2960 C.3     1  UNL1        0.1800
     13  C         26.9720  -20.9450  -13.6440 C.2     1  UNL1       -0.0330
     14  C         26.9730  -19.8080  -14.4770 C.2     1  UNL1        0.0090
     15  C         27.0440  -18.5200  -13.9450 C.2     1  UNL1        0.0010
     16  C         27.1210  -18.3460  -12.5690 C.2     1  UNL1        0.0010
     17  C         27.1210  -19.4570  -11.7270 C.2     1  UNL1        0.0070
     18  C         27.0340  -20.7610  -12.2440 C.2     1  UNL1       -0.0540
     19  C         27.0660  -21.9100  -11.2730 C.3     1  UNL1        0.0490
     20  S         25.0780  -22.7460  -16.2740 S.O2    1  UNL1        0.2290
     21  C         26.6410  -22.4780  -17.0900 C.3     1  UNL1        0.1860
     22  O         24.2430  -21.5950  -16.5510 O.2     1  UNL1       -0.2060
     23  O         24.6430  -24.0760  -16.6440 O.2     1  UNL1       -0.2060
     24  C         20.5920  -22.7980   -8.5450 C.2     1  UNL1        0.0350
     25  C         19.8010  -23.9460   -8.3930 C.2     1  UNL1        0.0310
     26  C         18.9150  -24.0650   -7.3200 C.2     1  UNL1        0.0270
     27  C         18.8210  -23.0310   -6.3840 C.2     1  UNL1        0.0800
     28  C         19.5980  -21.8810   -6.5250 C.2     1  UNL1        0.0270
     29  C         20.4890  -21.7720   -7.6000 C.2     1  UNL1        0.0310
     30  S         17.6330  -23.1510   -5.0620 S.O2    1  UNL1        0.2630
     31  O         17.7050  -24.4900   -4.5200 O.2     1  UNL1       -0.2000
     32  O         17.8240  -21.9930   -4.2100 O.2     1  UNL1       -0.2000
     33  N         16.1550  -22.9040   -5.8390 N.pl3   1  UNL1       -0.2810
     34  H         15.6630  -22.0920   -5.4770 H       1  UNL1        0.1790
     35  C         16.0100  -23.1940   -7.2270 C.2     1  UNL1        0.0430
     36  C         15.4570  -24.3990   -7.6570 C.2     1  UNL1        0.0300
     37  C         15.3170  -24.6560   -9.0210 C.2     1  UNL1        0.0030
     38  C         15.7120  -23.7020   -9.9580 C.2     1  UNL1        0.0070
     39  C         16.2600  -22.4840   -9.5370 C.2     1  UNL1       -0.0600
     40  C         16.6490  -21.4340  -10.5380 C.3     1  UNL1        0.0480
     41  C         16.4010  -22.2340   -8.1650 C.2     1  UNL1        0.0370
@<TRIPOS>BOND
     1    21    20    1
     2    23    20    2
     3    22    20    2
     4    20    11    1
     5    11    12    1
     6    11     8    1
     7    14    15    1
     8    14    13    2
     9    12    13    1
    10    15    16    2
    11     7     8    2
    12     7     6    1
    13     8     9    1
    14    13    18    1
    15     6     5    2
    16    16    17    1
    17     9    10    2
    18    18    17    2
    19    18    19    1
    20     5    10    1
    21     5     2    1
    22     3     2    2
    23     2     1   am
    24    40    39    1
    25    38    39    2
    26    38    37    1
    27     1     4    1
    28     1    24    1
    29    39    41    1
    30    37    36    2
    31    24    25    2
    32    24    29    1
    33    25    26    1
    34    41    35    2
    35    36    35    1
    36    29    28    2
    37    26    27    2
    38    35    33    1
    39    28    27    1
    40    27    30    1
    41    33    34    1
    42    33    30    1
    43    30    31    2
    44    30    32    2
