@<TRIPOS>MOLECULE
46021_out_ligand_01.pdbqt
 42 46 0 0 0
SMALL
GASTEIGER

@<TRIPOS>ATOM
      1  O         22.6450  -21.7730   -7.9040 O.2     1  UNL1       -0.2670
      2  C         21.8410  -22.4210   -8.5610 C.2     1  UNL1        0.2560
      3  N         22.0060  -22.8820   -9.8560 N.am    1  UNL1       -0.3230
      4  H         21.3220  -23.5490  -10.1930 H       1  UNL1        0.1690
      5  C         20.5590  -22.8220   -7.9200 C.2     1  UNL1        0.0320
      6  C         20.0200  -24.1010   -8.0980 C.2     1  UNL1        0.0170
      7  C         18.8080  -24.4390   -7.4890 C.2     1  UNL1        0.0110
      8  C         18.1160  -23.5080   -6.6940 C.2     1  UNL1       -0.0250
      9  C         18.6600  -22.2200   -6.5410 C.2     1  UNL1        0.0110
     10  C         19.8680  -21.8780   -7.1540 C.2     1  UNL1        0.0170
     11  C         16.7890  -23.8410   -6.0350 C.3     1  UNL1        0.1830
     12  S         16.9360  -23.8330   -4.2300 S.3     1  UNL1       -0.1300
     13  C         15.7710  -22.4750   -4.0120 C.3     1  UNL1        0.1790
     14  C         15.1290  -22.2150   -5.3520 C.2     1  UNL1        0.2300
     15  O         14.1790  -21.4540   -5.5020 O.2     1  UNL1       -0.2730
     16  N         15.7290  -22.9150   -6.3810 N.am    1  UNL1       -0.3340
     17  C         15.1800  -22.8860   -7.7340 C.3     1  UNL1        0.1320
     18  C         16.0030  -23.6730   -8.7640 C.3     1  UNL1        0.0580
     19  C         16.6830  -22.7930   -9.7850 C.2     1  UNL1       -0.0570
     20  C         16.2900  -21.4560   -9.9500 C.2     1  UNL1        0.0070
     21  C         16.9460  -20.6360  -10.8690 C.2     1  UNL1        0.0010
     22  C         17.9980  -21.1420  -11.6300 C.2     1  UNL1        0.0000
     23  C         18.3940  -22.4700  -11.4770 C.2     1  UNL1        0.0010
     24  C         17.7380  -23.2940  -10.5600 C.2     1  UNL1        0.0070
     25  C         23.0790  -22.6050  -10.7270 C.2     1  UNL1        0.0350
     26  C         24.4230  -22.7070  -10.3610 C.2     1  UNL1        0.0310
     27  C         25.4370  -22.3950  -11.2740 C.2     1  UNL1        0.0270
     28  C         25.1030  -22.0020  -12.5700 C.2     1  UNL1        0.0800
     29  C         23.7640  -21.8740  -12.9470 C.2     1  UNL1        0.0270
     30  C         22.7580  -22.1750  -12.0230 C.2     1  UNL1        0.0310
     31  S         26.3880  -21.5910  -13.7310 S.O2    1  UNL1        0.2630
     32  O         27.0990  -20.4450  -13.2010 O.2     1  UNL1       -0.2000
     33  O         27.0850  -22.8090  -14.0790 O.2     1  UNL1       -0.2000
     34  N         25.5290  -21.0220  -15.0690 N.pl3   1  UNL1       -0.2810
     35  H         25.1810  -21.7810  -15.6540 H       1  UNL1        0.1790
     36  C         25.9330  -19.8170  -15.7030 C.2     1  UNL1        0.0420
     37  C         26.1840  -18.6870  -14.9200 C.2     1  UNL1        0.0320
     38  C         26.5390  -17.4820  -15.5330 C.2     1  UNL1        0.0260
     39  C         26.6440  -17.4150  -16.9220 C.2     1  UNL1        0.0340
     40 CL         27.0750  -15.9290  -17.6730 Cl      1  UNL1       -0.0840
     41  C         26.4030  -18.5420  -17.7050 C.2     1  UNL1        0.0260
     42  C         26.0460  -19.7460  -17.0930 C.2     1  UNL1        0.0320
@<TRIPOS>BOND
     1    41    42    1
     2    41    39    2
     3    40    39    1
     4    42    36    2
     5    39    38    1
     6    36    34    1
     7    36    37    1
     8    35    34    1
     9    38    37    2
    10    34    31    1
    11    33    31    2
    12    31    32    2
    13    31    28    1
    14    29    28    2
    15    29    30    1
    16    28    27    1
    17    30    25    2
    18    22    23    2
    19    22    21    1
    20    23    24    1
    21    27    26    2
    22    21    20    2
    23    25    26    1
    24    25     3    1
    25    24    19    2
    26     4     3    1
    27    20    19    1
    28     3     2   am
    29    19    18    1
    30    18    17    1
    31     2     5    1
    32     2     1    2
    33     6     5    2
    34     6     7    1
    35     5    10    1
    36    17    16    1
    37     7     8    2
    38    10     9    2
    39     8     9    1
    40     8    11    1
    41    16    11    1
    42    16    14   am
    43    11    12    1
    44    15    14    2
    45    14    13    1
    46    12    13    1
