@<TRIPOS>MOLECULE
4602_out_ligand_01.pdbqt
 30 33 0 0 0
SMALL
GASTEIGER

@<TRIPOS>ATOM
      1  C         18.7560  -23.6230   -7.2420 C.2     1  UNL1        0.0320
      2  C         19.0850  -22.3190   -6.8580 C.2     1  UNL1        0.0180
      3  C         20.3080  -21.7700   -7.2530 C.2     1  UNL1        0.0240
      4  C         21.1910  -22.5190   -8.0440 C.2     1  UNL1        0.0440
      5  C         22.4440  -21.9520   -8.4540 C.1     1  UNL1        0.0990
      6  N         23.4600  -21.4970   -8.7830 N.1     1  UNL1       -0.1910
      7  C         20.8430  -23.8150   -8.4460 C.2     1  UNL1        0.0240
      8  C         19.6210  -24.3670   -8.0520 C.2     1  UNL1        0.0180
      9  C         17.4440  -24.1780   -6.8520 C.2     1  UNL1        0.2530
     10  N         16.3380  -23.9360   -7.6720 N.am    1  UNL1       -0.3520
     11  C         15.0710  -24.4990   -7.2260 C.3     1  UNL1        0.1520
     12  O         17.4000  -24.8260   -5.8090 O.2     1  UNL1       -0.2670
     13  C         16.4430  -23.5730   -9.0950 C.3     1  UNL1        0.1330
     14  C         16.3150  -22.0700   -9.3740 C.3     1  UNL1        0.1030
     15  C         17.2610  -21.5940  -10.4110 C.2     1  UNL1        0.1580
     16  N         18.5470  -22.0640  -10.4970 N.2     1  UNL1       -0.2030
     17  C         19.0280  -21.3930  -11.5240 C.2     1  UNL1        0.2230
     18  C         20.3620  -21.5420  -12.0010 C.2     1  UNL1        0.0890
     19  O         18.1040  -20.5440  -12.0760 O.2     1  UNL1       -0.1890
     20  N         21.2210  -22.4710  -11.4680 N.pl3   1  UNL1       -0.3520
     21  C         21.0420  -20.8720  -12.9970 C.2     1  UNL1        0.0480
     22  C         22.4430  -22.4160  -12.1000 C.2     1  UNL1        0.0430
     23  H         20.9840  -23.1010  -10.7130 H       1  UNL1        0.1660
     24  C         23.6050  -23.1640  -11.8870 C.2     1  UNL1        0.0310
     25  C         22.3560  -21.4150  -13.0670 C.2     1  UNL1       -0.0070
     26  C         24.7140  -22.8770  -12.6910 C.2     1  UNL1        0.0090
     27  C         24.6650  -21.8890  -13.6810 C.2     1  UNL1       -0.0610
     28  C         25.8840  -21.5900  -14.5040 C.3     1  UNL1        0.0480
     29  C         23.4860  -21.1430  -13.8640 C.2     1  UNL1        0.0200
     30  N         16.9270  -20.6900  -11.3390 N.4     1  UNL1       -0.1110
@<TRIPOS>BOND
     1    28    27    1
     2    29    27    2
     3    29    25    1
     4    27    26    1
     5    25    21    1
     6    25    22    2
     7    21    18    2
     8    26    24    2
     9    22    24    1
    10    22    20    1
    11    19    17    1
    12    19    30    1
    13    18    17    1
    14    18    20    1
    15    17    16    2
    16    20    23    1
    17    30    15    1
    18    16    15    2
    19    15    14    1
    20    14    13    1
    21    13    10    1
    22     6     5    3
    23     5     4    1
    24     7     8    1
    25     7     4    2
    26     8     1    2
    27     4     3    1
    28    10    11    1
    29    10     9   am
    30     3     2    2
    31     1     2    1
    32     1     9    1
    33     9    12    2
