@<TRIPOS>MOLECULE
46020_out_ligand_01.pdbqt
 32 35 0 0 0
SMALL
GASTEIGER

@<TRIPOS>ATOM
      1  C         21.5010  -23.2650   -8.5970 C.2     1  UNL1        0.0320
      2  C         20.8520  -24.5020   -8.6770 C.2     1  UNL1        0.0170
      3  C         19.6300  -24.7040   -8.0290 C.2     1  UNL1        0.0110
      4  C         19.0280  -23.6690   -7.2940 C.2     1  UNL1       -0.0250
      5  C         19.6930  -22.4330   -7.2120 C.2     1  UNL1        0.0110
      6  C         20.9100  -22.2240   -7.8710 C.2     1  UNL1        0.0170
      7  C         17.7000  -23.9130   -6.6020 C.3     1  UNL1        0.1830
      8  S         17.7640  -23.3620   -4.8800 S.3     1  UNL1       -0.1300
      9  C         16.1880  -22.4960   -4.9630 C.3     1  UNL1        0.1790
     10  C         15.7040  -22.5690   -6.3890 C.2     1  UNL1        0.2300
     11  O         14.6410  -22.0730   -6.7520 O.2     1  UNL1       -0.2730
     12  N         16.5770  -23.2440   -7.2250 N.am    1  UNL1       -0.3340
     13  C         16.1820  -23.5670   -8.5960 C.3     1  UNL1        0.1320
     14  C         15.9420  -22.3200   -9.4540 C.3     1  UNL1        0.0580
     15  C         17.1440  -22.0030  -10.3050 C.2     1  UNL1       -0.0570
     16  C         17.3240  -20.7130  -10.8220 C.2     1  UNL1        0.0070
     17  C         18.4540  -20.4110  -11.5840 C.2     1  UNL1        0.0010
     18  C         19.4140  -21.3910  -11.8300 C.2     1  UNL1        0.0000
     19  C         19.2460  -22.6760  -11.3170 C.2     1  UNL1        0.0010
     20  C         18.1160  -22.9820  -10.5570 C.2     1  UNL1        0.0070
     21  C         22.7840  -23.0890   -9.3400 C.2     1  UNL1        0.2560
     22  N         22.7580  -22.1420  -10.3500 N.am    1  UNL1       -0.3230
     23  H         21.9390  -21.5520  -10.4110 H       1  UNL1        0.1690
     24  O         23.7500  -23.7580   -8.9900 O.2     1  UNL1       -0.2670
     25  C         23.7950  -21.8350  -11.2590 C.2     1  UNL1        0.0360
     26  C         24.9700  -21.2900  -10.7280 C.2     1  UNL1        0.0290
     27  C         26.0320  -20.9480  -11.5660 C.2     1  UNL1        0.0040
     28  C         25.9300  -21.1530  -12.9410 C.2     1  UNL1        0.0180
     29  C         24.7680  -21.7050  -13.4880 C.2     1  UNL1        0.0020
     30  C         23.6980  -22.0250  -12.6420 C.2     1  UNL1        0.0480
     31  S         24.6970  -21.9370  -15.2610 S.3     1  UNL1       -0.1340
     32  C         25.3320  -23.6300  -15.4150 C.3     1  UNL1        0.0950
@<TRIPOS>BOND
     1    32    31    1
     2    31    29    1
     3    29    28    2
     4    29    30    1
     5    28    27    1
     6    30    25    2
     7    18    17    2
     8    18    19    1
     9    17    16    1
    10    27    26    2
    11    19    20    2
    12    25    26    1
    13    25    22    1
    14    16    15    2
    15    20    15    1
    16    23    22    1
    17    22    21   am
    18    15    14    1
    19    14    13    1
    20    21    24    2
    21    21     1    1
    22     2     1    2
    23     2     3    1
    24     1     6    1
    25    13    12    1
    26     3     4    2
    27     6     5    2
    28     4     5    1
    29     4     7    1
    30    12     7    1
    31    12    10   am
    32    11    10    2
    33     7     8    1
    34    10     9    1
    35     9     8    1
