@<TRIPOS>MOLECULE
46033_out_ligand_01.pdbqt
 35 37 0 0 0
SMALL
GASTEIGER

@<TRIPOS>ATOM
      1  C         22.6450  -23.3170   -8.9390 C.2     1  UNL1        0.0340
      2  C         22.2150  -22.2010   -8.2160 C.2     1  UNL1        0.0310
      3  C         20.9310  -22.1630   -7.6590 C.2     1  UNL1        0.0270
      4  C         20.0720  -23.2470   -7.8360 C.2     1  UNL1        0.0750
      5  C         20.4900  -24.3760   -8.5420 C.2     1  UNL1        0.0270
      6  C         21.7740  -24.4050   -9.0930 C.2     1  UNL1        0.0310
      7  S         18.4410  -23.2210   -7.1330 S.O2    1  UNL1        0.2450
      8  O         18.3400  -24.3490   -6.2340 O.2     1  UNL1       -0.2060
      9  O         18.1500  -21.8680   -6.7120 O.2     1  UNL1       -0.2060
     10  N         17.5030  -23.5110   -8.5320 N.pl3   1  UNL1       -0.1810
     11  H         17.7180  -24.4580   -8.8450 H       1  UNL1        0.1460
     12  C         17.7270  -22.5600   -9.5790 C.2     1  UNL1        0.0230
     13  C         16.6620  -21.8220  -10.0980 C.2     1  UNL1        0.0240
     14  C         16.8820  -20.9350  -11.1510 C.2     1  UNL1        0.0030
     15  C         18.1610  -20.8010  -11.6950 C.2     1  UNL1        0.0160
     16  C         19.2320  -21.5610  -11.2000 C.2     1  UNL1        0.0490
     17  C         19.0010  -22.4420  -10.1320 C.2     1  UNL1        0.0400
     18  C         20.6080  -21.4120  -11.7980 C.3     1  UNL1        0.4170
     19  F         20.5830  -20.8850  -13.0540 F       1  UNL1       -0.1660
     20  F         21.2910  -22.5850  -11.8960 F       1  UNL1       -0.1660
     21  F         21.3990  -20.5810  -11.0630 F       1  UNL1       -0.1660
     22  N         23.9170  -23.4300   -9.5290 N.am    1  UNL1       -0.3260
     23  C         24.6380  -22.4540  -10.1990 C.2     1  UNL1        0.2360
     24  O         24.2840  -21.2910  -10.3770 O.2     1  UNL1       -0.2720
     25  H         24.3330  -24.3550   -9.5330 H       1  UNL1        0.1690
     26  C         26.0190  -22.9220  -10.6750 C.3     1  UNL1        0.1400
     27  C         26.5140  -24.0720   -9.8060 C.3     1  UNL1        0.0310
     28  S         25.9590  -23.4720  -12.4300 S.3     1  UNL1       -0.1160
     29  C         26.1290  -21.8890  -13.2320 C.2     1  UNL1        0.0010
     30  C         26.9130  -20.8910  -12.6480 C.2     1  UNL1        0.0190
     31  C         27.0530  -19.6490  -13.2730 C.2     1  UNL1        0.0080
     32  C         26.3950  -19.3850  -14.4810 C.2     1  UNL1       -0.0620
     33  C         26.5690  -18.0650  -15.1720 C.3     1  UNL1        0.0480
     34  C         25.6130  -20.3890  -15.0630 C.2     1  UNL1        0.0080
     35  C         25.4750  -21.6310  -14.4390 C.2     1  UNL1        0.0190
@<TRIPOS>BOND
     1    33    32    1
     2    34    32    2
     3    34    35    1
     4    32    31    1
     5    35    29    2
     6    31    30    2
     7    29    30    1
     8    29    28    1
     9    19    18    1
    10    28    26    1
    11    20    18    1
    12    18    16    1
    13    18    21    1
    14    15    16    2
    15    15    14    1
    16    16    17    1
    17    14    13    2
    18    26    23    1
    19    26    27    1
    20    24    23    2
    21    23    22   am
    22    17    12    2
    23    13    12    1
    24    12    10    1
    25    25    22    1
    26    22     1    1
    27     6     1    2
    28     6     5    1
    29     1     2    1
    30    11    10    1
    31     5     4    2
    32    10     7    1
    33     2     3    2
    34     4     3    1
    35     4     7    1
    36     7     9    2
    37     7     8    2
