@<TRIPOS>MOLECULE
46036_out_ligand_01.pdbqt
 43 47 0 0 0
SMALL
GASTEIGER

@<TRIPOS>ATOM
      1  N         21.8020  -22.5840  -10.5580 N.am    1  UNL1       -0.3230
      2  C         21.8650  -23.3660   -9.4190 C.2     1  UNL1        0.2560
      3  O         22.6950  -24.2300   -9.1620 O.2     1  UNL1       -0.2670
      4  H         20.9580  -22.0410  -10.6900 H       1  UNL1        0.1690
      5  C         20.7590  -23.1400   -8.4510 C.2     1  UNL1        0.0320
      6  C         19.8780  -24.1920   -8.1830 C.2     1  UNL1        0.0170
      7  C         18.8350  -24.0200   -7.2700 C.2     1  UNL1        0.0110
      8  C         18.6690  -22.7970   -6.5980 C.2     1  UNL1       -0.0250
      9  C         19.5700  -21.7490   -6.8680 C.2     1  UNL1        0.0110
     10  C         20.6100  -21.9180   -7.7860 C.2     1  UNL1        0.0170
     11  C         17.5580  -22.6400   -5.5790 C.3     1  UNL1        0.1830
     12  S         17.8170  -23.6850   -4.1260 S.3     1  UNL1       -0.1300
     13  C         16.0830  -24.1590   -4.0110 C.3     1  UNL1        0.1790
     14  C         15.3860  -23.6210   -5.2380 C.2     1  UNL1        0.2300
     15  O         14.1840  -23.7670   -5.4370 O.2     1  UNL1       -0.2730
     16  N         16.2430  -22.9570   -6.1000 N.am    1  UNL1       -0.3340
     17  C         15.7140  -22.2490   -7.2660 C.3     1  UNL1        0.1320
     18  C         15.7060  -23.1100   -8.5330 C.3     1  UNL1        0.0580
     19  C         16.5790  -22.5180   -9.6080 C.2     1  UNL1       -0.0570
     20  C         17.5470  -23.3030  -10.2500 C.2     1  UNL1        0.0070
     21  C         18.3390  -22.7600  -11.2620 C.2     1  UNL1        0.0010
     22  C         18.1700  -21.4300  -11.6440 C.2     1  UNL1        0.0000
     23  C         17.2050  -20.6430  -11.0160 C.2     1  UNL1        0.0010
     24  C         16.4110  -21.1840  -10.0040 C.2     1  UNL1        0.0070
     25  C         22.7340  -22.5420  -11.6140 C.2     1  UNL1        0.0350
     26  C         23.9320  -23.2620  -11.6220 C.2     1  UNL1        0.0310
     27  C         24.8120  -23.1650  -12.7040 C.2     1  UNL1        0.0270
     28  C         24.4820  -22.3590  -13.7960 C.2     1  UNL1        0.0800
     29  C         23.3030  -21.6110  -13.7900 C.2     1  UNL1        0.0270
     30  C         22.4350  -21.7060  -12.6990 C.2     1  UNL1        0.0310
     31  S         25.5940  -22.2440  -15.1790 S.O2    1  UNL1        0.2630
     32  O         24.8240  -21.8590  -16.3420 O.2     1  UNL1       -0.2000
     33  O         26.4080  -23.4430  -15.1840 O.2     1  UNL1       -0.2000
     34  N         26.6310  -20.9890  -14.7390 N.pl3   1  UNL1       -0.2800
     35  H         26.7890  -20.9320  -13.7370 H       1  UNL1        0.1790
     36  C         26.6850  -19.8000  -15.5240 C.2     1  UNL1        0.0500
     37  C         26.4710  -19.9160  -16.9020 C.2     1  UNL1        0.0310
     38  C         26.4640  -18.7880  -17.7180 C.2     1  UNL1        0.0040
     39  C         26.6660  -17.5330  -17.1540 C.2     1  UNL1        0.0240
     40  C         26.8810  -17.4090  -15.7770 C.2     1  UNL1        0.0420
     41  C         26.9070  -18.5410  -14.9350 C.2     1  UNL1       -0.0130
     42 CL         27.0980  -15.8080  -15.1560 Cl      1  UNL1       -0.0840
     43  C         27.1090  -18.3670  -13.4530 C.3     1  UNL1        0.0520
@<TRIPOS>BOND
     1    38    39    2
     2    38    37    1
     3    39    40    1
     4    37    36    2
     5    32    31    2
     6    40    42    1
     7    40    41    2
     8    36    41    1
     9    36    34    1
    10    33    31    2
    11    31    34    1
    12    31    28    1
    13    41    43    1
    14    34    35    1
    15    28    29    2
    16    28    27    1
    17    29    30    1
    18    27    26    2
    19    30    25    2
    20    22    21    2
    21    22    23    1
    22    26    25    1
    23    25     1    1
    24    21    20    1
    25    23    24    2
    26     4     1    1
    27     1     2   am
    28    20    19    2
    29    24    19    1
    30    19    18    1
    31     2     3    2
    32     2     5    1
    33    18    17    1
    34     5     6    2
    35     5    10    1
    36     6     7    1
    37    10     9    2
    38     7     8    2
    39    17    16    1
    40     9     8    1
    41     8    11    1
    42    16    11    1
    43    16    14   am
    44    11    12    1
    45    15    14    2
    46    14    13    1
    47    12    13    1
