@<TRIPOS>MOLECULE
46045_out_ligand_01.pdbqt
 31 34 0 0 0
SMALL
GASTEIGER

@<TRIPOS>ATOM
      1  C         21.5210  -23.3420   -8.6410 C.2     1  UNL1        0.0320
      2  C         20.9530  -22.3090   -7.8890 C.2     1  UNL1        0.0170
      3  C         19.7270  -22.5030   -7.2450 C.2     1  UNL1        0.0110
      4  C         19.0500  -23.7320   -7.3360 C.2     1  UNL1       -0.0250
      5  C         19.6440  -24.7710   -8.0690 C.2     1  UNL1        0.0110
      6  C         20.8680  -24.5790   -8.7140 C.2     1  UNL1        0.0170
      7  C         17.7170  -23.9560   -6.6500 C.3     1  UNL1        0.1830
      8  S         17.7660  -23.4340   -4.9200 S.3     1  UNL1       -0.1300
      9  C         16.2570  -22.4560   -5.0340 C.3     1  UNL1        0.1790
     10  C         15.7580  -22.5540   -6.4540 C.2     1  UNL1        0.2300
     11  O         14.6990  -22.0550   -6.8230 O.2     1  UNL1       -0.2730
     12  N         16.6170  -23.2570   -7.2820 N.am    1  UNL1       -0.3340
     13  C         16.2190  -23.5840   -8.6500 C.3     1  UNL1        0.1320
     14  C         15.9840  -22.3390   -9.5090 C.3     1  UNL1        0.0580
     15  C         17.2050  -21.9880  -10.3220 C.2     1  UNL1       -0.0570
     16  C         17.3640  -20.7010  -10.8510 C.2     1  UNL1        0.0070
     17  C         18.4860  -20.3880  -11.6220 C.2     1  UNL1        0.0010
     18  C         19.4530  -21.3610  -11.8750 C.2     1  UNL1        0.0000
     19  C         19.2990  -22.6450  -11.3580 C.2     1  UNL1        0.0010
     20  C         18.1800  -22.9600  -10.5860 C.2     1  UNL1        0.0070
     21  C         22.8190  -23.1840   -9.3550 C.2     1  UNL1        0.2520
     22  O         23.8180  -23.7680   -8.9500 O.2     1  UNL1       -0.2680
     23  N         22.8000  -22.3930  -10.4870 N.am    1  UNL1       -0.3520
     24  H         21.9020  -22.1630  -10.8920 H       1  UNL1        0.1630
     25  C         23.9700  -22.2730  -11.3580 C.3     1  UNL1        0.0840
     26  C         23.5100  -21.9260  -12.7800 C.3     1  UNL1        0.0250
     27  C         24.6270  -21.7050  -13.7990 C.3     1  UNL1        0.0020
     28  C         25.3640  -20.3860  -13.5930 C.3     1  UNL1        0.0000
     29  C         26.5240  -20.4450  -12.6050 C.3     1  UNL1        0.0000
     30  C         26.3380  -21.3170  -11.3680 C.3     1  UNL1        0.0020
     31  C         24.9470  -21.2630  -10.7410 C.3     1  UNL1        0.0250
@<TRIPOS>BOND
     1    27    28    1
     2    27    26    1
     3    28    29    1
     4    26    25    1
     5    29    30    1
     6    18    17    2
     7    18    19    1
     8    17    16    1
     9    30    31    1
    10    25    31    1
    11    25    23    1
    12    19    20    2
    13    24    23    1
    14    16    15    2
    15    20    15    1
    16    23    21   am
    17    15    14    1
    18    14    13    1
    19    21    22    2
    20    21     1    1
    21     6     1    2
    22     6     5    1
    23    13    12    1
    24     1     2    1
    25     5     4    2
    26     2     3    2
    27     4     3    1
    28     4     7    1
    29    12     7    1
    30    12    10   am
    31    11    10    2
    32     7     8    1
    33    10     9    1
    34     9     8    1
