@<TRIPOS>MOLECULE
46055_out_ligand_01.pdbqt
 42 46 0 0 0
SMALL
GASTEIGER

@<TRIPOS>ATOM
      1  N         21.7200  -22.2920  -10.3450 N.am    1  UNL1       -0.3230
      2  C         21.7690  -23.1570   -9.2670 C.2     1  UNL1        0.2560
      3  O         22.6580  -23.9610   -9.0100 O.2     1  UNL1       -0.2670
      4  H         21.0120  -21.5710  -10.3210 H       1  UNL1        0.1690
      5  C         20.6240  -23.0460   -8.3180 C.2     1  UNL1        0.0320
      6  C         19.7790  -24.1300   -8.0530 C.2     1  UNL1        0.0170
      7  C         18.7290  -23.9920   -7.1400 C.2     1  UNL1        0.0110
      8  C         18.5130  -22.7760   -6.4680 C.2     1  UNL1       -0.0250
      9  C         19.3740  -21.6980   -6.7390 C.2     1  UNL1        0.0110
     10  C         20.4250  -21.8340   -7.6490 C.2     1  UNL1        0.0170
     11  C         17.3710  -22.6500   -5.4790 C.3     1  UNL1        0.1830
     12  S         17.6660  -23.6470   -4.0000 S.3     1  UNL1       -0.1300
     13  C         15.9910  -24.3120   -3.9610 C.3     1  UNL1        0.1790
     14  C         15.2700  -23.7960   -5.1830 C.2     1  UNL1        0.2300
     15  O         14.0860  -24.0300   -5.4020 O.2     1  UNL1       -0.2730
     16  N         16.0820  -23.0390   -6.0110 N.am    1  UNL1       -0.3340
     17  C         15.5040  -22.3290   -7.1520 C.3     1  UNL1        0.1320
     18  C         15.5150  -23.1660   -8.4370 C.3     1  UNL1        0.0580
     19  C         16.4090  -22.5560   -9.4870 C.2     1  UNL1       -0.0570
     20  C         17.3820  -23.3330  -10.1310 C.2     1  UNL1        0.0070
     21  C         18.1900  -22.7710  -11.1220 C.2     1  UNL1        0.0010
     22  C         18.0310  -21.4320  -11.4780 C.2     1  UNL1        0.0000
     23  C         17.0630  -20.6550  -10.8460 C.2     1  UNL1        0.0010
     24  C         16.2530  -21.2130   -9.8560 C.2     1  UNL1        0.0070
     25  C         22.6030  -22.2500  -11.4450 C.2     1  UNL1        0.0350
     26  C         23.8260  -22.9250  -11.4860 C.2     1  UNL1        0.0310
     27  C         24.6360  -22.8630  -12.6250 C.2     1  UNL1        0.0270
     28  C         24.2230  -22.1150  -13.7280 C.2     1  UNL1        0.0800
     29  C         23.0010  -21.4410  -13.7070 C.2     1  UNL1        0.0270
     30  C         22.1970  -21.5100  -12.5650 C.2     1  UNL1        0.0310
     31  S         25.2230  -22.0820  -15.1940 S.O2    1  UNL1        0.2630
     32  O         25.8910  -23.3640  -15.2940 O.2     1  UNL1       -0.2000
     33  O         24.4240  -21.5800  -16.2910 O.2     1  UNL1       -0.2000
     34  N         26.4240  -20.9620  -14.8020 N.pl3   1  UNL1       -0.2810
     35  H         27.2550  -21.4280  -14.4400 H       1  UNL1        0.1790
     36  C         26.6210  -19.8590  -15.6760 C.2     1  UNL1        0.0430
     37  C         26.7320  -20.0890  -17.0450 C.2     1  UNL1        0.0300
     38  C         26.9510  -19.0150  -17.9080 C.2     1  UNL1        0.0030
     39  C         27.0650  -17.7190  -17.4000 C.2     1  UNL1        0.0070
     40  C         26.9460  -17.4830  -16.0250 C.2     1  UNL1       -0.0600
     41  C         27.1210  -16.1010  -15.4700 C.3     1  UNL1        0.0480
     42  C         26.7300  -18.5670  -15.1630 C.2     1  UNL1        0.0370
@<TRIPOS>BOND
     1    38    39    2
     2    38    37    1
     3    39    40    1
     4    37    36    2
     5    33    31    2
     6    40    41    1
     7    40    42    2
     8    36    42    1
     9    36    34    1
    10    32    31    2
    11    31    34    1
    12    31    28    1
    13    34    35    1
    14    28    29    2
    15    28    27    1
    16    29    30    1
    17    27    26    2
    18    30    25    2
    19    26    25    1
    20    22    21    2
    21    22    23    1
    22    25     1    1
    23    21    20    1
    24    23    24    2
    25     1     4    1
    26     1     2   am
    27    20    19    2
    28    24    19    1
    29    19    18    1
    30     2     3    2
    31     2     5    1
    32    18    17    1
    33     5     6    2
    34     5    10    1
    35     6     7    1
    36    10     9    2
    37    17    16    1
    38     7     8    2
    39     9     8    1
    40     8    11    1
    41    16    11    1
    42    16    14   am
    43    11    12    1
    44    15    14    2
    45    14    13    1
    46    12    13    1
