@<TRIPOS>MOLECULE
46057_out_ligand_01.pdbqt
 37 41 0 0 0
SMALL
GASTEIGER

@<TRIPOS>ATOM
      1  C         21.3460  -22.8770  -10.5810 C.2     1  UNL1        0.0340
      2  C         20.9970  -23.8400   -9.6220 C.2     1  UNL1        0.0310
      3  C         19.6940  -23.9130   -9.1290 C.2     1  UNL1        0.0270
      4  C         18.7330  -23.0110   -9.5950 C.2     1  UNL1        0.0750
      5  C         19.0480  -22.0900  -10.5960 C.2     1  UNL1        0.0270
      6  C         20.3590  -22.0200  -11.0800 C.2     1  UNL1        0.0310
      7  N         22.7030  -22.8030  -10.9430 N.am    1  UNL1       -0.3260
      8  C         23.6930  -22.0230  -10.3690 C.2     1  UNL1        0.2400
      9  O         23.5130  -21.0700   -9.6140 O.2     1  UNL1       -0.2710
     10  H         23.0110  -23.4390  -11.6720 H       1  UNL1        0.1690
     11  C         25.1030  -22.3760  -10.8520 C.3     1  UNL1        0.2350
     12  N         25.5370  -21.5400  -11.9530 N.am    1  UNL1       -0.3040
     13  C         26.1040  -20.2770  -11.8390 C.2     1  UNL1        0.2590
     14  O         26.3260  -19.6370  -10.8310 O.2     1  UNL1       -0.2670
     15  C         26.3140  -19.8120  -13.2270 C.2     1  UNL1        0.0450
     16  C         26.8420  -18.6490  -13.7490 C.2     1  UNL1        0.0180
     17  C         25.8230  -20.7900  -14.0510 C.2     1  UNL1        0.0170
     18  C         26.8590  -18.5160  -15.1490 C.2     1  UNL1        0.0020
     19  C         26.3430  -19.5300  -15.9920 C.2     1  UNL1        0.0120
     20  C         25.8000  -20.7120  -15.4390 C.2     1  UNL1       -0.0230
     21  C         25.2320  -21.8210  -16.0970 C.2     1  UNL1        0.0120
     22  C         24.7290  -22.9120  -15.3500 C.2     1  UNL1        0.0030
     23  C         24.7820  -22.9280  -13.9430 C.2     1  UNL1        0.0310
     24  C         25.3460  -21.8390  -13.3110 C.2     1  UNL1        0.0500
     25  S         17.1040  -22.9990   -8.8800 S.O2    1  UNL1        0.2450
     26  O         16.8350  -21.6550   -8.4120 O.2     1  UNL1       -0.2060
     27  O         16.2100  -23.6740   -9.7980 O.2     1  UNL1       -0.2060
     28  N         17.2980  -23.9610   -7.4910 N.pl3   1  UNL1       -0.1800
     29  H         17.0040  -24.9220   -7.6850 H       1  UNL1        0.1460
     30  C         16.8710  -23.4220   -6.2290 C.2     1  UNL1        0.0460
     31  C         15.6100  -23.7690   -5.7330 C.2     1  UNL1        0.0260
     32  C         15.2040  -23.3270   -4.4710 C.2     1  UNL1        0.0040
     33  C         16.0550  -22.5360   -3.7000 C.2     1  UNL1        0.0260
     34  C         17.3100  -22.1700   -4.1940 C.2     1  UNL1        0.0570
     35 CL         18.3060  -21.1820   -3.1800 Cl      1  UNL1       -0.0820
     36  C         17.7220  -22.6020   -5.4650 C.2     1  UNL1        0.0770
     37 CL         19.2620  -22.1450   -6.1190 Cl      1  UNL1       -0.0810
@<TRIPOS>BOND
     1    21    20    1
     2    21    22    2
     3    19    20    2
     4    19    18    1
     5    20    17    1
     6    22    23    1
     7    18    16    2
     8    17    24    1
     9    17    15    2
    10    23    24    2
    11    16    15    1
    12    24    12    1
    13    15    13    1
    14    12    13   am
    15    12    11    1
    16    13    14    2
    17    10     7    1
    18     6     5    1
    19     6     1    2
    20     7     1    1
    21     7     8   am
    22    11     8    1
    23     5     4    2
    24     1     2    1
    25     8     9    2
    26    27    25    2
    27     2     3    2
    28     4     3    1
    29     4    25    1
    30    25    26    2
    31    25    28    1
    32    29    28    1
    33    28    30    1
    34    30    31    2
    35    30    36    1
    36    37    36    1
    37    31    32    1
    38    36    34    2
    39    32    33    2
    40    34    33    1
    41    34    35    1
