@<TRIPOS>MOLECULE
46058_out_ligand_01.pdbqt
 33 35 0 0 0
SMALL
GASTEIGER

@<TRIPOS>ATOM
      1  C         22.4890  -23.3710   -8.8420 C.2     1  UNL1        0.0340
      2  C         22.0100  -22.2710   -8.1260 C.2     1  UNL1        0.0310
      3  C         20.7090  -22.2680   -7.6110 C.2     1  UNL1        0.0270
      4  C         19.8760  -23.3660   -7.8300 C.2     1  UNL1        0.0800
      5  C         20.3510  -24.4920   -8.5050 C.2     1  UNL1        0.0270
      6  C         21.6540  -24.4880   -9.0120 C.2     1  UNL1        0.0310
      7  S         18.1960  -23.3340   -7.2470 S.O2    1  UNL1        0.2630
      8  O         17.9490  -22.0410   -6.6440 O.2     1  UNL1       -0.2000
      9  O         17.9670  -24.5630   -6.5160 O.2     1  UNL1       -0.2000
     10  N         17.3050  -23.4670   -8.6830 N.pl3   1  UNL1       -0.2810
     11  H         17.0990  -24.4400   -8.9090 H       1  UNL1        0.1790
     12  C         17.5990  -22.5770   -9.7530 C.2     1  UNL1        0.0430
     13  C         16.6170  -21.7190  -10.2450 C.2     1  UNL1        0.0300
     14  C         16.9290  -20.8070  -11.2520 C.2     1  UNL1        0.0030
     15  C         18.2290  -20.7450  -11.7570 C.2     1  UNL1        0.0160
     16  C         19.2330  -21.5890  -11.2550 C.2     1  UNL1        0.0500
     17  C         18.9010  -22.5220  -10.2590 C.2     1  UNL1        0.0460
     18  C         20.6420  -21.5060  -11.7900 C.3     1  UNL1        0.4170
     19  F         20.7000  -21.0400  -13.0690 F       1  UNL1       -0.1660
     20  F         21.2810  -22.7100  -11.8010 F       1  UNL1       -0.1660
     21  F         21.4250  -20.6710  -11.0530 F       1  UNL1       -0.1660
     22  N         23.7680  -23.4320   -9.4330 N.am    1  UNL1       -0.3270
     23  C         24.4700  -22.3970  -10.0260 C.2     1  UNL1        0.2220
     24  O         24.1340  -21.2180  -10.0590 O.2     1  UNL1       -0.2730
     25  H         24.1870  -24.3520   -9.4850 H       1  UNL1        0.1690
     26  C         25.7940  -22.8650  -10.6140 C.3     1  UNL1        0.1080
     27  C         25.6600  -23.3080  -12.0700 C.3     1  UNL1        0.0470
     28  C         25.3550  -22.1460  -12.9870 C.2     1  UNL1       -0.0580
     29  C         24.1130  -22.0540  -13.6330 C.2     1  UNL1        0.0070
     30  C         23.8300  -20.9720  -14.4740 C.2     1  UNL1        0.0010
     31  C         24.7810  -19.9730  -14.6700 C.2     1  UNL1        0.0000
     32  C         26.0140  -20.0490  -14.0230 C.2     1  UNL1        0.0010
     33  C         26.3000  -21.1310  -13.1870 C.2     1  UNL1        0.0070
@<TRIPOS>BOND
     1    31    30    2
     2    31    32    1
     3    30    29    1
     4    32    33    2
     5    29    28    2
     6    33    28    1
     7    19    18    1
     8    28    27    1
     9    27    26    1
    10    20    18    1
    11    18    16    1
    12    18    21    1
    13    15    16    2
    14    15    14    1
    15    16    17    1
    16    14    13    2
    17    26    23    1
    18    17    12    2
    19    13    12    1
    20    24    23    2
    21    23    22   am
    22    12    10    1
    23    25    22    1
    24    22     1    1
    25     6     1    2
    26     6     5    1
    27    11    10    1
    28     1     2    1
    29    10     7    1
    30     5     4    2
    31     2     3    2
    32     4     3    1
    33     4     7    1
    34     7     8    2
    35     7     9    2
