@<TRIPOS>MOLECULE
46056_out_ligand_01.pdbqt
 37 41 0 0 0
SMALL
GASTEIGER

@<TRIPOS>ATOM
      1  C         18.6650  -22.7070   -9.7020 C.2     1  UNL1        0.0750
      2  C         19.4880  -23.5460   -8.9500 C.2     1  UNL1        0.0270
      3  C         20.8480  -23.6430   -9.2610 C.2     1  UNL1        0.0310
      4  C         21.3870  -22.9190  -10.3270 C.2     1  UNL1        0.0340
      5  C         20.5430  -22.0970  -11.0880 C.2     1  UNL1        0.0310
      6  C         19.1830  -21.9870  -10.7790 C.2     1  UNL1        0.0270
      7  N         22.7440  -22.9610  -10.6990 N.am    1  UNL1       -0.3260
      8  C         23.7540  -22.0880  -10.3420 C.2     1  UNL1        0.2400
      9  O         23.6420  -21.1280   -9.5820 O.2     1  UNL1       -0.2710
     10  H         23.0180  -23.7100  -11.3250 H       1  UNL1        0.1690
     11  C         25.1270  -22.4460  -10.9250 C.3     1  UNL1        0.2350
     12  N         25.5380  -21.6460  -12.0600 N.am    1  UNL1       -0.3040
     13  C         26.0570  -20.3580  -11.9900 C.2     1  UNL1        0.2590
     14  O         26.3190  -19.6920  -11.0080 O.2     1  UNL1       -0.2670
     15  C         26.2700  -19.9470  -13.3950 C.2     1  UNL1        0.0450
     16  C         26.7420  -18.7790  -13.9580 C.2     1  UNL1        0.0180
     17  C         25.8890  -21.0020  -14.1820 C.2     1  UNL1        0.0170
     18  C         26.8200  -18.7220  -15.3600 C.2     1  UNL1        0.0020
     19  C         26.4300  -19.8210  -16.1640 C.2     1  UNL1        0.0120
     20  C         25.9470  -21.0090  -15.5690 C.2     1  UNL1       -0.0230
     21  C         25.5070  -22.1980  -16.1860 C.2     1  UNL1        0.0120
     22  C         25.0440  -23.2790  -15.3990 C.2     1  UNL1        0.0030
     23  C         25.0030  -23.2040  -13.9940 C.2     1  UNL1        0.0310
     24  C         25.4380  -22.0350  -13.4050 C.2     1  UNL1        0.0500
     25  S         16.9350  -22.5840   -9.3150 S.O2    1  UNL1        0.2450
     26  O         16.3060  -21.8180  -10.3670 O.2     1  UNL1       -0.2060
     27  O         16.4710  -23.9050   -8.9400 O.2     1  UNL1       -0.2060
     28  N         17.0110  -21.6630   -7.8800 N.pl3   1  UNL1       -0.1810
     29  H         17.9880  -21.3860   -7.7600 H       1  UNL1        0.1460
     30  C         16.5530  -22.3700   -6.7190 C.2     1  UNL1        0.0230
     31  C         15.1900  -22.4950   -6.4630 C.2     1  UNL1        0.0250
     32  C         14.7640  -23.1500   -5.3070 C.2     1  UNL1        0.0090
     33  C         15.6910  -23.6760   -4.3940 C.2     1  UNL1       -0.0560
     34  C         15.1900  -24.3650   -3.1530 C.3     1  UNL1        0.0490
     35  C         17.0710  -23.5210   -4.6420 C.2     1  UNL1       -0.0540
     36  C         17.4880  -22.8610   -5.8100 C.2     1  UNL1        0.0310
     37  C         18.1060  -24.0600   -3.6940 C.3     1  UNL1        0.0490
@<TRIPOS>BOND
     1    21    20    1
     2    21    22    2
     3    19    20    2
     4    19    18    1
     5    20    17    1
     6    22    23    1
     7    18    16    2
     8    17    24    1
     9    17    15    2
    10    23    24    2
    11    16    15    1
    12    24    12    1
    13    15    13    1
    14    12    13   am
    15    12    11    1
    16    13    14    2
    17    10     7    1
    18     5     6    1
    19     5     4    2
    20    11     8    1
    21     6     1    2
    22     7     8   am
    23     7     4    1
    24    26    25    2
    25     8     9    2
    26     4     3    1
    27     1    25    1
    28     1     2    1
    29    25    27    2
    30    25    28    1
    31     3     2    2
    32    28    29    1
    33    28    30    1
    34    30    31    2
    35    30    36    1
    36    31    32    1
    37    36    35    2
    38    32    33    2
    39    35    33    1
    40    35    37    1
    41    33    34    1
