@<TRIPOS>MOLECULE
46065_out_ligand_01.pdbqt
 38 42 0 0 0
SMALL
GASTEIGER

@<TRIPOS>ATOM
      1  C         21.2050  -22.6690  -10.6860 C.2     1  UNL1        0.0340
      2  C         20.8710  -23.6580   -9.7470 C.2     1  UNL1        0.0310
      3  C         19.5620  -23.7830   -9.2760 C.2     1  UNL1        0.0270
      4  C         18.5820  -22.9030   -9.7370 C.2     1  UNL1        0.0800
      5  C         18.8900  -21.9420  -10.7020 C.2     1  UNL1        0.0270
      6  C         20.2030  -21.8230  -11.1670 C.2     1  UNL1        0.0310
      7  N         22.5590  -22.5850  -11.0610 N.am    1  UNL1       -0.3260
      8  C         23.5700  -21.8680  -10.4380 C.2     1  UNL1        0.2410
      9  O         23.4220  -21.0570   -9.5290 O.2     1  UNL1       -0.2710
     10  H         22.8180  -23.1300  -11.8830 H       1  UNL1        0.1690
     11  C         24.9520  -22.1290  -11.0270 C.3     1  UNL1        0.2480
     12  N         25.2380  -21.2490  -12.1600 N.am    1  UNL1       -0.2280
     13  C         26.0280  -20.0800  -12.1230 C.2     1  UNL1        0.2690
     14  O         26.4850  -19.5650  -11.1230 O.2     1  UNL1       -0.2660
     15  C         26.2160  -19.5840  -13.5010 C.2     1  UNL1        0.0560
     16  C         26.9270  -18.4550  -13.8780 C.2     1  UNL1        0.0180
     17  C         25.6050  -20.3860  -14.4570 C.2     1  UNL1        0.0950
     18  C         26.9990  -18.1510  -15.2430 C.2     1  UNL1        0.0010
     19  C         26.3700  -18.9720  -16.2000 C.2     1  UNL1        0.0020
     20  C         25.6600  -20.1100  -15.8100 C.2     1  UNL1        0.0260
     21  S         24.8110  -21.7350  -13.7030 S.O2    1  UNL1        0.2690
     22  O         25.5500  -22.9450  -13.9950 O.2     1  UNL1       -0.2000
     23  O         23.3840  -21.6110  -13.8630 O.2     1  UNL1       -0.2000
     24  S         16.9270  -23.0170   -9.0970 S.O2    1  UNL1        0.2630
     25  O         16.1390  -23.7530  -10.0650 O.2     1  UNL1       -0.2000
     26  O         16.5230  -21.7020   -8.6480 O.2     1  UNL1       -0.2000
     27  N         17.0930  -24.0450   -7.7620 N.pl3   1  UNL1       -0.2800
     28  H         17.9030  -24.6540   -7.8390 H       1  UNL1        0.1790
     29  C         16.7330  -23.5570   -6.4660 C.2     1  UNL1        0.0530
     30  C         15.5240  -23.9960   -5.9180 C.2     1  UNL1        0.0310
     31  C         15.0930  -23.5100   -4.6890 C.2     1  UNL1        0.0030
     32  C         15.8680  -22.5730   -4.0070 C.2     1  UNL1        0.0120
     33  C         17.0820  -22.1110   -4.5380 C.2     1  UNL1       -0.0240
     34  C         17.8380  -21.1530   -3.8420 C.2     1  UNL1        0.0120
     35  C         17.5410  -22.6050   -5.7850 C.2     1  UNL1        0.0010
     36  C         19.0400  -20.6720   -4.3580 C.2     1  UNL1        0.0010
     37  C         19.5070  -21.1480   -5.5760 C.2     1  UNL1        0.0010
     38  C         18.7700  -22.1030   -6.2790 C.2     1  UNL1        0.0140
@<TRIPOS>BOND
     1    19    20    2
     2    19    18    1
     3    20    17    1
     4    18    16    2
     5    17    21    1
     6    17    15    2
     7    22    21    2
     8    16    15    1
     9    23    21    2
    10    21    12    1
    11    15    13    1
    12    12    13   am
    13    12    11    1
    14    13    14    2
    15    10     7    1
    16     6     5    1
    17     6     1    2
    18     7     1    1
    19     7     8   am
    20    11     8    1
    21     5     4    2
    22     1     2    1
    23     8     9    2
    24    25    24    2
    25     2     3    2
    26     4     3    1
    27     4    24    1
    28    24    26    2
    29    24    27    1
    30    28    27    1
    31    27    29    1
    32    29    30    2
    33    29    35    1
    34    38    35    1
    35    38    37    2
    36    30    31    1
    37    35    33    2
    38    37    36    1
    39    31    32    2
    40    33    32    1
    41    33    34    1
    42    36    34    2
