@<TRIPOS>MOLECULE
46076_out_ligand_01.pdbqt
 31 35 0 0 0
SMALL
GASTEIGER

@<TRIPOS>ATOM
      1  N         19.2370  -22.5090   -8.9440 N.am    1  UNL1       -0.2440
      2  C         18.9210  -22.0820  -10.2210 C.2     1  UNL1        0.2660
      3  O         17.8560  -21.8570  -10.7670 O.2     1  UNL1       -0.2670
      4  C         20.1750  -21.9050  -10.9440 C.2     1  UNL1        0.0480
      5  C         20.4080  -21.5040  -12.2480 C.2     1  UNL1        0.0210
      6  C         21.7400  -21.4320  -12.6690 C.2     1  UNL1        0.0380
      7  C         22.7920  -21.7430  -11.7800 C.2     1  UNL1        0.0770
      8  C         22.5280  -22.1650  -10.4740 C.2     1  UNL1        0.0550
      9  C         21.2020  -22.2270  -10.0870 C.2     1  UNL1        0.0510
     10  C         20.6100  -22.6110   -8.8110 C.2     1  UNL1        0.2660
     11  O         21.3170  -22.9400   -7.8760 O.2     1  UNL1       -0.2670
     12  C         18.2880  -22.8000   -7.9100 C.2     1  UNL1        0.0470
     13  C         18.4060  -22.2300   -6.6260 C.2     1  UNL1        0.0480
     14  C         17.4580  -22.5480   -5.6640 C.2     1  UNL1        0.0500
     15  C         17.3360  -22.1090   -4.2740 C.2     1  UNL1        0.2590
     16  C         16.4050  -23.4020   -5.9200 C.2     1  UNL1        0.0480
     17  N         16.2250  -22.7190   -3.7750 N.am    1  UNL1       -0.2890
     18  O         18.0900  -21.3490   -3.7030 O.2     1  UNL1       -0.2670
     19  C         15.6120  -23.5090   -4.6980 C.2     1  UNL1        0.2590
     20  H         15.8960  -22.5980   -2.8310 H       1  UNL1        0.1720
     21  O         14.6090  -24.1800   -4.5650 O.2     1  UNL1       -0.2670
     22  C         16.2420  -23.9860   -7.1530 C.2     1  UNL1        0.0200
     23  C         17.1910  -23.6770   -8.1420 C.2     1  UNL1        0.0310
     24  O         24.1140  -21.7230  -12.1660 O.2     1  UNL1       -0.3110
     25  C         24.3780  -21.8380  -13.5110 C.2     1  UNL1        0.0760
     26  C         24.3400  -20.7430  -14.3790 C.2     1  UNL1        0.0380
     27  C         24.6530  -20.9170  -15.7280 C.2     1  UNL1        0.0220
     28  C         25.0160  -22.1790  -16.1970 C.2     1  UNL1        0.0110
     29 BR         25.4390  -22.4140  -18.0240 Br      1  UNL1       -0.0510
     30  C         25.0790  -23.2690  -15.3280 C.2     1  UNL1        0.0220
     31  C         24.7660  -23.0950  -13.9790 C.2     1  UNL1        0.0380
@<TRIPOS>BOND
     1    29    28    1
     2    28    27    2
     3    28    30    1
     4    27    26    1
     5    30    31    2
     6    26    25    2
     7    31    25    1
     8    25    24    1
     9     6     5    1
    10     6     7    2
    11     5     4    2
    12    24     7    1
    13     7     8    1
    14     4     2    1
    15     4     9    1
    16     3     2    2
    17     8     9    2
    18     2     1   am
    19     9    10    1
    20     1    10   am
    21     1    12    1
    22    10    11    2
    23    23    12    2
    24    23    22    1
    25    12    13    1
    26    22    16    2
    27    13    14    2
    28    16    14    1
    29    16    19    1
    30    14    15    1
    31    19    21    2
    32    19    17   am
    33    15    17   am
    34    15    18    2
    35    17    20    1
