@<TRIPOS>MOLECULE
46081_out_ligand_01.pdbqt
 42 45 0 0 0
SMALL
GASTEIGER

@<TRIPOS>ATOM
      1  N         21.0380  -22.7530  -11.2850 N.am    1  UNL1       -0.3230
      2  C         22.2780  -22.2090  -11.0040 C.2     1  UNL1        0.2560
      3  O         22.6840  -21.8130   -9.9160 O.2     1  UNL1       -0.2670
      4  H         20.9120  -23.1600  -12.2040 H       1  UNL1        0.1690
      5  C         19.9700  -22.9420  -10.3790 C.2     1  UNL1        0.0350
      6  C         18.8280  -22.1410  -10.5490 C.2     1  UNL1        0.0310
      7  C         17.7110  -22.2930   -9.7200 C.2     1  UNL1        0.0270
      8  C         17.7400  -23.2470   -8.7020 C.2     1  UNL1        0.0750
      9  C         18.8800  -24.0300   -8.5010 C.2     1  UNL1        0.0270
     10  C         19.9900  -23.8780   -9.3400 C.2     1  UNL1        0.0310
     11  S         16.3250  -23.5090   -7.6540 S.O2    1  UNL1        0.2450
     12  O         15.7640  -22.1990   -7.3900 O.2     1  UNL1       -0.2060
     13  O         15.5430  -24.5790   -8.2380 O.2     1  UNL1       -0.2060
     14  N         17.0270  -24.0230   -6.1870 N.pl3   1  UNL1       -0.1810
     15  H         17.7790  -24.6720   -6.4310 H       1  UNL1        0.1460
     16  C         17.4620  -22.9840   -5.3010 C.2     1  UNL1        0.0290
     17  C         16.9730  -22.8980   -3.9870 C.2     1  UNL1       -0.0400
     18  C         17.4720  -21.8860   -3.1530 C.2     1  UNL1        0.0090
     19  C         15.9750  -23.8760   -3.4320 C.3     1  UNL1        0.0500
     20  C         18.4350  -20.9850   -3.6150 C.2     1  UNL1        0.0070
     21  C         18.9280  -21.0830   -4.9200 C.2     1  UNL1       -0.0600
     22  C         20.0150  -20.1610   -5.3900 C.3     1  UNL1        0.0480
     23  C         18.4480  -22.1000   -5.7540 C.2     1  UNL1        0.0310
     24  C         23.2220  -22.1570  -12.1530 C.2     1  UNL1        0.0320
     25  C         22.8460  -21.4270  -13.2860 C.2     1  UNL1        0.0190
     26  C         23.6910  -21.3720  -14.3990 C.2     1  UNL1        0.0310
     27  C         24.9170  -22.0410  -14.3840 C.2     1  UNL1        0.0450
     28  C         25.2750  -22.7970  -13.2630 C.2     1  UNL1        0.0310
     29  C         24.4350  -22.8530  -12.1450 C.2     1  UNL1        0.0190
     30  N         25.7770  -22.0500  -15.5340 N.pl3   1  UNL1       -0.2720
     31  C         27.0550  -21.2940  -15.4810 C.3     1  UNL1        0.1800
     32  C         26.9100  -19.7890  -15.6450 C.2     1  UNL1       -0.0330
     33  C         26.8990  -19.2160  -16.9320 C.2     1  UNL1        0.0090
     34  C         26.8270  -17.8330  -17.1080 C.2     1  UNL1        0.0010
     35  C         26.7780  -16.9930  -16.0010 C.2     1  UNL1        0.0010
     36  C         26.8020  -17.5370  -14.7180 C.2     1  UNL1        0.0070
     37  C         26.8760  -18.9270  -14.5230 C.2     1  UNL1       -0.0540
     38  C         26.8880  -19.4520  -13.1120 C.3     1  UNL1        0.0490
     39  S         25.0290  -22.1980  -17.0540 S.O2    1  UNL1        0.2290
     40  C         26.4220  -22.3860  -18.1530 C.3     1  UNL1        0.1860
     41  O         24.3710  -20.9530  -17.3860 O.2     1  UNL1       -0.2060
     42  O         24.3010  -23.4470  -17.0910 O.2     1  UNL1       -0.2060
@<TRIPOS>BOND
     1    40    39    1
     2    41    39    2
     3    34    33    1
     4    34    35    2
     5    42    39    2
     6    39    30    1
     7    33    32    2
     8    35    36    1
     9    32    31    1
    10    32    37    1
    11    30    31    1
    12    30    27    1
    13    36    37    2
    14    37    38    1
    15    26    27    2
    16    26    25    1
    17    27    28    1
    18    25    24    2
    19    28    29    2
    20     4     1    1
    21    24    29    1
    22    24     2    1
    23     1     2   am
    24     1     5    1
    25     2     3    2
    26     6     5    2
    27     6     7    1
    28     5    10    1
    29     7     8    2
    30    10     9    2
    31     8     9    1
    32     8    11    1
    33    13    11    2
    34    11    12    2
    35    11    14    1
    36    15    14    1
    37    14    16    1
    38    23    16    2
    39    23    21    1
    40    22    21    1
    41    16    17    1
    42    21    20    2
    43    17    19    1
    44    17    18    2
    45    20    18    1
