@<TRIPOS>MOLECULE
46096_out_ligand_01.pdbqt
 32 36 0 0 0
SMALL
GASTEIGER

@<TRIPOS>ATOM
      1  C         22.9890  -22.3400  -12.3140 C.2     1  UNL1        0.0770
      2  C         21.9390  -21.5990  -12.9010 C.2     1  UNL1        0.0380
      3  C         20.7260  -21.4220  -12.2250 C.2     1  UNL1        0.0210
      4  C         20.6020  -22.0120  -10.9800 C.2     1  UNL1        0.0480
      5  C         21.6190  -22.7520  -10.4210 C.2     1  UNL1        0.0510
      6  C         22.8280  -22.9420  -11.0630 C.2     1  UNL1        0.0550
      7  C         21.1530  -23.2330   -9.1250 C.2     1  UNL1        0.2660
      8  O         21.8790  -23.9070   -8.4160 O.2     1  UNL1       -0.2670
      9  N         19.8640  -22.7680   -8.9490 N.am    1  UNL1       -0.2440
     10  C         19.4800  -22.0210  -10.0470 C.2     1  UNL1        0.2660
     11  O         18.4430  -21.4430  -10.3190 O.2     1  UNL1       -0.2670
     12  C         19.0460  -23.0240   -7.7980 C.2     1  UNL1        0.0470
     13  C         18.2140  -24.1770   -7.7270 C.2     1  UNL1        0.0310
     14  C         17.4020  -24.4600   -6.6150 C.2     1  UNL1        0.0200
     15  C         17.4350  -23.5710   -5.5690 C.2     1  UNL1        0.0480
     16  C         18.2320  -22.4440   -5.6090 C.2     1  UNL1        0.0500
     17  C         16.7290  -23.5710   -4.2890 C.2     1  UNL1        0.2590
     18  C         19.0390  -22.1450   -6.6960 C.2     1  UNL1        0.0480
     19  C         18.0360  -21.7260   -4.3490 C.2     1  UNL1        0.2590
     20  O         18.5820  -20.6900   -4.0320 O.2     1  UNL1       -0.2670
     21  N         17.1360  -22.4530   -3.6290 N.am    1  UNL1       -0.2890
     22  H         16.8120  -22.1930   -2.7120 H       1  UNL1        0.1720
     23  O         15.9410  -24.4170   -3.9190 O.2     1  UNL1       -0.2670
     24  O         24.1880  -22.5770  -12.9510 O.2     1  UNL1       -0.3110
     25  C         24.9050  -21.4800  -13.3710 C.2     1  UNL1        0.0760
     26  C         24.8730  -21.0430  -14.6940 C.2     1  UNL1        0.0380
     27  C         25.5940  -19.9040  -15.0590 C.2     1  UNL1        0.0100
     28  C         26.3360  -19.1840  -14.1070 C.2     1  UNL1       -0.0560
     29  C         27.1040  -17.9640  -14.5420 C.3     1  UNL1        0.0490
     30  C         26.3520  -19.6210  -12.7650 C.2     1  UNL1       -0.0530
     31  C         25.6190  -20.7650  -12.4070 C.2     1  UNL1        0.0440
     32  C         27.1200  -18.8770  -11.7050 C.3     1  UNL1        0.0490
@<TRIPOS>BOND
     1    27    26    1
     2    27    28    2
     3    26    25    2
     4    29    28    1
     5    28    30    1
     6    25    24    1
     7    25    31    1
     8    24     1    1
     9     2     1    2
    10     2     3    1
    11    30    31    2
    12    30    32    1
    13     1     6    1
    14     3     4    2
    15     6     5    2
    16     4     5    1
    17     4    10    1
    18     5     7    1
    19    11    10    2
    20    10     9   am
    21     7     9   am
    22     7     8    2
    23     9    12    1
    24    12    13    2
    25    12    18    1
    26    13    14    1
    27    18    16    2
    28    14    15    2
    29    16    15    1
    30    16    19    1
    31    15    17    1
    32    19    20    2
    33    19    21   am
    34    17    23    2
    35    17    21   am
    36    21    22    1
