@<TRIPOS>MOLECULE
46099_out_ligand_01.pdbqt
 32 34 0 0 0
SMALL
GASTEIGER

@<TRIPOS>ATOM
      1  C         21.8690  -23.1720   -8.8990 C.2     1  UNL1        0.0800
      2  C         21.2780  -22.2880   -7.9930 C.2     1  UNL1        0.0270
      3  C         20.0730  -22.6380   -7.3830 C.2     1  UNL1        0.0260
      4  C         19.4570  -23.8500   -7.7000 C.2     1  UNL1        0.0220
      5  C         20.0440  -24.7250   -8.6190 C.2     1  UNL1        0.0260
      6  C         21.2500  -24.3830   -9.2290 C.2     1  UNL1        0.0270
      7  S         23.4440  -22.7640   -9.6120 S.O2    1  UNL1        0.2630
      8  O         23.5930  -21.3240   -9.6150 O.2     1  UNL1       -0.2000
      9  O         24.4320  -23.6100   -8.9750 O.2     1  UNL1       -0.2000
     10  N         23.2920  -23.3240  -11.1970 N.pl3   1  UNL1       -0.2800
     11  H         23.6590  -24.2680  -11.3020 H       1  UNL1        0.1790
     12  C         23.4940  -22.4050  -12.2660 C.2     1  UNL1        0.0490
     13  C         22.4430  -21.6340  -12.7790 C.2     1  UNL1       -0.0350
     14  C         22.6970  -20.8100  -13.8860 C.2     1  UNL1        0.0090
     15  C         21.0470  -21.7060  -12.2280 C.3     1  UNL1        0.0500
     16  C         23.9730  -20.7390  -14.4520 C.2     1  UNL1        0.0070
     17  C         25.0260  -21.4850  -13.9190 C.2     1  UNL1       -0.0600
     18  C         26.3920  -21.4440  -14.5390 C.3     1  UNL1        0.0480
     19  C         24.7740  -22.3260  -12.8290 C.2     1  UNL1        0.0370
     20  N         18.2720  -24.2380   -6.9900 N.pl3   1  UNL1       -0.1810
     21  H         18.2810  -23.8280   -6.0530 H       1  UNL1        0.1460
     22  S         16.8340  -23.6970   -7.7420 S.O2    1  UNL1        0.2470
     23  O         17.2450  -22.5920   -8.5850 O.2     1  UNL1       -0.2050
     24  O         16.0740  -24.8030   -8.2790 O.2     1  UNL1       -0.2050
     25  C         15.9310  -23.0190   -6.3770 C.2     1  UNL1        0.0980
     26  C         14.8120  -22.2190   -6.6590 C.2     1  UNL1        0.0500
     27  C         14.0660  -21.6780   -5.6140 C.2     1  UNL1        0.0350
     28 CL         12.6980  -20.6940   -5.9600 Cl      1  UNL1       -0.0840
     29  C         14.4200  -21.9280   -4.2930 C.2     1  UNL1        0.0250
     30  C         15.5300  -22.7290   -4.0140 C.2     1  UNL1        0.0270
     31  C         16.2920  -23.2820   -5.0530 C.2     1  UNL1        0.0570
     32 CL         17.6430  -24.2440   -4.5850 Cl      1  UNL1       -0.0830
@<TRIPOS>BOND
     1    18    17    1
     2    16    17    2
     3    16    14    1
     4    17    19    1
     5    14    13    2
     6    19    12    2
     7    13    12    1
     8    13    15    1
     9    12    10    1
    10    11    10    1
    11    10     7    1
    12     8     7    2
    13     7     9    2
    14     7     1    1
    15     6     1    2
    16     6     5    1
    17     1     2    1
    18     5     4    2
    19    23    22    2
    20    24    22    2
    21     2     3    2
    22    22    20    1
    23    22    25    1
    24     4     3    1
    25     4    20    1
    26    20    21    1
    27    26    25    2
    28    26    27    1
    29    25    31    1
    30    28    27    1
    31    27    29    2
    32    31    32    1
    33    31    30    2
    34    29    30    1
