@<TRIPOS>MOLECULE
46105_out_ligand_01.pdbqt
 43 47 0 0 0
SMALL
GASTEIGER

@<TRIPOS>ATOM
      1  N         21.4510  -22.1860   -9.8660 N.am    1  UNL1       -0.3230
      2  C         21.8060  -22.0930   -8.5310 C.2     1  UNL1        0.2560
      3  O         22.9390  -21.9580   -8.0840 O.2     1  UNL1       -0.2670
      4  H         20.4650  -22.1260  -10.0830 H       1  UNL1        0.1690
      5  C         20.6670  -22.1240   -7.5690 C.2     1  UNL1        0.0320
      6  C         19.7730  -23.1980   -7.6270 C.2     1  UNL1        0.0170
      7  C         18.6800  -23.2530   -6.7590 C.2     1  UNL1        0.0110
      8  C         18.4530  -22.2270   -5.8260 C.2     1  UNL1       -0.0250
      9  C         19.3540  -21.1510   -5.7770 C.2     1  UNL1        0.0110
     10  C         20.4490  -21.0930   -6.6470 C.2     1  UNL1        0.0170
     11  C         17.2560  -22.2540   -4.8960 C.3     1  UNL1        0.1830
     12  S         17.6500  -23.0460   -3.3200 S.3     1  UNL1       -0.1300
     13  C         16.1820  -24.0940   -3.3310 C.3     1  UNL1        0.1790
     14  C         15.4390  -23.8200   -4.6170 C.2     1  UNL1        0.2300
     15  O         14.3550  -24.3310   -4.8800 O.2     1  UNL1       -0.2730
     16  N         16.1070  -22.9400   -5.4520 N.am    1  UNL1       -0.3340
     17  C         15.4640  -22.4450   -6.6680 C.3     1  UNL1        0.1320
     18  C         15.5740  -23.4310   -7.8350 C.3     1  UNL1        0.0580
     19  C         16.3330  -22.8370   -8.9940 C.2     1  UNL1       -0.0570
     20  C         16.2400  -21.4690   -9.2810 C.2     1  UNL1        0.0070
     21  C         16.9630  -20.9180  -10.3390 C.2     1  UNL1        0.0010
     22  C         17.7870  -21.7270  -11.1180 C.2     1  UNL1        0.0000
     23  C         17.8900  -23.0890  -10.8380 C.2     1  UNL1        0.0010
     24  C         17.1680  -23.6420   -9.7790 C.2     1  UNL1        0.0070
     25  C         22.3180  -22.2520  -10.9760 C.2     1  UNL1        0.0350
     26  C         23.5280  -22.9510  -10.9790 C.2     1  UNL1        0.0310
     27  C         24.3390  -22.9680  -12.1190 C.2     1  UNL1        0.0270
     28  C         23.9370  -22.2730  -13.2610 C.2     1  UNL1        0.0800
     29  C         22.7170  -21.5960  -13.2850 C.2     1  UNL1        0.0270
     30  C         21.9150  -21.5830  -12.1410 C.2     1  UNL1        0.0310
     31  S         24.9810  -22.2740  -14.7010 S.O2    1  UNL1        0.2630
     32  O         25.7240  -23.5170  -14.6970 O.2     1  UNL1       -0.2000
     33  O         24.1750  -21.8880  -15.8390 O.2     1  UNL1       -0.2000
     34  N         26.1000  -21.0550  -14.3550 N.pl3   1  UNL1       -0.2810
     35  H         26.1130  -20.8270  -13.3630 H       1  UNL1        0.1790
     36  C         26.2500  -19.9800  -15.2770 C.2     1  UNL1        0.0430
     37  C         25.9800  -20.1670  -16.6280 C.2     1  UNL1        0.0300
     38  C         26.0870  -19.0920  -17.5120 C.2     1  UNL1        0.0090
     39  C         26.4600  -17.8170  -17.0550 C.2     1  UNL1       -0.0560
     40  C         26.5660  -16.6840  -18.0400 C.3     1  UNL1        0.0490
     41  C         26.7250  -17.6270  -15.6830 C.2     1  UNL1       -0.0540
     42  C         26.6170  -18.7190  -14.8040 C.2     1  UNL1        0.0370
     43  C         27.0970  -16.2760  -15.1370 C.3     1  UNL1        0.0490
@<TRIPOS>BOND
     1    40    39    1
     2    38    39    2
     3    38    37    1
     4    39    41    1
     5    37    36    2
     6    33    31    2
     7    41    43    1
     8    41    42    2
     9    36    42    1
    10    36    34    1
    11    31    32    2
    12    31    34    1
    13    31    28    1
    14    34    35    1
    15    29    28    2
    16    29    30    1
    17    28    27    1
    18    30    25    2
    19    27    26    2
    20    22    23    2
    21    22    21    1
    22    26    25    1
    23    25     1    1
    24    23    24    1
    25    21    20    2
    26     4     1    1
    27     1     2   am
    28    24    19    2
    29    20    19    1
    30    19    18    1
    31     2     3    2
    32     2     5    1
    33    18    17    1
    34     6     5    2
    35     6     7    1
    36     5    10    1
    37     7     8    2
    38    17    16    1
    39    10     9    2
    40     8     9    1
    41     8    11    1
    42    16    11    1
    43    16    14   am
    44    11    12    1
    45    15    14    2
    46    14    13    1
    47    13    12    1
