@<TRIPOS>MOLECULE
46101_out_ligand_01.pdbqt
 26 28 0 0 0
SMALL
GASTEIGER

@<TRIPOS>ATOM
      1  C         16.3570  -22.1010   -9.0580 C.2     1  UNL1        0.0920
      2  C         17.2120  -22.5720   -9.9750 C.2     1  UNL1        0.0720
      3  N         15.7340  -22.8420   -8.0860 N.pl3   1  UNL1       -0.3660
      4  H         14.9780  -23.4420   -8.4020 H       1  UNL1        0.1650
      5  C         15.9130  -22.8030   -6.6910 C.2     1  UNL1        0.0320
      6  C         14.9630  -23.2590   -5.7700 C.2     1  UNL1        0.0290
      7  C         15.1900  -23.1660   -4.3940 C.2     1  UNL1        0.0030
      8  C         16.3690  -22.6020   -3.9110 C.2     1  UNL1        0.0100
      9  C         17.3340  -22.1230   -4.8020 C.2     1  UNL1       -0.0280
     10  C         17.0900  -22.2270   -6.1840 C.2     1  UNL1        0.0390
     11  C         18.6110  -21.4970   -4.2830 C.3     1  UNL1        0.1470
     12  C         19.3340  -20.6730   -5.3400 C.3     1  UNL1        0.0440
     13  O         18.3210  -20.6600   -3.1640 O.3     1  UNL1       -0.3910
     14  H         18.4040  -21.2120   -2.3670 H       1  UNL1        0.2100
     15  C         17.8760  -21.7520  -11.0230 C.2     1  UNL1        0.1840
     16  O         17.2140  -21.0290  -11.7580 O.2     1  UNL1       -0.2880
     17  C         19.3410  -21.8320  -11.1810 C.2     1  UNL1        0.0250
     18  C         19.9210  -21.0370  -12.1780 C.2     1  UNL1        0.0160
     19  C         21.2940  -21.0870  -12.3850 C.2     1  UNL1        0.0020
     20  C         22.0820  -21.9280  -11.5980 C.2     1  UNL1        0.0120
     21  C         21.5160  -22.7240  -10.5870 C.2     1  UNL1       -0.0250
     22  C         22.3240  -23.5630   -9.8030 C.2     1  UNL1        0.0120
     23  C         20.1180  -22.6800  -10.3560 C.2     1  UNL1       -0.0120
     24  C         21.7740  -24.3550   -8.7950 C.2     1  UNL1        0.0010
     25  C         20.4050  -24.3160   -8.5550 C.2     1  UNL1        0.0010
     26  C         19.5870  -23.4900   -9.3250 C.2     1  UNL1        0.0130
@<TRIPOS>BOND
     1    19    18    1
     2    19    20    2
     3    18    17    2
     4    16    15    2
     5    20    21    1
     6    17    15    1
     7    17    23    1
     8    15     2    1
     9    21    23    2
    10    21    22    1
    11    23    26    1
    12     2     1    2
    13    22    24    2
    14    26    25    2
    15     1     3    1
    16    24    25    1
    17     4     3    1
    18     3     5    1
    19     5    10    2
    20     5     6    1
    21    10     9    1
    22     6     7    2
    23    12    11    1
    24     9    11    1
    25     9     8    2
    26     7     8    1
    27    11    13    1
    28    13    14    1
