@<TRIPOS>MOLECULE
4612_out_ligand_01.pdbqt
 31 33 0 0 0
SMALL
GASTEIGER

@<TRIPOS>ATOM
      1  C         21.6280  -23.3920   -8.7490 C.2     1  UNL1        0.0340
      2  C         21.2080  -22.2830   -8.0080 C.2     1  UNL1        0.0310
      3  C         20.0120  -22.3240   -7.2840 C.2     1  UNL1        0.0270
      4  C         19.2310  -23.4800   -7.3060 C.2     1  UNL1        0.0740
      5  C         19.6380  -24.6000   -8.0320 C.2     1  UNL1        0.0270
      6  C         20.8370  -24.5520   -8.7480 C.2     1  UNL1        0.0310
      7  S         17.7050  -23.5110   -6.4070 S.O2    1  UNL1        0.2410
      8  O         17.1850  -24.8610   -6.4260 O.2     1  UNL1       -0.2060
      9  O         17.9060  -22.7770   -5.1800 O.2     1  UNL1       -0.2060
     10  N         16.6830  -22.6220   -7.4370 N.3     1  UNL1       -0.2150
     11  H         17.2240  -21.8210   -7.7720 H       1  UNL1        0.1390
     12  C         16.1470  -23.3870   -8.5990 C.3     1  UNL1        0.1090
     13  C         15.9470  -22.4750   -9.8120 C.3     1  UNL1        0.0540
     14  C         17.2010  -22.0010  -10.5190 C.2     1  UNL1       -0.0570
     15  C         18.2510  -22.9240  -10.6810 C.2     1  UNL1        0.0070
     16  C         19.4360  -22.5580  -11.3210 C.2     1  UNL1        0.0010
     17  C         19.5940  -21.2630  -11.8060 C.2     1  UNL1        0.0000
     18  C         18.5660  -20.3370  -11.6520 C.2     1  UNL1        0.0010
     19  C         17.3800  -20.7000  -11.0090 C.2     1  UNL1        0.0070
     20  N         22.8180  -23.4340   -9.5020 N.am    1  UNL1       -0.3270
     21  C         23.6160  -22.3690   -9.8860 C.2     1  UNL1        0.2260
     22  O         23.4050  -21.1850   -9.6210 O.2     1  UNL1       -0.2730
     23  H         23.0740  -24.3470   -9.8660 H       1  UNL1        0.1690
     24  C         24.8820  -22.7570  -10.6450 C.3     1  UNL1        0.1410
     25  C         24.7710  -22.7590  -12.1520 C.2     1  UNL1       -0.0490
     26  C         25.4110  -23.7480  -12.9110 C.2     1  UNL1        0.0080
     27  C         25.3320  -23.7330  -14.3050 C.2     1  UNL1        0.0070
     28  C         24.6070  -22.7350  -14.9650 C.2     1  UNL1       -0.0620
     29  C         24.5460  -22.7010  -16.4640 C.3     1  UNL1        0.0480
     30  C         23.9780  -21.7390  -14.2080 C.2     1  UNL1        0.0070
     31  C         24.0530  -21.7540  -12.8140 C.2     1  UNL1        0.0080
@<TRIPOS>BOND
     1    29    28    1
     2    28    27    2
     3    28    30    1
     4    27    26    1
     5    30    31    2
     6    26    25    2
     7    31    25    1
     8    25    24    1
     9    17    18    2
    10    17    16    1
    11    18    19    1
    12    16    15    2
    13    19    14    2
    14    15    14    1
    15    24    21    1
    16    14    13    1
    17    21    22    2
    18    21    20   am
    19    23    20    1
    20    13    12    1
    21    20     1    1
    22     1     6    2
    23     1     2    1
    24     6     5    1
    25    12    10    1
    26     5     4    2
    27     2     3    2
    28    11    10    1
    29    10     7    1
    30     4     3    1
    31     4     7    1
    32     8     7    2
    33     7     9    2
