@<TRIPOS>MOLECULE
46133_out_ligand_01.pdbqt
 36 40 0 0 0
SMALL
GASTEIGER

@<TRIPOS>ATOM
      1  O         20.8580  -20.7500  -11.4770 O.2     1  UNL1       -0.2670
      2  C         21.4790  -21.8060  -11.4860 C.2     1  UNL1        0.2560
      3  N         21.2030  -22.9370  -10.7370 N.am    1  UNL1       -0.3230
      4  H         21.7350  -23.7680  -10.9550 H       1  UNL1        0.1690
      5  C         22.6360  -21.9370  -12.4180 C.2     1  UNL1        0.0320
      6  C         23.6960  -22.7740  -12.0510 C.2     1  UNL1        0.0170
      7  C         24.7990  -22.9250  -12.8960 C.2     1  UNL1        0.0100
      8  C         24.8490  -22.2530  -14.1250 C.2     1  UNL1       -0.0300
      9  C         23.7770  -21.4240  -14.4910 C.2     1  UNL1        0.0100
     10  C         22.6720  -21.2720  -13.6500 C.2     1  UNL1        0.0170
     11  C         26.0480  -22.4080  -15.0400 C.3     1  UNL1        0.3110
     12  N         26.4040  -21.1700  -15.7520 N.3     1  UNL1        0.0970
     13  C         25.4390  -20.9040  -16.8300 C.3     1  UNL1        0.2770
     14  C         25.9080  -19.7330  -17.7040 C.3     1  UNL1        0.0690
     15  C         26.3060  -18.5310  -16.8880 C.2     1  UNL1       -0.0490
     16  C         26.4400  -17.2770  -17.4990 C.2     1  UNL1        0.0070
     17  C         26.6050  -18.6800  -15.5230 C.2     1  UNL1       -0.0240
     18  C         26.8420  -16.1700  -16.7520 C.2     1  UNL1        0.0010
     19  C         27.1210  -16.3080  -15.3940 C.2     1  UNL1        0.0010
     20  C         27.0010  -17.5560  -14.7820 C.2     1  UNL1        0.0090
     21  C         26.4390  -20.0160  -14.8280 C.3     1  UNL1        0.3110
     22  C         20.1950  -23.0930   -9.7630 C.2     1  UNL1        0.0350
     23  C         20.3780  -23.7620   -8.5500 C.2     1  UNL1        0.0310
     24  C         19.3260  -23.8780   -7.6340 C.2     1  UNL1        0.0270
     25  C         18.0750  -23.3430   -7.9440 C.2     1  UNL1        0.0790
     26  C         17.8830  -22.6510   -9.1410 C.2     1  UNL1        0.0270
     27  C         18.9400  -22.5350  -10.0480 C.2     1  UNL1        0.0310
     28  S         16.7410  -23.4710   -6.7700 S.O2    1  UNL1        0.2610
     29  O         16.8480  -24.7680   -6.1360 O.2     1  UNL1       -0.2000
     30  O         15.5260  -23.0660   -7.4460 O.2     1  UNL1       -0.2000
     31  N         17.1150  -22.2950   -5.6160 N.3     1  UNL1       -0.3030
     32  C         18.4780  -21.6980   -5.6570 C.3     1  UNL1        0.1610
     33  C         18.6620  -20.7480   -4.4690 C.3     1  UNL1        0.1880
     34  O         18.5660  -21.4110   -3.1990 O.3     1  UNL1       -0.3880
     35  C         17.6950  -22.5500   -3.2130 C.3     1  UNL1        0.1880
     36  C         16.5640  -22.4450   -4.2410 C.3     1  UNL1        0.1610
@<TRIPOS>BOND
     1    14    15    1
     2    14    13    1
     3    16    15    2
     4    16    18    1
     5    15    17    1
     6    13    12    1
     7    18    19    2
     8    12    11    1
     9    12    21    1
    10    17    21    1
    11    17    20    2
    12    19    20    1
    13    11     8    1
    14     9     8    2
    15     9    10    1
    16     8     7    1
    17    10     5    2
    18     7     6    2
    19     5     6    1
    20     5     2    1
    21     2     1    2
    22     2     3   am
    23     4     3    1
    24     3    22    1
    25    27    22    2
    26    27    26    1
    27    22    23    1
    28    26    25    2
    29    23    24    2
    30    25    24    1
    31    25    28    1
    32    30    28    2
    33    28    29    2
    34    28    31    1
    35    32    31    1
    36    32    33    1
    37    31    36    1
    38    33    34    1
    39    36    35    1
    40    35    34    1
