@<TRIPOS>MOLECULE
4617_out_ligand_01.pdbqt
 33 37 0 0 0
SMALL
GASTEIGER

@<TRIPOS>ATOM
      1  C         21.4900  -22.1420  -11.2140 C.2     1  UNL1        0.0320
      2  C         21.7080  -21.5530  -12.4650 C.2     1  UNL1        0.0170
      3  C         22.9480  -21.6920  -13.0970 C.2     1  UNL1        0.0100
      4  C         23.9800  -22.4260  -12.4970 C.2     1  UNL1       -0.0400
      5  C         23.7480  -23.0240  -11.2500 C.2     1  UNL1        0.0100
      6  C         22.5110  -22.8890  -10.6160 C.2     1  UNL1        0.0170
      7  C         25.3290  -22.5600  -13.1770 C.3     1  UNL1        0.1720
      8  N         25.5150  -21.5910  -14.2500 N.am    1  UNL1       -0.2910
      9  C         25.9930  -20.3220  -13.9320 C.2     1  UNL1        0.2760
     10  O         26.3120  -19.9960  -12.7900 O.2     1  UNL1       -0.2650
     11  C         26.0970  -19.4050  -15.0380 C.2     1  UNL1        0.1080
     12  C         26.5210  -18.0890  -15.0580 C.2     1  UNL1        0.0370
     13  N         25.7560  -19.7610  -16.3180 N.pl3   1  UNL1       -0.3140
     14  C         26.4320  -17.6340  -16.3920 C.2     1  UNL1        0.0200
     15  C         25.9590  -18.6840  -17.1500 C.2     1  UNL1        0.0980
     16  C         25.2900  -21.0470  -16.6270 C.2     1  UNL1        0.0860
     17  C         24.9520  -21.4250  -17.9280 C.2     1  UNL1        0.0350
     18  C         25.1710  -21.9630  -15.5790 C.2     1  UNL1        0.1600
     19  C         24.5070  -22.7220  -18.1520 C.2     1  UNL1        0.0220
     20  C         24.4200  -23.5780  -17.0700 C.2     1  UNL1        0.1190
     21  N         24.7400  -23.2280  -15.8050 N.2     1  UNL1       -0.2410
     22  C         20.1910  -22.0220  -10.4990 C.2     1  UNL1        0.2520
     23  O         19.2640  -21.4020  -11.0080 O.2     1  UNL1       -0.2680
     24  N         20.1040  -22.6590   -9.2770 N.am    1  UNL1       -0.3520
     25  H         20.8970  -23.1780   -8.9270 H       1  UNL1        0.1630
     26  C         18.9060  -22.5650   -8.4370 C.3     1  UNL1        0.0840
     27  C         19.3100  -22.6300   -6.9540 C.3     1  UNL1        0.0250
     28  C         18.4690  -21.7460   -6.0210 C.3     1  UNL1        0.0020
     29  C         17.2330  -22.4200   -5.4320 C.3     1  UNL1        0.0000
     30  C         15.9300  -22.2200   -6.2070 C.3     1  UNL1        0.0000
     31  C         15.9380  -22.5450   -7.7000 C.3     1  UNL1        0.0000
     32  C         16.6490  -23.8470   -8.0540 C.3     1  UNL1        0.0020
     33  C         17.9240  -23.6650   -8.8760 C.3     1  UNL1        0.0250
@<TRIPOS>BOND
     1    19    17    1
     2    19    20    2
     3    17    16    2
     4    15    14    2
     5    15    13    1
     6    20    21    1
     7    16    13    1
     8    16    18    1
     9    14    12    1
    10    13    11    1
    11    21    18    2
    12    18     8    1
    13    12    11    2
    14    11     9    1
    15     8     9   am
    16     8     7    1
    17     9    10    2
    18     7     4    1
    19     3     4    2
    20     3     2    1
    21     4     5    1
    22     2     1    2
    23     5     6    2
    24     1     6    1
    25     1    22    1
    26    23    22    2
    27    22    24   am
    28    24    25    1
    29    24    26    1
    30    33    26    1
    31    33    32    1
    32    26    27    1
    33    32    31    1
    34    31    30    1
    35    27    28    1
    36    30    29    1
    37    28    29    1
