@<TRIPOS>MOLECULE
461_out_ligand_01.pdbqt
 41 44 0 0 0
SMALL
GASTEIGER

@<TRIPOS>ATOM
      1  C         21.1120  -22.2720  -11.5390 C.2     1  UNL1        0.2560
      2  O         21.0180  -21.6340  -12.5790 O.2     1  UNL1       -0.2670
      3  N         22.2690  -22.7780  -10.9740 N.am    1  UNL1       -0.3230
      4  H         22.1830  -23.2160  -10.0680 H       1  UNL1        0.1690
      5  C         19.8730  -22.5160  -10.7450 C.2     1  UNL1        0.0320
      6  C         19.9030  -23.5040   -9.7530 C.2     1  UNL1        0.0180
      7  C         18.7570  -23.7850   -9.0060 C.2     1  UNL1        0.0260
      8  C         17.5780  -23.0750   -9.2610 C.2     1  UNL1        0.0790
      9  C         17.5520  -22.0520  -10.2140 C.2     1  UNL1        0.0260
     10  C         18.7030  -21.7730  -10.9590 C.2     1  UNL1        0.0180
     11  S         16.1100  -23.4360   -8.3170 S.O2    1  UNL1        0.2630
     12  O         15.5020  -22.1800   -7.9370 O.2     1  UNL1       -0.2000
     13  O         15.3620  -24.4380   -9.0510 O.2     1  UNL1       -0.2000
     14  N         16.7090  -24.2210   -6.9500 N.pl3   1  UNL1       -0.2800
     15  H         17.5110  -24.8110   -7.1510 H       1  UNL1        0.1790
     16  C         16.6080  -23.6060   -5.6680 C.2     1  UNL1        0.0490
     17  C         15.5240  -23.9340   -4.8490 C.2     1  UNL1        0.0310
     18  C         15.3830  -23.3420   -3.5970 C.2     1  UNL1        0.0030
     19  C         16.3340  -22.4280   -3.1540 C.2     1  UNL1        0.0070
     20  C         17.4380  -22.0920   -3.9530 C.2     1  UNL1       -0.0540
     21  C         18.4470  -21.1150   -3.4060 C.3     1  UNL1        0.0490
     22  C         17.5760  -22.6730   -5.2380 C.2     1  UNL1       -0.0290
     23  C         18.7760  -22.3460   -6.0930 C.3     1  UNL1        0.0510
     24  C         23.5840  -22.6710  -11.4720 C.2     1  UNL1        0.0360
     25  C         24.3390  -21.5710  -11.0330 C.2     1  UNL1        0.0290
     26  C         25.6490  -21.3710  -11.4780 C.2     1  UNL1        0.0040
     27  C         26.2200  -22.2670  -12.3760 C.2     1  UNL1        0.0250
     28  C         25.4710  -23.3610  -12.8160 C.2     1  UNL1        0.0830
     29  C         24.1600  -23.5720  -12.3670 C.2     1  UNL1        0.0540
     30  S         26.1800  -24.5090  -13.9830 S.O2    1  UNL1        0.2840
     31  O         25.0660  -25.1360  -14.6720 O.2     1  UNL1       -0.1980
     32  O         27.1210  -25.3100  -13.2280 O.2     1  UNL1       -0.1980
     33  N         26.9670  -23.5540  -15.0250 N.2     1  UNL1       -0.1470
     34  C         26.3400  -22.8310  -15.9050 C.2     1  UNL1        0.1130
     35  C         24.8280  -22.7540  -16.0860 C.3     1  UNL1        0.0790
     36  N         27.1200  -22.0460  -16.7170 N.pl3   1  UNL1       -0.3780
     37  C         24.2920  -21.4510  -15.5000 C.3     1  UNL1        0.0080
     38  C         24.4810  -20.2440  -16.4210 C.3     1  UNL1        0.0020
     39  C         25.9380  -19.8910  -16.7310 C.3     1  UNL1        0.0200
     40  C         26.6630  -20.9560  -17.5480 C.3     1  UNL1        0.1210
     41  H         28.1060  -22.0380  -16.4710 H       1  UNL1        0.1600
@<TRIPOS>BOND
     1    40    39    1
     2    40    36    1
     3    39    38    1
     4    36    41    1
     5    36    34    1
     6    38    37    1
     7    35    34    1
     8    35    37    1
     9    34    33    2
    10    33    30    1
    11    31    30    2
    12    30    32    2
    13    30    28    1
    14    28    27    2
    15    28    29    1
    16     2     1    2
    17    27    26    1
    18    29    24    2
    19     1     3   am
    20     1     5    1
    21    26    25    2
    22    24    25    1
    23    24     3    1
    24     3     4    1
    25    10     5    2
    26    10     9    1
    27     5     6    1
    28     9     8    2
    29     6     7    2
    30     8     7    1
    31     8    11    1
    32    13    11    2
    33    11    12    2
    34    11    14    1
    35    15    14    1
    36    14    16    1
    37    23    22    1
    38    16    22    2
    39    16    17    1
    40    22    20    1
    41    17    18    2
    42    20    21    1
    43    20    19    2
    44    18    19    1
