@<TRIPOS>MOLECULE
4622_out_ligand_01.pdbqt
 34 37 0 0 0
SMALL
GASTEIGER

@<TRIPOS>ATOM
      1  C         20.0640  -22.5430   -8.9000 C.2     1  UNL1        0.0320
      2  C         20.2970  -22.6570  -10.2690 C.2     1  UNL1        0.0190
      3  C         21.6130  -22.6720  -10.7480 C.2     1  UNL1        0.0320
      4  C         22.7220  -22.5830   -9.8800 C.2     1  UNL1        0.0620
      5  C         22.4530  -22.4670   -8.5080 C.2     1  UNL1        0.0320
      6  C         21.1390  -22.4390   -8.0190 C.2     1  UNL1        0.0190
      7  N         24.0600  -22.5840  -10.4170 N.am    1  UNL1       -0.1970
      8  N         24.2670  -21.6060  -11.3800 N.2     1  UNL1       -0.1570
      9  C         25.4510  -21.4830  -11.8760 C.2     1  UNL1        0.1190
     10  C         26.6130  -22.3110  -11.5530 C.2     1  UNL1        0.0460
     11  C         26.4050  -23.2600  -10.6410 C.2     1  UNL1        0.0790
     12  C         25.0790  -23.4550   -9.9990 C.2     1  UNL1        0.2680
     13  O         25.0020  -24.3650   -9.1770 O.2     1  UNL1       -0.2660
     14  S         25.7660  -20.2320  -13.0540 S.3     1  UNL1       -0.0690
     15  C         25.3570  -21.1100  -14.5500 C.2     1  UNL1        0.0070
     16  C         25.2780  -20.4450  -15.7750 C.2     1  UNL1        0.0190
     17  C         24.9570  -21.1460  -16.9400 C.2     1  UNL1        0.0080
     18  C         24.7130  -22.5220  -16.8970 C.2     1  UNL1       -0.0620
     19  C         24.3350  -23.2680  -18.1430 C.3     1  UNL1        0.0480
     20  C         24.7650  -23.1810  -15.6640 C.2     1  UNL1        0.0080
     21  C         25.0870  -22.4810  -14.4980 C.2     1  UNL1        0.0190
     22  C         18.6860  -22.4900   -8.3590 C.2     1  UNL1        0.2560
     23  N         18.5730  -22.9340   -7.0560 N.am    1  UNL1       -0.3220
     24  H         19.3900  -23.3970   -6.6850 H       1  UNL1        0.1690
     25  O         17.7990  -22.1050   -9.1100 O.2     1  UNL1       -0.2670
     26  C         17.3930  -23.0490   -6.2770 C.2     1  UNL1        0.0470
     27  C         16.2910  -23.8610   -6.6300 C.2     1  UNL1       -0.0350
     28  C         15.1900  -23.9500   -5.7550 C.2     1  UNL1        0.0090
     29  C         16.1590  -24.6150   -7.9260 C.3     1  UNL1        0.0500
     30  C         15.1350  -23.2030   -4.5850 C.2     1  UNL1        0.0010
     31  C         16.1800  -22.3450   -4.2720 C.2     1  UNL1        0.0090
     32  C         17.3130  -22.2540   -5.1020 C.2     1  UNL1       -0.0310
     33  C         18.4060  -21.3010   -4.6630 C.3     1  UNL1        0.0360
     34  C         18.6130  -21.3280   -3.1540 C.3     1  UNL1        0.0100
@<TRIPOS>BOND
     1    19    18    1
     2    17    18    2
     3    17    16    1
     4    18    20    1
     5    16    15    2
     6    20    21    2
     7    15    21    1
     8    15    14    1
     9    14     9    1
    10     9    10    1
    11     9     8    2
    12    10    11    2
    13     8     7    1
    14     3     2    1
    15     3     4    2
    16    11    12    1
    17     7    12   am
    18     7     4    1
    19     2     1    2
    20    12    13    2
    21     4     5    1
    22    25    22    2
    23     1    22    1
    24     1     6    1
    25     5     6    2
    26    22    23   am
    27    29    27    1
    28    23    24    1
    29    23    26    1
    30    27    26    2
    31    27    28    1
    32    26    32    1
    33    28    30    2
    34    32    33    1
    35    32    31    2
    36    33    34    1
    37    30    31    1
