@<TRIPOS>MOLECULE
46238_out_ligand_01.pdbqt
 30 32 0 0 0
SMALL
GASTEIGER

@<TRIPOS>ATOM
      1  C         21.7910  -22.8330  -10.4600 C.2     1  UNL1        0.2570
      2  O         22.1990  -23.6140   -9.6090 O.2     1  UNL1       -0.2670
      3  N         20.6060  -22.1340  -10.4610 N.am    1  UNL1       -0.3010
      4  H         20.4350  -21.4010  -11.1290 H       1  UNL1        0.1710
      5  C         19.6470  -22.3170   -9.5040 C.ar    1  UNL1        0.1740
      6  N         19.7210  -22.1630   -8.2120 N.ar    1  UNL1       -0.2230
      7  C         18.5030  -22.4790   -7.6320 C.ar    1  UNL1        0.0830
      8  C         17.4890  -22.8250   -8.5200 C.ar    1  UNL1        0.0190
      9  S         18.1480  -22.8400  -10.1190 S.2     1  UNL1       -0.0540
     10  C         18.3570  -22.3830   -6.1860 C.2     1  UNL1       -0.0060
     11  C         18.7230  -21.1970   -5.5380 C.2     1  UNL1        0.0140
     12  C         18.5990  -21.0810   -4.1510 C.2     1  UNL1        0.0010
     13  C         18.1170  -22.1560   -3.4020 C.2     1  UNL1        0.0000
     14  C         17.7710  -23.3490   -4.0370 C.2     1  UNL1        0.0010
     15  C         17.8980  -23.4660   -5.4240 C.2     1  UNL1        0.0140
     16  C         16.0310  -23.1360   -8.2710 C.3     1  UNL1        0.0200
     17  C         15.8270  -24.5820   -7.8170 C.3     1  UNL1        0.0150
     18  C         15.1540  -22.8130   -9.4840 C.3     1  UNL1        0.0150
     19  C         22.6730  -22.5440  -11.6250 C.2     1  UNL1        0.0320
     20  C         22.1830  -21.7280  -12.6500 C.2     1  UNL1        0.0170
     21  C         22.9860  -21.4290  -13.7520 C.2     1  UNL1        0.0100
     22  C         24.2940  -21.9300  -13.8360 C.2     1  UNL1       -0.0400
     23  C         24.7860  -22.7310  -12.7950 C.2     1  UNL1        0.0100
     24  C         23.9820  -23.0380  -11.6940 C.2     1  UNL1        0.0170
     25  C         25.1640  -21.5780  -15.0150 C.3     1  UNL1        0.1610
     26  N         24.5050  -21.9050  -16.2580 N.am    1  UNL1       -0.3570
     27  C         24.6490  -23.1540  -16.8160 C.2     1  UNL1        0.2130
     28  C         23.9750  -23.3220  -18.1510 C.3     1  UNL1        0.1170
     29  O         25.2620  -24.0690  -16.2750 O.2     1  UNL1       -0.2740
     30  H         24.1530  -21.1450  -16.8250 H       1  UNL1        0.1620
@<TRIPOS>BOND
     1    28    27    1
     2    30    26    1
     3    27    29    2
     4    27    26   am
     5    26    25    1
     6    25    22    1
     7    22    21    2
     8    22    23    1
     9    21    20    1
    10    23    24    2
    11    20    19    2
    12    24    19    1
    13    19     1    1
    14     4     3    1
    15     3     1   am
    16     3     5    1
    17     1     2    2
    18     9     5   ar
    19     9     8   ar
    20     5     6   ar
    21    18    16    1
    22     8    16    1
    23     8     7   ar
    24    16    17    1
    25     6     7   ar
    26     7    10    1
    27    10    11    2
    28    10    15    1
    29    11    12    1
    30    15    14    2
    31    12    13    2
    32    14    13    1
