@<TRIPOS>MOLECULE
46234_out_ligand_01.pdbqt
 36 39 0 0 0
SMALL
GASTEIGER

@<TRIPOS>ATOM
      1  C         17.0720  -22.4910   -5.0790 C.2     1  UNL1        0.0540
      2  C         16.8210  -23.0030   -3.7930 C.2     1  UNL1        0.0190
      3  C         15.6630  -23.7450   -3.5430 C.2     1  UNL1        0.0010
      4  C         14.7600  -23.9970   -4.5750 C.2     1  UNL1        0.0020
      5  C         15.0100  -23.5130   -5.8620 C.2     1  UNL1        0.0250
      6  C         16.1650  -22.7700   -6.1230 C.2     1  UNL1        0.0380
      7  N         16.3600  -22.2460   -7.4480 N.pl3   1  UNL1       -0.1800
      8  H         15.6080  -21.6010   -7.7440 H       1  UNL1        0.1460
      9  S         16.6030  -23.3740   -8.6890 S.O2    1  UNL1        0.2460
     10  O         15.3150  -23.6120   -9.3090 O.2     1  UNL1       -0.2060
     11  O         17.4220  -24.4620   -8.2010 O.2     1  UNL1       -0.2060
     12  C         17.5510  -22.4330   -9.8630 C.2     1  UNL1        0.0770
     13  C         16.9910  -21.2670  -10.4430 C.2     1  UNL1        0.0270
     14  C         17.7180  -20.5180  -11.3750 C.2     1  UNL1        0.0330
     15  C         18.9800  -20.9740  -11.6830 C.ar    1  UNL1        0.0630
     16  N         19.9220  -20.4500  -12.5600 N.ar    1  UNL1       -0.3070
     17  C         19.5260  -22.1200  -11.1020 C.ar    1  UNL1        0.0640
     18  C         21.0660  -21.2600  -12.5300 C.ar    1  UNL1        0.3250
     19  H         19.8360  -19.6230  -13.1280 H       1  UNL1        0.1700
     20  O         22.0870  -21.0960  -13.1680 O.2     1  UNL1       -0.2470
     21  N         20.8030  -22.2960  -11.6230 N.ar    1  UNL1       -0.3060
     22  H         21.4600  -23.0240  -11.3980 H       1  UNL1        0.1700
     23  C         18.8420  -22.8750  -10.1830 C.2     1  UNL1        0.0560
     24  C         18.3140  -21.7200   -5.3670 C.2     1  UNL1        0.2530
     25  N         19.1100  -22.1710   -6.4000 N.am    1  UNL1       -0.3530
     26  H         18.8790  -23.0220   -6.9050 H       1  UNL1        0.1630
     27  O         18.5860  -20.7350   -4.6810 O.2     1  UNL1       -0.2680
     28  C         20.2730  -21.4340   -6.8410 C.3     1  UNL1        0.1610
     29  C         21.1510  -22.2900   -7.7140 C.2     1  UNL1       -0.0380
     30  C         20.8160  -23.6240   -7.9860 C.2     1  UNL1        0.0090
     31  C         21.6310  -24.3980   -8.8130 C.2     1  UNL1        0.0030
     32  C         22.7810  -23.8430   -9.3750 C.2     1  UNL1        0.0370
     33  C         23.1290  -22.5140   -9.1210 C.2     1  UNL1        0.0680
     34  C         22.3100  -21.7420   -8.2950 C.2     1  UNL1        0.0450
     35  O         24.2790  -22.0940   -9.7340 O.2     1  UNL1       -0.3560
     36  C         24.5810  -22.6840  -10.9990 C.3     1  UNL1        0.2100
@<TRIPOS>BOND
     1    20    18    2
     2    19    16    1
     3    16    18   ar
     4    16    15   ar
     5    18    21   ar
     6    15    14    2
     7    15    17   ar
     8    21    22    1
     9    21    17   ar
    10    14    13    1
    11    17    23    2
    12    36    35    1
    13    13    12    2
    14    23    12    1
    15    12     9    1
    16    35    33    1
    17    32    33    2
    18    32    31    1
    19    10     9    2
    20    33    34    1
    21    31    30    2
    22     9    11    2
    23     9     7    1
    24    34    29    2
    25    30    29    1
    26     8     7    1
    27    29    28    1
    28     7     6    1
    29    26    25    1
    30    28    25    1
    31    25    24   am
    32     6     5    1
    33     6     1    2
    34     5     4    2
    35    24     1    1
    36    24    27    2
    37     1     2    1
    38     4     3    1
    39     2     3    2
