@<TRIPOS>MOLECULE
46239_out_ligand_01.pdbqt
 34 37 0 0 0
SMALL
GASTEIGER

@<TRIPOS>ATOM
      1  C         17.2960  -22.4650  -10.1380 C.2     1  UNL1        0.0590
      2  C         16.7520  -21.2720  -10.6530 C.2     1  UNL1        0.0190
      3  C         17.5260  -20.4190  -11.4390 C.2     1  UNL1        0.0010
      4  C         18.8500  -20.7410  -11.7080 C.2     1  UNL1        0.0020
      5  C         19.4080  -21.9170  -11.1910 C.2     1  UNL1        0.0310
      6  C         18.6560  -22.7790  -10.3830 C.2     1  UNL1        0.0580
      7  N         19.1870  -24.0320   -9.9170 N.pl3   1  UNL1       -0.2800
      8  H         18.5520  -24.8410  -10.0160 H       1  UNL1        0.1790
      9  S         20.2370  -24.2160   -8.6320 S.O2    1  UNL1        0.2630
     10  O         19.6870  -23.5790   -7.4540 O.2     1  UNL1       -0.2000
     11  O         20.6510  -25.6020   -8.6150 O.2     1  UNL1       -0.2000
     12  C         21.6650  -23.2890   -9.1510 C.2     1  UNL1        0.0820
     13  C         21.9870  -22.0950   -8.4610 C.2     1  UNL1        0.0280
     14  C         23.1040  -21.3400   -8.8300 C.2     1  UNL1        0.0330
     15  C         23.8540  -21.8180   -9.8790 C.ar    1  UNL1        0.0630
     16  N         25.0040  -21.2950  -10.4580 N.ar    1  UNL1       -0.3070
     17  C         23.5280  -22.9920  -10.5560 C.ar    1  UNL1        0.0640
     18  C         25.4070  -22.1370  -11.5020 C.ar    1  UNL1        0.3250
     19  H         25.4880  -20.4530  -10.1990 H       1  UNL1        0.1700
     20  O         26.3770  -21.9850  -12.2230 O.2     1  UNL1       -0.2470
     21  N         24.4800  -23.1880  -11.5510 N.ar    1  UNL1       -0.3060
     22  H         24.5210  -23.9410  -12.2170 H       1  UNL1        0.1700
     23  C         22.4360  -23.7540  -10.2240 C.2     1  UNL1        0.0570
     24  C         16.4560  -23.3680   -9.2860 C.2     1  UNL1        0.2540
     25  O         15.4640  -23.9210   -9.7550 O.2     1  UNL1       -0.2680
     26  N         16.8300  -23.5390   -7.9740 N.am    1  UNL1       -0.3510
     27  H         17.4740  -22.9050   -7.5130 H       1  UNL1        0.1630
     28  C         16.0550  -24.3640   -7.0700 C.3     1  UNL1        0.1820
     29  C         16.0370  -23.7730   -5.6790 C.2     1  UNL1        0.0510
     30  C         15.0860  -22.8170   -5.3330 C.2     1  UNL1        0.0290
     31  C         15.1120  -22.2810   -4.0490 C.2     1  UNL1        0.0030
     32  C         16.0950  -22.6920   -3.1560 C.2     1  UNL1        0.0190
     33  C         17.0130  -23.6390   -3.5800 C.2     1  UNL1        0.1170
     34  N         17.0050  -24.1940   -4.8120 N.2     1  UNL1       -0.2640
@<TRIPOS>BOND
     1    20    18    2
     2    22    21    1
     3     4     3    2
     4     4     5    1
     5    21    18   ar
     6    21    17   ar
     7    18    16   ar
     8     3     2    1
     9     5     6    2
    10     2     1    2
    11    17    23    1
    12    17    15   ar
    13    16    19    1
    14    16    15   ar
    15     6     1    1
    16     6     7    1
    17    23    12    2
    18     1    24    1
    19     8     7    1
    20     7     9    1
    21    15    14    1
    22    25    24    2
    23    24    26   am
    24    12     9    1
    25    12    13    1
    26    14    13    2
    27     9    11    2
    28     9    10    2
    29    26    27    1
    30    26    28    1
    31    28    29    1
    32    29    30    2
    33    29    34    1
    34    30    31    1
    35    34    33    2
    36    31    32    2
    37    33    32    1
