@<TRIPOS>MOLECULE
4624_out_ligand_01.pdbqt
 33 36 0 0 0
SMALL
GASTEIGER

@<TRIPOS>ATOM
      1  C         17.9270  -22.1600   -9.9560 C.2     1  UNL1        0.0450
      2  C         17.1210  -21.2510  -10.6600 C.2     1  UNL1        0.0180
      3  C         17.6460  -20.5550  -11.7480 C.2     1  UNL1        0.0010
      4  C         18.9690  -20.7610  -12.1280 C.2     1  UNL1        0.0010
      5  C         19.7720  -21.6640  -11.4240 C.2     1  UNL1        0.0150
      6  C         19.2660  -22.3790  -10.3270 C.2     1  UNL1        0.0160
      7  C         20.1140  -23.3410   -9.6430 C.2     1  UNL1        0.1220
      8  O         19.4540  -24.3810   -9.0370 O.2     1  UNL1       -0.3010
      9  C         20.4410  -25.1230   -8.4690 C.2     1  UNL1        0.2590
     10  N         21.6610  -24.6860   -8.6770 N.2     1  UNL1       -0.2280
     11  C         21.4670  -23.5290   -9.4310 C.2     1  UNL1        0.1610
     12  C         22.5790  -22.6910   -9.8750 C.2     1  UNL1        0.2770
     13  O         22.9020  -21.6610   -9.2970 O.2     1  UNL1       -0.2660
     14  N         23.1690  -23.2070  -11.0110 N.am    1  UNL1       -0.3190
     15  H         22.7530  -24.0720  -11.3560 H       1  UNL1        0.1690
     16  C         24.2590  -22.7010  -11.7420 C.2     1  UNL1        0.0730
     17  C         25.5970  -22.9250  -11.4140 C.2     1  UNL1        0.0330
     18  C         26.6180  -22.3800  -12.2050 C.2     1  UNL1        0.0020
     19  C         26.3100  -21.6090  -13.3260 C.2     1  UNL1        0.0030
     20  C         24.9790  -21.3810  -13.6630 C.2     1  UNL1        0.0440
     21  C         23.9710  -21.9250  -12.8720 C.2     1  UNL1        0.1430
     22  F         22.6910  -21.6940  -13.2080 F       1  UNL1       -0.2040
     23  C         17.3330  -22.8480   -8.7840 C.2     1  UNL1        0.2570
     24  O         16.6210  -23.8240   -8.9760 O.2     1  UNL1       -0.2670
     25  N         17.6810  -22.2740   -7.5750 N.am    1  UNL1       -0.3230
     26  H         18.2370  -21.4300   -7.6200 H       1  UNL1        0.1690
     27  C         17.2900  -22.6940   -6.2870 C.2     1  UNL1        0.0370
     28  C         18.0430  -23.5580   -5.4860 C.2     1  UNL1        0.0290
     29  C         17.5910  -23.9300   -4.2140 C.2     1  UNL1        0.0050
     30  C         16.3800  -23.4400   -3.7340 C.2     1  UNL1        0.0420
     31  C         15.6340  -22.5820   -4.5290 C.2     1  UNL1        0.1180
     32  F         14.4680  -22.1060   -4.0740 F       1  UNL1       -0.2060
     33  C         16.0750  -22.2060   -5.7950 C.2     1  UNL1        0.0710
@<TRIPOS>BOND
     1    20    19    2
     2    20    21    1
     3    19    18    1
     4    22    21    1
     5    21    16    2
     6    18    17    2
     7     4     3    2
     8     4     5    1
     9     3     2    1
    10    16    17    1
    11    16    14    1
    12     5     6    2
    13    15    14    1
    14    14    12   am
    15     2     1    2
    16     6     1    1
    17     6     7    1
    18     1    23    1
    19    12    11    1
    20    12    13    2
    21     7    11    2
    22     7     8    1
    23    11    10    1
    24     8     9    1
    25    24    23    2
    26    23    25   am
    27    10     9    2
    28    26    25    1
    29    25    27    1
    30    27    33    2
    31    27    28    1
    32    33    31    1
    33    28    29    2
    34    31    32    1
    35    31    30    2
    36    29    30    1
