@<TRIPOS>MOLECULE
46256_out_ligand_01.pdbqt
 36 39 0 0 0
SMALL
GASTEIGER

@<TRIPOS>ATOM
      1  C         24.4310  -21.9750  -13.2830 C.2     1  UNL1        0.0540
      2  C         25.4140  -21.5110  -14.1660 C.2     1  UNL1        0.0190
      3  C         26.7100  -22.0250  -14.0960 C.2     1  UNL1        0.0010
      4  C         27.0250  -23.0020  -13.1500 C.2     1  UNL1        0.0020
      5  C         26.0470  -23.4730  -12.2730 C.2     1  UNL1        0.0250
      6  C         24.7460  -22.9720  -12.3430 C.2     1  UNL1        0.0380
      7  N         23.7850  -23.4180  -11.3710 N.pl3   1  UNL1       -0.1800
      8  H         22.8130  -23.1900  -11.6300 H       1  UNL1        0.1460
      9  S         24.0300  -22.8680   -9.7810 S.O2    1  UNL1        0.2460
     10  O         24.2070  -21.4340   -9.8490 O.2     1  UNL1       -0.2060
     11  O         25.0010  -23.7180   -9.1220 O.2     1  UNL1       -0.2060
     12  C         22.4360  -23.1510   -9.0450 C.2     1  UNL1        0.0770
     13  C         21.7480  -24.3620   -9.3080 C.2     1  UNL1        0.0270
     14  C         20.4950  -24.6070   -8.7360 C.2     1  UNL1        0.0330
     15  C         19.9880  -23.6240   -7.9180 C.ar    1  UNL1        0.0630
     16  N         18.7860  -23.5840   -7.2210 N.ar    1  UNL1       -0.3070
     17  C         20.6760  -22.4390   -7.6560 C.ar    1  UNL1        0.0640
     18  C         18.7140  -22.3740   -6.5150 C.ar    1  UNL1        0.3250
     19  H         18.0690  -24.2890   -7.1930 H       1  UNL1        0.1700
     20  O         17.8020  -22.0050   -5.7980 O.2     1  UNL1       -0.2470
     21  N         19.8950  -21.6730   -6.7980 N.ar    1  UNL1       -0.3060
     22  H         20.1130  -20.7670   -6.4140 H       1  UNL1        0.1700
     23  C         21.9060  -22.1660   -8.1980 C.2     1  UNL1        0.0560
     24  C         23.0470  -21.4440  -13.3500 C.2     1  UNL1        0.2530
     25  O         22.5820  -21.1000  -14.4330 O.2     1  UNL1       -0.2680
     26  N         22.3420  -21.4290  -12.1650 N.am    1  UNL1       -0.3570
     27  H         22.7070  -21.9620  -11.3860 H       1  UNL1        0.1620
     28  C         20.9230  -21.1220  -12.1540 C.3     1  UNL1        0.1270
     29  C         20.0660  -22.3620  -11.8800 C.3     1  UNL1        0.0580
     30  C         18.7120  -21.9930  -11.3290 C.2     1  UNL1       -0.0550
     31  C         18.1840  -20.7140  -11.5530 C.2     1  UNL1        0.0070
     32  C         16.9400  -20.3590  -11.0290 C.2     1  UNL1        0.0020
     33  C         16.2120  -21.2790  -10.2740 C.2     1  UNL1        0.0240
     34  C         16.7340  -22.5490  -10.0440 C.2     1  UNL1        0.0340
     35 CL         15.8400  -23.6840   -9.1080 Cl      1  UNL1       -0.0840
     36  C         17.9770  -22.9110  -10.5650 C.2     1  UNL1        0.0310
@<TRIPOS>BOND
     1    25    24    2
     2     2     3    1
     3     2     1    2
     4     3     4    2
     5    24     1    1
     6    24    26   am
     7     1     6    1
     8     4     5    1
     9     6     5    2
    10     6     7    1
    11    26    28    1
    12    26    27    1
    13    28    29    1
    14    29    30    1
    15     8     7    1
    16    31    30    2
    17    31    32    1
    18     7     9    1
    19    30    36    1
    20    32    33    2
    21    36    34    2
    22    33    34    1
    23    34    35    1
    24    10     9    2
    25     9    11    2
    26     9    12    1
    27    13    12    2
    28    13    14    1
    29    12    23    1
    30    14    15    2
    31    23    17    2
    32    15    17   ar
    33    15    16   ar
    34    17    21   ar
    35    16    19    1
    36    16    18   ar
    37    21    18   ar
    38    21    22    1
    39    18    20    2
