@<TRIPOS>MOLECULE
46265_out_ligand_01.pdbqt
 33 36 0 0 0
SMALL
GASTEIGER

@<TRIPOS>ATOM
      1  C         18.0340  -22.7890   -9.5960 C.2     1  UNL1        0.0790
      2  C         19.1170  -23.5480   -9.1420 C.2     1  UNL1        0.0260
      3  C         20.3770  -23.3720   -9.7210 C.2     1  UNL1        0.0180
      4  C         20.5510  -22.4380  -10.7520 C.2     1  UNL1        0.0330
      5  C         19.4660  -21.6510  -11.1670 C.2     1  UNL1        0.0180
      6  C         18.2070  -21.8210  -10.5900 C.2     1  UNL1        0.0260
      7  C         21.8730  -22.2270  -11.4130 C.2     1  UNL1        0.2690
      8  O         22.8770  -22.5200  -10.7770 O.2     1  UNL1       -0.2670
      9  N         21.8020  -21.6690  -12.6760 N.am    1  UNL1       -0.1530
     10  H         20.9110  -21.3660  -13.0340 H       1  UNL1        0.1870
     11  C         22.9250  -21.4300  -13.4310 C.ar    1  UNL1        0.7080
     12  N         23.0300  -21.2640  -14.7280 N.ar    1  UNL1       -0.0620
     13  C         24.3600  -21.0490  -14.9810 C.ar    1  UNL1        0.1030
     14  C         25.0190  -20.8180  -16.1960 C.2     1  UNL1        0.0340
     15  C         25.0970  -21.0820  -13.8050 C.ar    1  UNL1        0.0780
     16  C         26.4060  -20.6260  -16.1810 C.2     1  UNL1        0.0020
     17  C         27.1210  -20.6640  -14.9810 C.2     1  UNL1        0.0020
     18  C         26.4800  -20.8940  -13.7570 C.2     1  UNL1        0.0320
     19  N         24.1590  -21.3230  -12.8340 N.ar    1  UNL1       -0.1870
     20  H         24.3470  -21.4090  -11.8480 H       1  UNL1        0.1840
     21  S         16.4280  -23.0160   -8.8590 S.O2    1  UNL1        0.2630
     22  O         15.4330  -22.7870   -9.8840 O.2     1  UNL1       -0.2000
     23  O         16.4630  -24.2550   -8.1120 O.2     1  UNL1       -0.2000
     24  N         16.3520  -21.7820   -7.7120 N.pl3   1  UNL1       -0.2800
     25  H         15.8880  -20.9450   -8.0590 H       1  UNL1        0.1790
     26  C         16.2540  -22.1010   -6.3270 C.2     1  UNL1        0.0490
     27  C         15.0050  -22.4640   -5.8160 C.2     1  UNL1        0.0310
     28  C         14.8560  -22.7610   -4.4640 C.2     1  UNL1        0.0030
     29  C         15.9600  -22.7060   -3.6190 C.2     1  UNL1        0.0070
     30  C         17.2270  -22.3560   -4.1130 C.2     1  UNL1       -0.0540
     31  C         18.3890  -22.3240   -3.1540 C.3     1  UNL1        0.0490
     32  C         17.3800  -22.0260   -5.4820 C.2     1  UNL1       -0.0290
     33  C         18.7450  -21.6580   -6.0090 C.3     1  UNL1        0.0510
@<TRIPOS>BOND
     1    14    16    1
     2    14    13    2
     3    16    17    2
     4    17    18    1
     5    13    12   ar
     6    13    15   ar
     7    12    11   ar
     8    15    18    2
     9    15    19   ar
    10    11    19   ar
    11    11     9    1
    12    10     9    1
    13    19    20    1
    14     9     7   am
    15     7     8    2
    16     7     4    1
    17     5     4    2
    18     5     6    1
    19     4     3    1
    20     6     1    2
    21    22    21    2
    22     3     2    2
    23     1     2    1
    24     1    21    1
    25    21    23    2
    26    21    24    1
    27    25    24    1
    28    24    26    1
    29    26    27    2
    30    26    32    1
    31    33    32    1
    32    27    28    1
    33    32    30    2
    34    28    29    2
    35    30    29    1
    36    30    31    1
