@<TRIPOS>MOLECULE
46267_out_ligand_01.pdbqt
 27 29 0 0 0
SMALL
GASTEIGER

@<TRIPOS>ATOM
      1  C         16.9960  -21.0240  -11.0030 C.3     1  UNL1        0.0270
      2  C         17.0870  -22.3910  -10.3220 C.3     1  UNL1        0.0640
      3  C         15.8820  -22.6230   -9.3790 C.3     1  UNL1        0.0600
      4  C         16.5270  -22.5820   -8.0390 C.2     1  UNL1       -0.0340
      5  C         15.9110  -22.6410   -6.7970 C.2     1  UNL1        0.0330
      6  C         16.7310  -22.6320   -5.6660 C.2     1  UNL1        0.0740
      7  C         18.1280  -22.5530   -5.7830 C.2     1  UNL1        0.0260
      8  C         18.7210  -22.5020   -7.0490 C.2     1  UNL1        0.0260
      9  C         17.9140  -22.5240   -8.1770 C.2     1  UNL1        0.0170
     10  N         18.3410  -22.4480   -9.5200 N.pl3   1  UNL1       -0.2740
     11  C         19.3530  -23.4350   -9.9000 C.3     1  UNL1        0.1350
     12  C         20.4960  -22.7640  -10.6390 C.2     1  UNL1       -0.0300
     13  C         20.2120  -22.0540  -11.8200 C.2     1  UNL1        0.0090
     14  C         21.2230  -21.4040  -12.5280 C.2     1  UNL1        0.0010
     15  C         22.5330  -21.4510  -12.0680 C.2     1  UNL1        0.0010
     16  C         22.8350  -22.1530  -10.9010 C.2     1  UNL1        0.0170
     17  C         21.8310  -22.8270  -10.1740 C.2     1  UNL1        0.0550
     18  C         22.2250  -23.5650   -8.9080 C.3     1  UNL1        0.4180
     19  F         21.6290  -24.7800   -8.7780 F       1  UNL1       -0.1660
     20  F         23.5680  -23.7620   -8.7790 F       1  UNL1       -0.1660
     21  F         21.8710  -22.8750   -7.7810 F       1  UNL1       -0.1660
     22  S         16.0030  -22.6980   -4.0510 S.O2    1  UNL1        0.2390
     23  O         16.1250  -24.0440   -3.5420 O.2     1  UNL1       -0.2060
     24  O         14.7470  -21.9870   -4.0830 O.2     1  UNL1       -0.2060
     25  N         17.0970  -21.7810   -3.1540 N.3     1  UNL1       -0.2250
     26  H         17.8330  -21.4480   -3.7790 H       1  UNL1        0.1360
     27  H         16.6560  -21.0180   -2.6420 H       1  UNL1        0.1360
@<TRIPOS>BOND
     1    14    15    2
     2    14    13    1
     3    15    16    1
     4    13    12    2
     5     1     2    1
     6    16    17    2
     7    12    17    1
     8    12    11    1
     9     2    10    1
    10     2     3    1
    11    17    18    1
    12    11    10    1
    13    10     9    1
    14     3     4    1
    15    18    20    1
    16    18    19    1
    17    18    21    1
    18     9     4    2
    19     9     8    1
    20     4     5    1
    21     8     7    2
    22     5     6    2
    23     7     6    1
    24     6    22    1
    25    24    22    2
    26    22    23    2
    27    22    25    1
    28    26    25    1
    29    25    27    1
