@<TRIPOS>MOLECULE
46278_out_ligand_01.pdbqt
 32 35 0 0 0
SMALL
GASTEIGER

@<TRIPOS>ATOM
      1  C         18.1500  -23.0480   -9.2740 C.2     1  UNL1        0.0790
      2  C         18.2000  -22.1940  -10.3810 C.2     1  UNL1        0.0260
      3  C         19.4090  -22.0130  -11.0610 C.2     1  UNL1        0.0180
      4  C         20.5590  -22.6980  -10.6430 C.2     1  UNL1        0.0330
      5  C         20.4950  -23.5550   -9.5350 C.2     1  UNL1        0.0180
      6  C         19.2890  -23.7420   -8.8570 C.2     1  UNL1        0.0260
      7  C         21.8720  -22.5290  -11.3280 C.2     1  UNL1        0.2690
      8  O         22.8590  -23.1160  -10.8910 O.2     1  UNL1       -0.2670
      9  N         21.8670  -21.7180  -12.4410 N.am    1  UNL1       -0.1530
     10  H         21.0220  -21.3180  -12.8220 H       1  UNL1        0.1870
     11  C         23.0020  -21.4570  -13.1640 C.ar    1  UNL1        0.7080
     12  N         23.0130  -21.1810  -14.4470 N.ar    1  UNL1       -0.0620
     13  C         24.3380  -20.9880  -14.7620 C.ar    1  UNL1        0.1030
     14  C         24.9300  -20.6690  -15.9920 C.2     1  UNL1        0.0340
     15  C         25.1480  -21.1520  -13.6410 C.ar    1  UNL1        0.0780
     16  C         26.3240  -20.5260  -16.0500 C.2     1  UNL1        0.0020
     17  C         27.1090  -20.6970  -14.9080 C.2     1  UNL1        0.0020
     18  C         26.5370  -21.0160  -13.6710 C.2     1  UNL1        0.0320
     19  N         24.2670  -21.4510  -12.6370 N.ar    1  UNL1       -0.1870
     20  H         24.4780  -21.6470  -11.6660 H       1  UNL1        0.1840
     21  S         16.6030  -23.2940   -8.4220 S.O2    1  UNL1        0.2630
     22  O         16.7100  -24.5160   -7.6560 O.2     1  UNL1       -0.2000
     23  O         15.5470  -23.1150   -9.3960 O.2     1  UNL1       -0.2000
     24  N         16.5090  -21.9680   -7.3880 N.pl3   1  UNL1       -0.2800
     25  H         16.9430  -21.1330   -7.7750 H       1  UNL1        0.1790
     26  C         16.5290  -22.1540   -5.9750 C.2     1  UNL1        0.0480
     27  C         15.3510  -22.5010   -5.3090 C.2     1  UNL1        0.0300
     28  C         15.3550  -22.7160   -3.9310 C.2     1  UNL1        0.0020
     29  C         16.5380  -22.5780   -3.2120 C.2     1  UNL1        0.0010
     30  C         17.7150  -22.2180   -3.8680 C.2     1  UNL1        0.0090
     31  C         17.7280  -22.0000   -5.2560 C.2     1  UNL1       -0.0350
     32  C         19.0160  -21.6020   -5.9210 C.3     1  UNL1        0.0500
@<TRIPOS>BOND
     1    16    14    1
     2    16    17    2
     3    14    13    2
     4    17    18    1
     5    13    12   ar
     6    13    15   ar
     7    12    11   ar
     8    18    15    2
     9    15    19   ar
    10    11    19   ar
    11    11     9    1
    12    10     9    1
    13    19    20    1
    14     9     7   am
    15     7     8    2
    16     7     4    1
    17     3     4    2
    18     3     2    1
    19     4     5    1
    20     2     1    2
    21     5     6    2
    22    23    21    2
    23     1     6    1
    24     1    21    1
    25    21    22    2
    26    21    24    1
    27    25    24    1
    28    24    26    1
    29    26    27    2
    30    26    31    1
    31    32    31    1
    32    27    28    1
    33    31    30    2
    34    28    29    2
    35    30    29    1
