@<TRIPOS>MOLECULE
46285_out_ligand_01.pdbqt
 29 31 0 0 0
SMALL
GASTEIGER

@<TRIPOS>ATOM
      1  C         20.8150  -22.9430   -8.9440 C.2     1  UNL1        0.2510
      2  O         21.3420  -22.6420   -7.8790 O.2     1  UNL1       -0.2680
      3  N         19.6430  -23.6660   -9.0360 N.am    1  UNL1       -0.3560
      4  H         19.4480  -24.1270   -9.9170 H       1  UNL1        0.1620
      5  C         19.0220  -24.2410   -7.8520 C.3     1  UNL1        0.1370
      6  C         17.7220  -23.4940   -7.4020 C.3     1  UNL1        0.0070
      7  C         17.2960  -22.5400   -8.5670 C.3     1  UNL1        0.0420
      8  C         15.7850  -22.5080   -8.7470 C.3     1  UNL1        0.1680
      9  O         15.2680  -23.7830   -9.1260 O.3     1  UNL1       -0.3910
     10  C         15.9130  -24.9020   -8.5180 C.3     1  UNL1        0.1680
     11  C         16.5810  -24.5410   -7.1980 C.3     1  UNL1        0.0420
     12  C         18.0480  -22.6900   -6.1160 C.2     1  UNL1       -0.0450
     13  C         17.6560  -23.1810   -4.8520 C.2     1  UNL1        0.0080
     14  C         17.9020  -22.4630   -3.6750 C.2     1  UNL1        0.0040
     15  C         18.5360  -21.2280   -3.7350 C.2     1  UNL1        0.0420
     16  C         18.9080  -20.7210   -4.9700 C.2     1  UNL1        0.1170
     17  F         19.5000  -19.5210   -5.0370 F       1  UNL1       -0.2060
     18  C         18.6670  -21.4290   -6.1470 C.2     1  UNL1        0.0500
     19  C         21.4570  -22.5570  -10.2320 C.2     1  UNL1        0.0320
     20  C         22.7590  -22.9510  -10.5640 C.2     1  UNL1        0.0180
     21  C         23.3160  -22.5640  -11.7880 C.2     1  UNL1        0.0180
     22  C         22.5730  -21.7950  -12.6960 C.2     1  UNL1        0.0310
     23  C         21.2710  -21.4010  -12.3630 C.2     1  UNL1        0.0180
     24  C         20.7150  -21.7890  -11.1390 C.2     1  UNL1        0.0180
     25  C         23.2140  -21.4100  -13.9800 C.2     1  UNL1        0.2490
     26  N         22.7760  -20.2670  -14.5900 N.am    1  UNL1       -0.3660
     27  H         21.8920  -19.8370  -14.3560 H       1  UNL1        0.1590
     28  H         23.1380  -20.0990  -15.5210 H       1  UNL1        0.1590
     29  O         24.0810  -22.1030  -14.4980 O.2     1  UNL1       -0.2680
@<TRIPOS>BOND
     1    28    26    1
     2    26    27    1
     3    26    25   am
     4    29    25    2
     5    25    22    1
     6    22    23    2
     7    22    21    1
     8    23    24    1
     9    21    20    2
    10    24    19    2
    11    20    19    1
    12    19     1    1
    13     4     3    1
    14     9     8    1
    15     9    10    1
    16     3     1   am
    17     3     5    1
    18     1     2    2
    19     8     7    1
    20     7     6    1
    21    10    11    1
    22     5     6    1
    23     6    11    1
    24     6    12    1
    25    18    12    2
    26    18    16    1
    27    12    13    1
    28    17    16    1
    29    16    15    2
    30    13    14    2
    31    15    14    1
