@<TRIPOS>MOLECULE
46291_out_ligand_01.pdbqt
 27 29 0 0 0
SMALL
GASTEIGER

@<TRIPOS>ATOM
      1  N         22.2420  -22.8390  -10.2090 N.am    1  UNL1       -0.3230
      2  C         22.0560  -22.2870   -8.9540 C.2     1  UNL1        0.2560
      3  O         22.7530  -21.4340   -8.4190 O.2     1  UNL1       -0.2670
      4  H         21.4790  -23.3900  -10.5800 H       1  UNL1        0.1690
      5  C         23.3240  -22.6190  -11.0860 C.2     1  UNL1        0.0360
      6  C         24.5550  -23.1800  -10.7310 C.2     1  UNL1        0.0300
      7  C         25.6780  -23.0140  -11.5460 C.2     1  UNL1        0.0100
      8  C         25.6030  -22.2810  -12.7400 C.2     1  UNL1       -0.0390
      9  C         26.8520  -22.1380  -13.5660 C.3     1  UNL1        0.0500
     10  C         24.3690  -21.6980  -13.0810 C.2     1  UNL1        0.0820
     11  C         23.2410  -21.8690  -12.2570 C.2     1  UNL1        0.0540
     12  S         24.1730  -20.6890  -14.5340 S.O2    1  UNL1        0.2390
     13  O         24.9750  -19.4930  -14.4170 O.2     1  UNL1       -0.2060
     14  O         24.2210  -21.5160  -15.7170 O.2     1  UNL1       -0.2060
     15  N         22.5810  -20.1690  -14.3880 N.3     1  UNL1       -0.2250
     16  H         22.0900  -20.3460  -15.2650 H       1  UNL1        0.1360
     17  H         22.1480  -20.6090  -13.5760 H       1  UNL1        0.1360
     18  C         20.8400  -22.7640   -8.2360 C.2     1  UNL1        0.0320
     19  C         20.2650  -23.9750   -8.6280 C.2     1  UNL1        0.0170
     20  C         19.1330  -24.4570   -7.9710 C.2     1  UNL1        0.0090
     21  C         18.5570  -23.7310   -6.9180 C.2     1  UNL1       -0.0520
     22  C         19.1070  -22.4910   -6.5460 C.2     1  UNL1       -0.0510
     23  C         17.3090  -24.2710   -6.2580 C.3     1  UNL1        0.0390
     24  C         20.2550  -22.0190   -7.2050 C.2     1  UNL1        0.0240
     25  C         18.5190  -21.6740   -5.4200 C.3     1  UNL1        0.0390
     26  C         17.0950  -22.0860   -5.0530 C.3     1  UNL1        0.0050
     27  C         16.9960  -23.6000   -4.9220 C.3     1  UNL1        0.0050
@<TRIPOS>BOND
     1    14    12    2
     2    16    15    1
     3    12    13    2
     4    12    15    1
     5    12    10    1
     6    15    17    1
     7     9     8    1
     8    10     8    2
     9    10    11    1
    10     8     7    1
    11    11     5    2
    12     7     6    2
    13     5     6    1
    14     5     1    1
    15     4     1    1
    16     1     2   am
    17     2     3    2
    18     2    18    1
    19    19    18    2
    20    19    20    1
    21    18    24    1
    22    20    21    2
    23    24    22    2
    24    21    22    1
    25    21    23    1
    26    22    25    1
    27    23    27    1
    28    25    26    1
    29    26    27    1
