@<TRIPOS>MOLECULE
46310_out_ligand_01.pdbqt
 33 36 0 0 0
SMALL
GASTEIGER

@<TRIPOS>ATOM
      1  C         20.9850  -22.2410  -10.4460 C.2     1  UNL1        0.0800
      2  C         21.1010  -21.4050  -11.5610 C.2     1  UNL1        0.0250
      3  C         19.9510  -20.8740  -12.1440 C.2     1  UNL1        0.0030
      4  C         18.6920  -21.1890  -11.6230 C.2     1  UNL1        0.0170
      5  C         18.5740  -22.0550  -10.5250 C.2     1  UNL1        0.0330
      6  C         19.7290  -22.5800   -9.9330 C.2     1  UNL1        0.0420
      7  C         17.2500  -22.4280   -9.9420 C.2     1  UNL1        0.2510
      8  O         16.2350  -21.8220  -10.2680 O.2     1  UNL1       -0.2680
      9  N         17.2470  -23.4400   -9.0060 N.am    1  UNL1       -0.3560
     10  H         18.1200  -23.6800   -8.5480 H       1  UNL1        0.1620
     11  C         16.0540  -23.7430   -8.2330 C.3     1  UNL1        0.1300
     12  C         16.3430  -24.6750   -7.0520 C.3     1  UNL1        0.1000
     13  C         16.4180  -23.9400   -5.7540 C.ar    1  UNL1        0.1360
     14  N         15.6620  -24.1320   -4.6870 N.ar    1  UNL1       -0.1340
     15  N         16.0630  -23.2550   -3.7080 N.ar    1  UNL1       -0.1300
     16  C         17.0580  -22.5430   -4.1880 C.ar    1  UNL1        0.1570
     17  C         17.8540  -21.5030   -3.6390 C.2     1  UNL1        0.0530
     18  N         17.3290  -22.9410   -5.4900 N.ar    1  UNL1       -0.2920
     19  C         18.8280  -20.9450   -4.3870 C.2     1  UNL1        0.0050
     20  C         19.0860  -21.3850   -5.7500 C.2     1  UNL1        0.0180
     21  C         18.3350  -22.3730   -6.2700 C.2     1  UNL1        0.1000
     22  S         22.4530  -22.9120   -9.7000 S.O2    1  UNL1        0.2630
     23  O         23.0810  -21.8710   -8.9160 O.2     1  UNL1       -0.2000
     24  O         22.0900  -24.1800   -9.1000 O.2     1  UNL1       -0.2000
     25  N         23.4230  -23.2880  -11.0300 N.pl3   1  UNL1       -0.2810
     26  H         22.9390  -23.8830  -11.7000 H       1  UNL1        0.1790
     27  C         24.3230  -22.3100  -11.5360 C.2     1  UNL1        0.0420
     28  C         24.2670  -21.9860  -12.8930 C.2     1  UNL1        0.0300
     29  C         25.1050  -20.9950  -13.4100 C.2     1  UNL1        0.0090
     30  C         26.0050  -20.3210  -12.5760 C.2     1  UNL1       -0.0620
     31  C         26.8980  -19.2540  -13.1390 C.3     1  UNL1        0.0480
     32  C         26.0680  -20.6680  -11.2200 C.2     1  UNL1        0.0090
     33  C         25.2310  -21.6590  -10.7030 C.2     1  UNL1        0.0300
@<TRIPOS>BOND
     1    29    28    1
     2    29    30    2
     3    31    30    1
     4    28    27    2
     5    30    32    1
     6     3     4    2
     7     3     2    1
     8    26    25    1
     9     4     5    1
    10     2     1    2
    11    27    25    1
    12    27    33    1
    13    32    33    2
    14    25    22    1
    15     5     7    1
    16     5     6    2
    17     1     6    1
    18     1    22    1
    19     8     7    2
    20     7     9   am
    21    22    24    2
    22    22    23    2
    23     9    10    1
    24     9    11    1
    25    11    12    1
    26    12    13    1
    27    21    20    2
    28    21    18    1
    29    13    18   ar
    30    13    14   ar
    31    20    19    1
    32    18    16   ar
    33    14    15   ar
    34    19    17    2
    35    16    15   ar
    36    16    17    1
