@<TRIPOS>MOLECULE
46336_out_ligand_01.pdbqt
 39 43 0 0 0
SMALL
GASTEIGER

@<TRIPOS>ATOM
      1  N         22.2720  -23.0790   -9.0190 N.am    1  UNL1       -0.2600
      2  C         22.0620  -22.0650   -8.1430 C.2     1  UNL1        0.3260
      3  O         22.8940  -21.3560   -7.6040 O.2     1  UNL1       -0.2470
      4  N         20.7120  -21.9320   -7.9380 N.am    1  UNL1       -0.3200
      5  C         19.9290  -22.9230   -8.6540 C.3     1  UNL1        0.1470
      6  C         21.0900  -23.6830   -9.3500 C.2     1  UNL1        0.2610
      7  O         20.9690  -24.6670  -10.0710 O.2     1  UNL1       -0.2700
      8  H         20.3540  -21.2680   -7.2670 H       1  UNL1        0.1660
      9  C         23.5780  -23.5670   -9.4010 C.3     1  UNL1        0.2180
     10  C         24.1720  -22.7580  -10.5340 C.2     1  UNL1        0.1660
     11  N         24.8710  -21.6710  -10.2200 N.2     1  UNL1       -0.2000
     12  C         25.4210  -21.0460  -11.2440 C.cat   1  UNL1        0.2190
     13  N         25.3380  -21.4300  -12.5070 N.2     1  UNL1       -0.0310
     14  C         24.6200  -22.5220  -12.7350 C.cat   1  UNL1        0.7310
     15  N         24.0130  -23.2160  -11.7760 N.pl3   1  UNL1       -0.0450
     16  N         26.1830  -19.9270  -10.9640 N.pl3   1  UNL1       -0.2700
     17  H         25.9900  -19.6230  -10.0180 H       1  UNL1        0.1270
     18  H         27.1480  -20.1010  -11.2020 H       1  UNL1        0.1270
     19  N         24.4770  -23.0590  -14.0130 N.pl3   1  UNL1       -0.1880
     20  H         24.2590  -24.0420  -13.9330 H       1  UNL1        0.1840
     21  C         24.6070  -22.5430  -15.3050 C.2     1  UNL1        0.0490
     22  C         24.5860  -23.4380  -16.3890 C.2     1  UNL1        0.0300
     23  C         24.7250  -22.9920  -17.7070 C.2     1  UNL1        0.0020
     24  C         24.8870  -21.6360  -17.9670 C.2     1  UNL1        0.0000
     25  C         24.9090  -20.7320  -16.9100 C.2     1  UNL1        0.0020
     26  C         24.7720  -21.1850  -15.5930 C.2     1  UNL1        0.0300
     27  C         19.1490  -23.8550   -7.6940 C.3     1  UNL1        0.0850
     28  C         18.6070  -23.2110   -6.4350 C.2     1  UNL1       -0.0550
     29  C         17.7650  -23.9300   -5.5760 C.2     1  UNL1        0.0070
     30  C         17.2650  -23.3390   -4.4150 C.2     1  UNL1        0.0010
     31  C         17.6100  -22.0280   -4.0950 C.2     1  UNL1        0.0000
     32  C         18.4470  -21.3030   -4.9390 C.2     1  UNL1        0.0010
     33  C         18.9410  -21.8890   -6.1050 C.2     1  UNL1        0.0070
     34  C         18.9870  -22.2780   -9.6790 C.2     1  UNL1       -0.0200
     35  C         19.5120  -21.5870  -10.7880 C.2     1  UNL1        0.0100
     36  C         18.6770  -21.0050  -11.7450 C.2     1  UNL1        0.0010
     37  C         17.2950  -21.1060  -11.6160 C.2     1  UNL1        0.0000
     38  C         16.7510  -21.7860  -10.5320 C.2     1  UNL1        0.0010
     39  C         17.5860  -22.3670   -9.5730 C.2     1  UNL1        0.0100
@<TRIPOS>BOND
     1    24    23    2
     2    24    25    1
     3    23    22    1
     4    25    26    2
     5    22    21    2
     6    26    21    1
     7    21    19    1
     8    19    20    1
     9    19    14    1
    10    14    13    2
    11    14    15    1
    12    13    12    1
    13    15    10    1
    14    36    37    2
    15    36    35    1
    16    37    38    1
    17    12    16    1
    18    12    11    2
    19    18    16    1
    20    16    17    1
    21    35    34    2
    22    10    11    2
    23    10     9    1
    24    38    39    2
    25     7     6    2
    26    34    39    1
    27    34     5    1
    28     9     1    1
    29     6     1   am
    30     6     5    1
    31     1     2   am
    32     5     4    1
    33     5    27    1
    34     2     4   am
    35     2     3    2
    36     4     8    1
    37    27    28    1
    38    28    33    2
    39    28    29    1
    40    33    32    1
    41    29    30    2
    42    32    31    2
    43    30    31    1
