@<TRIPOS>MOLECULE
46332_out_ligand_01.pdbqt
 30 33 0 0 0
SMALL
GASTEIGER

@<TRIPOS>ATOM
      1  C         20.9240  -21.9110  -10.0520 C.ar    1  UNL1        0.1530
      2  N         20.6630  -22.4280   -8.8300 N.ar    1  UNL1       -0.1610
      3  N         19.3060  -22.4260   -8.6760 N.ar    1  UNL1       -0.2370
      4  C         18.7220  -21.9410   -9.8100 C.ar    1  UNL1        0.0450
      5  C         19.7120  -21.5970  -10.6870 C.ar    1  UNL1        0.0030
      6  C         19.1640  -21.0780  -11.9540 C.3     1  UNL1        0.0430
      7  C         17.6540  -21.4690  -11.8390 C.3     1  UNL1        0.0110
      8  C         17.3570  -21.7350  -10.3250 C.3     1  UNL1        0.0600
      9  C         22.3200  -21.7690  -10.5380 C.2     1  UNL1        0.2770
     10  N         22.5190  -22.2810  -11.8130 N.am    1  UNL1       -0.3220
     11  H         21.6950  -22.6050  -12.2990 H       1  UNL1        0.1690
     12  O         23.1880  -21.2350   -9.8550 O.2     1  UNL1       -0.2660
     13  C         23.7210  -22.3340  -12.5480 C.2     1  UNL1        0.0360
     14  C         24.8160  -23.1290  -12.2080 C.2     1  UNL1        0.0290
     15  C         25.9760  -23.1130  -12.9910 C.2     1  UNL1        0.0030
     16  C         26.0500  -22.3090  -14.1280 C.2     1  UNL1        0.0170
     17  C         24.9530  -21.5230  -14.4920 C.2     1  UNL1        0.0340
     18  C         23.8000  -21.5310  -13.6920 C.2     1  UNL1        0.0460
     19  C         24.9610  -20.6470  -15.6940 C.2     1  UNL1        0.2490
     20  N         25.5490  -19.4180  -15.5860 N.am    1  UNL1       -0.3660
     21  H         25.6420  -18.8950  -16.4480 H       1  UNL1        0.1590
     22  H         26.1730  -19.1780  -14.8300 H       1  UNL1        0.1590
     23  O         24.4880  -21.0220  -16.7600 O.2     1  UNL1       -0.2680
     24  C         18.7230  -22.8830   -7.4590 C.2     1  UNL1        0.0580
     25  C         18.7130  -22.0240   -6.3440 C.2     1  UNL1        0.0340
     26  C         18.1510  -22.4380   -5.1340 C.2     1  UNL1        0.0440
     27  C         17.5950  -23.7050   -5.0370 C.2     1  UNL1        0.1160
     28  F         17.0540  -24.1040   -3.8790 F       1  UNL1       -0.2060
     29  C         17.5900  -24.5660   -6.1290 C.2     1  UNL1        0.0440
     30  C         18.1520  -24.1580   -7.3420 C.2     1  UNL1        0.0340
@<TRIPOS>BOND
     1    23    19    2
     2    21    20    1
     3    19    20   am
     4    19    17    1
     5    20    22    1
     6    17    16    2
     7    17    18    1
     8    16    15    1
     9    18    13    2
    10    15    14    2
    11    13    14    1
    12    13    10    1
    13    11    10    1
    14     6     7    1
    15     6     5    1
    16     7     8    1
    17    10     9   am
    18     5     1   ar
    19     5     4   ar
    20     9     1    1
    21     9    12    2
    22     8     4    1
    23     1     2   ar
    24     4     3   ar
    25     2     3   ar
    26     3    24    1
    27    24    30    2
    28    24    25    1
    29    30    29    1
    30    25    26    2
    31    29    27    2
    32    26    27    1
    33    27    28    1
