@<TRIPOS>MOLECULE
46357_out_ligand_01.pdbqt
 28 30 0 0 0
SMALL
GASTEIGER

@<TRIPOS>ATOM
      1  N         21.8020  -22.3940   -9.6850 N.am    1  UNL1       -0.3230
      2  C         21.3710  -23.5130   -8.9960 C.2     1  UNL1        0.2560
      3  O         21.9050  -24.6160   -8.9790 O.2     1  UNL1       -0.2670
      4  H         21.3280  -21.5210   -9.4910 H       1  UNL1        0.1690
      5  C         22.9010  -22.3070  -10.5670 C.2     1  UNL1        0.0360
      6  C         22.6270  -21.9270  -11.8890 C.2     1  UNL1        0.0490
      7  C         23.6570  -21.8170  -12.8390 C.2     1  UNL1        0.0720
      8  C         24.9660  -22.0950  -12.4500 C.2     1  UNL1        0.1320
      9  C         25.2500  -22.4770  -11.1420 C.2     1  UNL1        0.0450
     10  F         25.9860  -22.0060  -13.3170 F       1  UNL1       -0.2050
     11  C         24.2200  -22.5830  -10.2040 C.2     1  UNL1        0.0320
     12  C         23.2910  -21.4090  -14.2200 C.2     1  UNL1        0.2520
     13  N         22.5720  -20.2620  -14.3890 N.am    1  UNL1       -0.3660
     14  H         22.3250  -19.9890  -15.3310 H       1  UNL1        0.1590
     15  H         22.2750  -19.6740  -13.6190 H       1  UNL1        0.1590
     16  O         23.6250  -22.0830  -15.1870 O.2     1  UNL1       -0.2680
     17  C         20.1470  -23.3140   -8.1700 C.2     1  UNL1        0.0350
     18  C         20.0990  -22.2210   -7.2980 C.2     1  UNL1        0.0190
     19  C         18.9680  -22.0050   -6.5020 C.2     1  UNL1        0.0360
     20  C         17.8740  -22.8870   -6.5610 C.2     1  UNL1        0.0960
     21  C         17.9460  -23.9840   -7.4220 C.2     1  UNL1        0.1460
     22  F         16.9510  -24.8750   -7.5250 F       1  UNL1       -0.2040
     23  C         19.0710  -24.2030   -8.2210 C.2     1  UNL1        0.0610
     24  N         16.7400  -22.6380   -5.7410 N.pl3   1  UNL1       -0.2420
     25  C         16.6440  -22.6140   -4.3640 C.2     1  UNL1        0.1200
     26  C         15.3370  -22.3310   -4.0460 C.2     1  UNL1        0.0400
     27  C         14.6980  -22.1970   -5.2830 C.2     1  UNL1        0.1400
     28  N         15.5290  -22.3800   -6.3090 N.2     1  UNL1       -0.1800
@<TRIPOS>BOND
     1    14    13    1
     2    16    12    2
     3    13    12   am
     4    13    15    1
     5    12     7    1
     6    10     8    1
     7     7     8    2
     8     7     6    1
     9     8     9    1
    10     6     5    2
    11     9    11    2
    12     5    11    1
    13     5     1    1
    14     1     4    1
    15     1     2   am
    16     2     3    2
    17     2    17    1
    18    23    17    2
    19    23    21    1
    20    17    18    1
    21    22    21    1
    22    21    20    2
    23    18    19    2
    24    20    19    1
    25    20    24    1
    26    28    24    1
    27    28    27    2
    28    24    25    1
    29    27    26    1
    30    25    26    2
