@<TRIPOS>MOLECULE
46383_out_ligand_01.pdbqt
 28 30 0 0 0
SMALL
GASTEIGER

@<TRIPOS>ATOM
      1  N         21.7990  -22.3390   -9.5800 N.am    1  UNL1       -0.3220
      2  C         21.3140  -23.4730   -8.9530 C.2     1  UNL1        0.2560
      3  O         21.7110  -24.6240   -9.0840 O.2     1  UNL1       -0.2670
      4  H         21.4350  -21.4590   -9.2430 H       1  UNL1        0.1690
      5  C         22.8360  -22.2480  -10.5440 C.2     1  UNL1        0.0420
      6  C         22.5040  -21.9570  -11.8910 C.2     1  UNL1       -0.0190
      7  C         21.0670  -21.8170  -12.3350 C.3     1  UNL1        0.0520
      8  C         23.5540  -21.7770  -12.8250 C.2     1  UNL1        0.0400
      9  C         24.8930  -21.9410  -12.4430 C.2     1  UNL1        0.0180
     10  C         25.2030  -22.2810  -11.1350 C.2     1  UNL1        0.0030
     11  C         24.1820  -22.4290  -10.1950 C.2     1  UNL1        0.0300
     12  C         23.2880  -21.3620  -14.2290 C.2     1  UNL1        0.2490
     13  N         22.6450  -20.1670  -14.3930 N.am    1  UNL1       -0.3660
     14  H         22.5210  -19.5110  -13.6350 H       1  UNL1        0.1590
     15  H         22.5450  -19.8270  -15.3410 H       1  UNL1        0.1590
     16  O         23.6330  -22.0390  -15.1870 O.2     1  UNL1       -0.2680
     17  C         20.2000  -23.2310   -7.9930 C.2     1  UNL1        0.0350
     18  C         19.1770  -24.1790   -7.8970 C.2     1  UNL1        0.0190
     19  C         18.1140  -23.9810   -7.0110 C.2     1  UNL1        0.0360
     20  C         18.0530  -22.8230   -6.2160 C.2     1  UNL1        0.0960
     21  C         19.0730  -21.8750   -6.3360 C.2     1  UNL1        0.1460
     22  F         19.0800  -20.7420   -5.6240 F       1  UNL1       -0.2040
     23  C         20.1380  -22.0700   -7.2180 C.2     1  UNL1        0.0610
     24  N         16.9590  -22.6520   -5.3240 N.pl3   1  UNL1       -0.2420
     25  C         15.6200  -22.4760   -5.6070 C.2     1  UNL1        0.1200
     26  C         14.9580  -22.3540   -4.4080 C.2     1  UNL1        0.0400
     27  C         15.9630  -22.4640   -3.4410 C.2     1  UNL1        0.1400
     28  N         17.1690  -22.6410   -3.9770 N.2     1  UNL1       -0.1800
@<TRIPOS>BOND
     1    15    13    1
     2    16    12    2
     3    13    12   am
     4    13    14    1
     5    12     8    1
     6     8     9    2
     7     8     6    1
     8     9    10    1
     9     7     6    1
    10     6     5    2
    11    10    11    2
    12     5    11    1
    13     5     1    1
    14     1     4    1
    15     1     2   am
    16     3     2    2
    17     2    17    1
    18    17    18    2
    19    17    23    1
    20    18    19    1
    21    23    21    2
    22    19    20    2
    23    21    20    1
    24    21    22    1
    25    20    24    1
    26    25    24    1
    27    25    26    2
    28    24    28    1
    29    26    27    1
    30    28    27    2
