@<TRIPOS>MOLECULE
46398_out_ligand_01.pdbqt
 28 30 0 0 0
SMALL
GASTEIGER

@<TRIPOS>ATOM
      1  C         20.9130  -23.1670   -7.9530 C.2     1  UNL1        0.2450
      2  O         21.3010  -22.1210   -7.4470 O.2     1  UNL1       -0.2680
      3  N         19.7430  -23.8390   -7.6940 N.am    1  UNL1       -0.3240
      4  H         19.6060  -24.7180   -8.1740 H       1  UNL1        0.1690
      5  C         21.8190  -23.8470   -8.9210 C.2     1  UNL1        0.0750
      6  C         21.9920  -23.6000  -10.2300 C.2     1  UNL1        0.0200
      7  C         21.3500  -22.6130  -11.0320 C.ar    1  UNL1        0.0070
      8  C         19.9710  -22.2600  -10.9910 C.ar    1  UNL1        0.0100
      9  C         18.8410  -22.6620  -10.2520 C.2     1  UNL1        0.0150
     10  C         19.8150  -21.2560  -11.9400 C.ar    1  UNL1        0.0860
     11  C         17.6110  -22.0360  -10.5040 C.2     1  UNL1        0.0010
     12  C         17.4990  -21.0310  -11.4680 C.2     1  UNL1        0.0030
     13  C         18.6080  -20.6160  -12.2130 C.2     1  UNL1        0.0380
     14  O         20.9990  -20.9950  -12.5540 O.2     1  UNL1       -0.3130
     15  C         21.9340  -21.8310  -12.0120 C.ar    1  UNL1        0.0640
     16  C         23.3000  -21.7200  -12.5910 C.3     1  UNL1        0.0610
     17  C         23.2560  -21.1810  -14.0120 C.3     1  UNL1        0.0120
     18  C         18.6840  -23.4320   -6.8590 C.2     1  UNL1        0.0350
     19  C         18.6340  -22.2020   -6.2000 C.2     1  UNL1        0.0300
     20  C         17.5390  -21.8760   -5.3910 C.2     1  UNL1        0.0190
     21  C         16.4740  -22.7690   -5.2420 C.2     1  UNL1        0.0320
     22  C         16.5230  -24.0070   -5.8900 C.2     1  UNL1        0.0190
     23  C         17.6220  -24.3320   -6.6950 C.2     1  UNL1        0.0300
     24  C         15.3320  -22.3740   -4.3770 C.2     1  UNL1        0.2490
     25  N         14.2140  -21.8850   -4.9950 N.am    1  UNL1       -0.3660
     26  H         13.5120  -21.4960   -4.3770 H       1  UNL1        0.1590
     27  H         14.2430  -21.5290   -5.9390 H       1  UNL1        0.1590
     28  O         15.3900  -22.4460   -3.1560 O.2     1  UNL1       -0.2680
@<TRIPOS>BOND
     1    17    16    1
     2    16    15    1
     3    14    15   ar
     4    14    10   ar
     5    13    10    1
     6    13    12    2
     7    15     7   ar
     8    10     8   ar
     9    12    11    1
    10     7     8   ar
    11     7     6    1
    12     8     9    1
    13    11     9    2
    14     6     5    2
    15     5     1    1
    16     4     3    1
    17     1     3   am
    18     1     2    2
    19     3    18    1
    20    18    23    2
    21    18    19    1
    22    23    22    1
    23    19    20    2
    24    27    25    1
    25    22    21    2
    26    20    21    1
    27    21    24    1
    28    25    24   am
    29    25    26    1
    30    24    28    2
