@<TRIPOS>MOLECULE
463_out_ligand_01.pdbqt
 34 37 0 0 0
SMALL
GASTEIGER

@<TRIPOS>ATOM
      1  C         21.1330  -22.0440  -11.1770 C.2     1  UNL1        0.2580
      2  O         20.9870  -21.5010  -12.2640 O.2     1  UNL1       -0.2670
      3  N         22.3300  -22.4480  -10.6210 N.am    1  UNL1       -0.3230
      4  H         22.2800  -22.7570   -9.6600 H       1  UNL1        0.1690
      5  C         23.6160  -22.4120  -11.1980 C.2     1  UNL1        0.0360
      6  C         24.4830  -21.4080  -10.7410 C.2     1  UNL1        0.0290
      7  C         25.7850  -21.2990  -11.2390 C.2     1  UNL1        0.0040
      8  C         26.2340  -22.1940  -12.2040 C.2     1  UNL1        0.0250
      9  C         25.3680  -23.1870  -12.6730 C.2     1  UNL1        0.0820
     10  C         24.0670  -23.3090  -12.1670 C.2     1  UNL1        0.0540
     11  S         25.9690  -24.3520  -13.8680 S.O2    1  UNL1        0.2640
     12  O         27.1200  -25.0080  -13.2760 O.2     1  UNL1       -0.2000
     13  O         24.8740  -25.1350  -14.3930 O.2     1  UNL1       -0.2000
     14  N         26.5970  -23.3970  -15.0780 N.3     1  UNL1       -0.2680
     15  H         27.6080  -23.3180  -15.0150 H       1  UNL1        0.1800
     16  C         25.8910  -22.8130  -16.1230 C.3     1  UNL1        0.1080
     17  N         25.8620  -23.2790  -17.3250 N.3     1  UNL1       -0.2760
     18  C         24.9830  -22.3620  -18.0760 C.3     1  UNL1        0.1510
     19  C         24.9270  -21.0840  -17.2540 C.3     1  UNL1        0.0290
     20  C         25.0780  -21.5940  -15.8410 C.3     1  UNL1        0.0800
     21  C         19.9800  -22.2620  -10.2930 C.2     1  UNL1        0.0560
     22  C         18.6300  -22.3100  -10.7220 C.2     1  UNL1        0.0440
     23  C         17.8200  -22.5120   -9.6230 C.2     1  UNL1        0.0140
     24  C         16.3300  -22.5070   -9.6010 C.3     1  UNL1        0.0680
     25  N         18.6380  -22.6340   -8.5040 N.pl3   1  UNL1       -0.3190
     26  C         19.9690  -22.5320   -8.9240 C.2     1  UNL1        0.0290
     27  C         21.1310  -22.8310   -8.0270 C.3     1  UNL1        0.0700
     28  C         18.1990  -22.8290   -7.1610 C.2     1  UNL1        0.0390
     29  C         18.2250  -21.7580   -6.2550 C.2     1  UNL1        0.0330
     30  C         17.7910  -21.9470   -4.9410 C.2     1  UNL1        0.0440
     31  C         17.3380  -23.1970   -4.5390 C.2     1  UNL1        0.1160
     32  F         16.9250  -23.3760   -3.2780 F       1  UNL1       -0.2060
     33  C         17.3090  -24.2670   -5.4260 C.2     1  UNL1        0.0440
     34  C         17.7390  -24.0850   -6.7420 C.2     1  UNL1        0.0330
@<TRIPOS>BOND
     1    18    17    1
     2    18    19    1
     3    17    16    1
     4    19    20    1
     5    16    20    1
     6    16    14    1
     7    14    15    1
     8    14    11    1
     9    13    11    2
    10    11    12    2
    11    11     9    1
    12     9     8    2
    13     9    10    1
    14     2     1    2
    15     8     7    1
    16    10     5    2
    17     7     6    2
    18     5     6    1
    19     5     3    1
    20     1     3   am
    21     1    21    1
    22    22    21    1
    23    22    23    2
    24     3     4    1
    25    21    26    2
    26    23    24    1
    27    23    25    1
    28    26    25    1
    29    26    27    1
    30    25    28    1
    31    28    34    2
    32    28    29    1
    33    34    33    1
    34    29    30    2
    35    33    31    2
    36    30    31    1
    37    31    32    1
