@<TRIPOS>MOLECULE
46404_out_ligand_01.pdbqt
 35 38 0 0 0
SMALL
GASTEIGER

@<TRIPOS>ATOM
      1  C         21.2500  -21.7340  -12.0090 C.ar    1  UNL1        0.0500
      2  N         21.6050  -21.0240  -13.1290 N.ar    1  UNL1       -0.3540
      3  C         22.9270  -21.2340  -13.4430 C.ar    1  UNL1        0.0430
      4  C         23.6830  -20.7340  -14.5100 C.2     1  UNL1        0.0300
      5  C         25.0230  -21.1190  -14.5960 C.2     1  UNL1        0.0020
      6  C         25.5810  -21.9790  -13.6540 C.2     1  UNL1        0.0010
      7  C         24.8080  -22.4760  -12.5960 C.2     1  UNL1        0.0140
      8  C         23.4520  -22.0900  -12.4720 C.ar    1  UNL1       -0.0010
      9  C         22.3970  -22.3650  -11.5320 C.ar    1  UNL1       -0.0180
     10  H         20.9670  -20.4600  -13.6750 H       1  UNL1        0.1660
     11  C         22.4670  -23.1900  -10.2740 C.3     1  UNL1        0.0510
     12  C         23.0410  -22.4800   -9.0530 C.3     1  UNL1        0.1080
     13  C         21.9950  -22.0910   -8.0140 C.2     1  UNL1        0.2220
     14  O         22.1560  -21.1560   -7.2420 O.2     1  UNL1       -0.2730
     15  N         20.8550  -22.8720   -8.1370 N.am    1  UNL1       -0.3270
     16  H         20.8350  -23.5260   -8.9110 H       1  UNL1        0.1690
     17  C         19.7180  -22.8760   -7.3070 C.2     1  UNL1        0.0340
     18  C         18.9500  -24.0530   -7.2960 C.2     1  UNL1        0.0300
     19  C         17.8190  -24.1650   -6.4780 C.2     1  UNL1        0.0190
     20  C         17.4390  -23.0950   -5.6590 C.2     1  UNL1        0.0320
     21  C         18.2080  -21.9230   -5.6590 C.2     1  UNL1        0.0190
     22  C         19.3370  -21.8110   -6.4860 C.2     1  UNL1        0.0300
     23  C         16.2580  -23.1740   -4.7540 C.2     1  UNL1        0.2490
     24  N         16.0150  -22.1010   -3.9410 N.am    1  UNL1       -0.3660
     25  H         16.6890  -21.3660   -3.7830 H       1  UNL1        0.1590
     26  H         15.2500  -22.1980   -3.2830 H       1  UNL1        0.1590
     27  O         15.5320  -24.1620   -4.7130 O.2     1  UNL1       -0.2680
     28  C         19.8750  -21.7530  -11.5180 C.2     1  UNL1       -0.0090
     29  C         19.3330  -22.9040  -10.9340 C.2     1  UNL1        0.0160
     30  C         18.0050  -22.9090  -10.4950 C.2     1  UNL1        0.0370
     31  C         17.1990  -21.7730  -10.6450 C.2     1  UNL1        0.0680
     32  C         17.7460  -20.6150  -11.1960 C.2     1  UNL1        0.0370
     33  C         19.0770  -20.6080  -11.6300 C.2     1  UNL1        0.0160
     34  O         15.9130  -21.9120  -10.1970 O.2     1  UNL1       -0.3560
     35  C         15.6260  -23.1040   -9.4620 C.3     1  UNL1        0.2100
@<TRIPOS>BOND
     1     5     4    1
     2     5     6    2
     3     4     3    2
     4    10     2    1
     5     6     7    1
     6     3     2   ar
     7     3     8   ar
     8     2     1   ar
     9     7     8    2
    10     8     9   ar
    11     1     9   ar
    12     1    28    1
    13    33    28    2
    14    33    32    1
    15     9    11    1
    16    28    29    1
    17    32    31    2
    18    29    30    2
    19    31    30    1
    20    31    34    1
    21    11    12    1
    22    34    35    1
    23    12    13    1
    24    16    15    1
    25    15    13   am
    26    15    17    1
    27    13    14    2
    28    17    18    2
    29    17    22    1
    30    18    19    1
    31    22    21    2
    32    19    20    2
    33    20    21    1
    34    20    23    1
    35    23    27    2
    36    23    24   am
    37    24    25    1
    38    24    26    1
