@<TRIPOS>MOLECULE
46409_out_ligand_01.pdbqt
 33 37 0 0 0
SMALL
GASTEIGER

@<TRIPOS>ATOM
      1  C         21.4690  -21.8520  -11.5540 C.ar    1  UNL1       -0.0180
      2  C         21.6750  -22.6940  -10.4670 C.ar    1  UNL1        0.0500
      3  N         22.8900  -23.3080  -10.6500 N.ar    1  UNL1       -0.3540
      4  C         23.4790  -22.8870  -11.8190 C.ar    1  UNL1        0.0430
      5  C         24.7040  -23.2500  -12.3900 C.2     1  UNL1        0.0300
      6  C         25.0580  -22.6490  -13.6000 C.2     1  UNL1        0.0020
      7  C         24.2180  -21.7240  -14.2110 C.2     1  UNL1        0.0010
      8  C         22.9950  -21.3750  -13.6290 C.2     1  UNL1        0.0140
      9  C         22.6140  -21.9690  -12.4080 C.ar    1  UNL1       -0.0010
     10  H         23.2950  -23.9830  -10.0190 H       1  UNL1        0.1660
     11  C         20.2790  -20.9740  -11.7870 C.3     1  UNL1        0.0510
     12  C         19.0120  -21.7720  -12.0670 C.3     1  UNL1        0.1070
     13  C         17.8780  -21.2290  -11.2350 C.2     1  UNL1        0.2180
     14  O         17.3740  -20.1300  -11.4370 O.2     1  UNL1       -0.2740
     15  N         17.4490  -22.0900  -10.2490 N.am    1  UNL1       -0.3540
     16  H         17.7580  -23.0560  -10.2830 H       1  UNL1        0.1620
     17  C         16.2250  -21.8280   -9.5290 C.3     1  UNL1        0.2030
     18  C         15.9380  -22.9790   -8.6430 C.ar    1  UNL1        0.1520
     19  N         15.8810  -24.2470   -9.0030 N.ar    1  UNL1       -0.1320
     20  N         15.5560  -24.9950   -7.8930 N.ar    1  UNL1       -0.1300
     21  C         15.4300  -24.1720   -6.8770 C.ar    1  UNL1        0.1570
     22  C         15.1110  -24.3700   -5.5060 C.2     1  UNL1        0.0530
     23  N         15.6820  -22.8730   -7.2950 N.ar    1  UNL1       -0.2900
     24  C         15.0700  -23.3110   -4.6730 C.2     1  UNL1        0.0050
     25  C         15.3550  -21.9620   -5.1420 C.2     1  UNL1        0.0180
     26  C         15.6490  -21.7710   -6.4400 C.2     1  UNL1        0.1000
     27  C         20.8490  -22.9540   -9.2920 C.2     1  UNL1       -0.0090
     28  C         20.1160  -24.1440   -9.1880 C.2     1  UNL1        0.0170
     29  C         19.3150  -24.3820   -8.0680 C.2     1  UNL1        0.0430
     30  C         19.2420  -23.4270   -7.0600 C.2     1  UNL1        0.1160
     31  F         18.4820  -23.6550   -5.9830 F       1  UNL1       -0.2060
     32  C         19.9650  -22.2430   -7.1480 C.2     1  UNL1        0.0430
     33  C         20.7720  -22.0060   -8.2620 C.2     1  UNL1        0.0170
@<TRIPOS>BOND
     1     7     8    2
     2     7     6    1
     3     8     9    1
     4     6     5    2
     5     9     4   ar
     6     9     1   ar
     7     5     4    1
     8    12    11    1
     9    12    13    1
    10     4     3   ar
    11    11     1    1
    12     1     2   ar
    13    14    13    2
    14    13    15   am
    15     3     2   ar
    16     3    10    1
    17     2    27    1
    18    16    15    1
    19    15    17    1
    20    17    18    1
    21    27    28    2
    22    27    33    1
    23    28    29    1
    24    19    18   ar
    25    19    20   ar
    26    18    23   ar
    27    33    32    2
    28    29    30    2
    29    20    21   ar
    30    23    21   ar
    31    23    26    1
    32    32    30    1
    33    30    31    1
    34    21    22    1
    35    26    25    2
    36    22    24    2
    37    25    24    1
