@<TRIPOS>MOLECULE
46417_out_ligand_01.pdbqt
 38 42 0 0 0
SMALL
GASTEIGER

@<TRIPOS>ATOM
      1  C         20.6930  -22.9940  -10.2970 C.2     1  UNL1        0.2560
      2  O         20.8980  -23.9700   -9.5850 O.2     1  UNL1       -0.2670
      3  N         19.5240  -22.2580  -10.3810 N.am    1  UNL1       -0.3230
      4  H         19.4600  -21.5820  -11.1310 H       1  UNL1        0.1690
      5  C         21.7790  -22.5560  -11.2190 C.2     1  UNL1        0.0320
      6  C         21.5260  -21.7260  -12.3170 C.2     1  UNL1        0.0180
      7  C         22.5790  -21.3360  -13.1540 C.2     1  UNL1        0.0170
      8  C         23.8960  -21.7560  -12.9060 C.2     1  UNL1        0.0190
      9  C         24.1380  -22.5720  -11.7910 C.2     1  UNL1        0.0170
     10  C         23.0900  -22.9650  -10.9510 C.2     1  UNL1        0.0180
     11  C         24.9680  -21.3320  -13.7990 C.ar    1  UNL1        0.2030
     12  N         26.0230  -21.9940  -14.2240 N.ar    1  UNL1       -0.1210
     13  N         26.7180  -21.1320  -15.0470 N.ar    1  UNL1       -0.1210
     14  C         26.0430  -19.9990  -15.0740 C.ar    1  UNL1        0.2030
     15  O         24.9110  -20.0580  -14.2950 O.2     1  UNL1       -0.2680
     16  C         26.3040  -18.7390  -15.7770 C.2     1  UNL1        0.0250
     17  C         26.8560  -17.6500  -15.0700 C.2     1  UNL1        0.0160
     18  C         27.1210  -16.4310  -15.6970 C.2     1  UNL1        0.0010
     19  C         26.8400  -16.2720  -17.0480 C.2     1  UNL1        0.0010
     20  C         26.2940  -17.3320  -17.7700 C.2     1  UNL1        0.0070
     21  C         26.0210  -18.5680  -17.1530 C.2     1  UNL1       -0.0470
     22  C         25.4310  -19.6640  -18.0010 C.3     1  UNL1        0.0490
     23  C         18.3580  -22.4100   -9.6000 C.2     1  UNL1        0.0350
     24  C         17.1320  -22.2310  -10.2460 C.2     1  UNL1        0.0290
     25  C         15.9370  -22.3670   -9.5440 C.2     1  UNL1        0.0030
     26  C         15.9580  -22.6760   -8.1840 C.2     1  UNL1        0.0100
     27  C         17.1740  -22.8460   -7.4960 C.2     1  UNL1       -0.0190
     28  C         18.3680  -22.7130   -8.2330 C.2     1  UNL1        0.0390
     29  C         17.1760  -23.1930   -6.0100 C.3     1  UNL1        0.1390
     30  C         17.8650  -24.5020   -5.6060 C.3     1  UNL1        0.0540
     31  N         15.8180  -23.1880   -5.4940 N.am    1  UNL1       -0.3210
     32  C         15.6350  -22.2730   -4.4900 C.2     1  UNL1        0.3240
     33  H         15.0470  -23.7150   -5.8820 H       1  UNL1        0.1650
     34  O         14.5770  -22.0420   -3.9360 O.2     1  UNL1       -0.2470
     35  N         16.8130  -21.6530   -4.2490 N.am    1  UNL1       -0.2770
     36  C         17.7690  -22.0660   -5.1280 C.2     1  UNL1        0.2580
     37  H         16.9310  -20.9060   -3.5860 H       1  UNL1        0.1730
     38  O         18.9020  -21.6100   -5.1780 O.2     1  UNL1       -0.2700
@<TRIPOS>BOND
     1    22    21    1
     2    20    21    1
     3    20    19    2
     4    21    16    2
     5    19    18    1
     6    16    14    1
     7    16    17    1
     8    18    17    2
     9    14    13   ar
    10    14    15   ar
    11    13    12   ar
    12    15    11   ar
    13    12    11   ar
    14    11     8    1
    15     7     8    2
    16     7     6    1
    17     8     9    1
    18     6     5    2
    19     9    10    2
    20     5    10    1
    21     5     1    1
    22     4     3    1
    23     3     1   am
    24     3    23    1
    25     1     2    2
    26    24    23    2
    27    24    25    1
    28    23    28    1
    29    25    26    2
    30    28    27    2
    31    26    27    1
    32    27    29    1
    33    29    30    1
    34    29    31    1
    35    29    36    1
    36    33    31    1
    37    31    32   am
    38    38    36    2
    39    36    35   am
    40    32    35   am
    41    32    34    2
    42    35    37    1
