@<TRIPOS>MOLECULE
46410_out_ligand_01.pdbqt
 35 38 0 0 0
SMALL
GASTEIGER

@<TRIPOS>ATOM
      1  C         19.4750  -23.0090   -9.8650 C.2     1  UNL1        0.0330
      2  C         18.9720  -22.1740  -10.8730 C.2     1  UNL1        0.0170
      3  C         17.6290  -21.7900  -10.8680 C.2     1  UNL1        0.0030
      4  C         16.7850  -22.2240   -9.8460 C.2     1  UNL1        0.0250
      5  C         17.3000  -23.0240   -8.8220 C.2     1  UNL1        0.0750
      6  C         18.6380  -23.4310   -8.8270 C.2     1  UNL1        0.0410
      7  C         20.9070  -23.4050   -9.9210 C.2     1  UNL1        0.2510
      8  O         21.3360  -24.2560   -9.1510 O.2     1  UNL1       -0.2680
      9  N         21.6810  -22.7380  -10.8480 N.am    1  UNL1       -0.3530
     10  H         21.3140  -21.8950  -11.2720 H       1  UNL1        0.1630
     11  C         23.1210  -22.8870  -10.8640 C.3     1  UNL1        0.1610
     12  C         23.6740  -22.5420  -12.2210 C.2     1  UNL1       -0.0400
     13  C         23.0130  -21.6400  -13.0580 C.2     1  UNL1        0.0110
     14  C         23.5530  -21.2930  -14.3040 C.2     1  UNL1        0.0300
     15  C         24.7670  -21.8300  -14.7490 C.2     1  UNL1        0.0370
     16  C         25.4250  -22.7310  -13.8970 C.2     1  UNL1        0.0300
     17  C         24.8910  -23.0790  -12.6500 C.2     1  UNL1        0.0110
     18  N         25.3270  -21.4810  -16.0100 N.am    1  UNL1       -0.3180
     19  C         25.8590  -20.1670  -16.2890 C.3     1  UNL1        0.1330
     20  C         25.9880  -20.1300  -17.7970 C.3     1  UNL1        0.0290
     21  C         26.3030  -21.5690  -18.1520 C.3     1  UNL1        0.1050
     22  C         25.5740  -22.3530  -17.0850 C.2     1  UNL1        0.2240
     23  O         25.3230  -23.5450  -17.1970 O.2     1  UNL1       -0.2730
     24  S         16.2400  -23.5730   -7.5050 S.O2    1  UNL1        0.2460
     25  O         15.5790  -24.7750   -7.9760 O.2     1  UNL1       -0.2060
     26  O         15.4870  -22.4400   -7.0130 O.2     1  UNL1       -0.2060
     27  N         17.3620  -24.0780   -6.3340 N.pl3   1  UNL1       -0.1780
     28  H         17.0210  -24.9490   -5.9170 H       1  UNL1        0.1460
     29  C         17.7840  -23.0870   -5.3900 C.2     1  UNL1        0.0610
     30  C         18.5890  -22.0220   -5.7910 C.2     1  UNL1        0.0270
     31  C         18.9330  -21.0290   -4.8700 C.2     1  UNL1        0.0020
     32  C         18.4660  -21.0960   -3.5530 C.2     1  UNL1        0.0030
     33  C         17.6550  -22.1580   -3.1530 C.2     1  UNL1        0.0440
     34  C         17.3150  -23.1430   -4.0740 C.2     1  UNL1        0.1380
     35  F         16.5370  -24.1670   -3.6850 F       1  UNL1       -0.2040
@<TRIPOS>BOND
     1    21    20    1
     2    21    22    1
     3    20    19    1
     4    23    22    2
     5    22    18   am
     6    19    18    1
     7    18    15    1
     8    15    14    2
     9    15    16    1
    10    14    13    1
    11    16    17    2
    12    13    12    2
    13    17    12    1
    14    12    11    1
    15    10     9    1
    16     2     3    1
    17     2     1    2
    18     3     4    2
    19    11     9    1
    20     9     7   am
    21     7     1    1
    22     7     8    2
    23     1     6    1
    24     4     5    1
    25     6     5    2
    26     5    24    1
    27    25    24    2
    28    24    26    2
    29    24    27    1
    30    27    28    1
    31    27    29    1
    32    30    29    2
    33    30    31    1
    34    29    34    1
    35    31    32    2
    36    34    35    1
    37    34    33    2
    38    32    33    1
