@<TRIPOS>MOLECULE
46421_out_ligand_01.pdbqt
 34 38 0 0 0
SMALL
GASTEIGER

@<TRIPOS>ATOM
      1  C         21.4520  -21.8460  -11.5440 C.ar    1  UNL1       -0.0180
      2  C         21.6510  -22.6770  -10.4500 C.ar    1  UNL1        0.0500
      3  N         22.8560  -23.3120  -10.6310 N.ar    1  UNL1       -0.3540
      4  C         23.4540  -22.9090  -11.8010 C.ar    1  UNL1        0.0430
      5  C         24.6760  -23.2950  -12.3680 C.2     1  UNL1        0.0330
      6  C         25.0370  -22.7070  -13.5820 C.2     1  UNL1        0.0440
      7  C         24.2050  -21.7740  -14.1880 C.2     1  UNL1        0.1170
      8  F         24.5830  -21.2120  -15.3490 F       1  UNL1       -0.2060
      9  C         22.9880  -21.3990  -13.6180 C.2     1  UNL1        0.0560
     10  C         22.6000  -21.9820  -12.3950 C.ar    1  UNL1        0.0020
     11  H         23.2430  -23.9950   -9.9950 H       1  UNL1        0.1660
     12  C         20.2700  -20.9580  -11.7920 C.3     1  UNL1        0.0510
     13  C         18.9970  -21.7530  -12.0660 C.3     1  UNL1        0.1070
     14  C         17.8300  -21.2100  -11.2700 C.2     1  UNL1        0.2180
     15  O         17.3480  -20.0950  -11.4410 O.2     1  UNL1       -0.2740
     16  N         17.3700  -22.0860  -10.3140 N.am    1  UNL1       -0.3540
     17  H         17.6670  -23.0540  -10.3560 H       1  UNL1        0.1620
     18  C         16.1790  -21.8080   -9.5420 C.3     1  UNL1        0.2030
     19  C         15.9190  -22.9560   -8.6410 C.ar    1  UNL1        0.1520
     20  N         15.8710  -24.2280   -9.0070 N.ar    1  UNL1       -0.1320
     21  N         15.5950  -24.9830   -7.8920 N.ar    1  UNL1       -0.1300
     22  C         15.4900  -24.1690   -6.8660 C.ar    1  UNL1        0.1570
     23  C         15.2190  -24.3890   -5.4870 C.2     1  UNL1        0.0530
     24  N         15.6740  -22.8590   -7.2870 N.ar    1  UNL1       -0.2900
     25  C         15.1420  -23.3370   -4.6490 C.2     1  UNL1        0.0050
     26  C         15.3430  -21.9750   -5.1210 C.2     1  UNL1        0.0180
     27  C         15.6020  -21.7660   -6.4240 C.2     1  UNL1        0.1000
     28  C         20.8280  -22.9230   -9.2740 C.2     1  UNL1       -0.0090
     29  C         20.7900  -21.9830   -8.2340 C.2     1  UNL1        0.0170
     30  C         19.9990  -22.2160   -7.1070 C.2     1  UNL1        0.0430
     31  C         19.2560  -23.3890   -7.0240 C.2     1  UNL1        0.1160
     32  F         18.5020  -23.6150   -5.9390 F       1  UNL1       -0.2060
     33  C         19.2840  -24.3320   -8.0450 C.2     1  UNL1        0.0430
     34  C         20.0710  -24.0980   -9.1750 C.2     1  UNL1        0.0170
@<TRIPOS>BOND
     1     8     7    1
     2     7     9    2
     3     7     6    1
     4     9    10    1
     5     6     5    2
     6    10     4   ar
     7    10     1   ar
     8     5     4    1
     9    13    12    1
    10    13    14    1
    11     4     3   ar
    12    12     1    1
    13     1     2   ar
    14    15    14    2
    15    14    16   am
    16     3     2   ar
    17     3    11    1
    18     2    28    1
    19    17    16    1
    20    16    18    1
    21    18    19    1
    22    28    34    2
    23    28    29    1
    24    34    33    1
    25    20    19   ar
    26    20    21   ar
    27    19    24   ar
    28    29    30    2
    29    33    31    2
    30    21    22   ar
    31    24    22   ar
    32    24    27    1
    33    30    31    1
    34    31    32    1
    35    22    23    1
    36    27    26    2
    37    23    25    2
    38    26    25    1
