@<TRIPOS>MOLECULE
46420_out_ligand_01.pdbqt
 33 36 0 0 0
SMALL
GASTEIGER

@<TRIPOS>ATOM
      1  C         17.0190  -22.7670   -9.7410 C.2     1  UNL1        0.2450
      2  O         16.5480  -21.6580   -9.9420 O.2     1  UNL1       -0.2680
      3  N         18.2900  -23.2160  -10.0310 N.am    1  UNL1       -0.3240
      4  H         18.5170  -24.1660   -9.7640 H       1  UNL1        0.1690
      5  C         19.3140  -22.5080  -10.6920 C.2     1  UNL1        0.0360
      6  C         19.0890  -21.5510  -11.6850 C.2     1  UNL1        0.0290
      7  C         20.1600  -20.8950  -12.3030 C.2     1  UNL1        0.0040
      8  C         21.4710  -21.1840  -11.9270 C.2     1  UNL1        0.0250
      9  C         21.6970  -22.1290  -10.9250 C.2     1  UNL1        0.0820
     10  C         20.6300  -22.8030  -10.3220 C.2     1  UNL1        0.0540
     11  S         23.3580  -22.5340  -10.4570 S.O2    1  UNL1        0.2640
     12  O         23.2810  -23.5150   -9.3930 O.2     1  UNL1       -0.2000
     13  O         24.1130  -21.3130  -10.2800 O.2     1  UNL1       -0.2000
     14  N         23.9370  -23.3670  -11.7760 N.3     1  UNL1       -0.2680
     15  H         23.5140  -24.2860  -11.8610 H       1  UNL1        0.1800
     16  C         24.8930  -22.9320  -12.6870 C.3     1  UNL1        0.1080
     17  N         26.1670  -23.0340  -12.5120 N.3     1  UNL1       -0.2760
     18  C         26.7690  -22.4580  -13.7330 C.3     1  UNL1        0.1510
     19  C         25.6910  -21.5780  -14.3420 C.3     1  UNL1        0.0290
     20  C         24.4230  -22.2980  -13.9560 C.3     1  UNL1        0.0800
     21  C         16.2190  -23.8260   -9.0770 C.2     1  UNL1        0.0750
     22  C         16.0690  -23.9340   -7.7480 C.2     1  UNL1        0.0200
     23  C         16.5480  -23.0520   -6.7350 C.ar    1  UNL1        0.0070
     24  C         17.8490  -22.4880   -6.5710 C.ar    1  UNL1        0.0100
     25  C         19.0850  -22.5480   -7.2460 C.2     1  UNL1        0.0150
     26  C         17.7630  -21.6780   -5.4430 C.ar    1  UNL1        0.0860
     27  C         20.1720  -21.8150   -6.7470 C.2     1  UNL1        0.0010
     28  C         20.0410  -21.0230   -5.6050 C.2     1  UNL1        0.0030
     29  C         18.8230  -20.9360   -4.9250 C.2     1  UNL1        0.0380
     30  O         16.5030  -21.7040   -4.9300 O.2     1  UNL1       -0.3130
     31  C         15.7640  -22.5360   -5.7180 C.ar    1  UNL1        0.0640
     32  C         14.3430  -22.7060   -5.3190 C.3     1  UNL1        0.0610
     33  C         13.5150  -21.4800   -5.6660 C.3     1  UNL1        0.0120
@<TRIPOS>BOND
     1    19    20    1
     2    19    18    1
     3    20    16    1
     4    18    17    1
     5    16    17    1
     6    16    14    1
     7     7     8    2
     8     7     6    1
     9     8     9    1
    10    15    14    1
    11    14    11    1
    12     6     5    2
    13     9    11    1
    14     9    10    2
    15     5    10    1
    16     5     3    1
    17    11    13    2
    18    11    12    2
    19     3     4    1
    20     3     1   am
    21     2     1    2
    22     1    21    1
    23    21    22    2
    24    22    23    1
    25    25    27    1
    26    25    24    2
    27    27    28    2
    28    23    24   ar
    29    23    31   ar
    30    24    26   ar
    31    31    32    1
    32    31    30   ar
    33    33    32    1
    34    28    29    1
    35    26    30   ar
    36    26    29    2
