@<TRIPOS>MOLECULE
46424_out_ligand_01.pdbqt
 30 33 0 0 0
SMALL
GASTEIGER

@<TRIPOS>ATOM
      1  C         21.9300  -21.8870  -10.0390 C.ar    1  UNL1       -0.0180
      2  C         20.9190  -21.9320  -10.9920 C.ar    1  UNL1        0.0500
      3  N         21.5240  -22.0070  -12.2250 N.ar    1  UNL1       -0.3540
      4  C         22.8910  -22.0020  -12.1040 C.ar    1  UNL1        0.0430
      5  C         23.8830  -22.0580  -13.0930 C.2     1  UNL1        0.0330
      6  C         25.2150  -22.0320  -12.6720 C.2     1  UNL1        0.0440
      7  C         25.5240  -21.9550  -11.3200 C.2     1  UNL1        0.1170
      8  F         26.8100  -21.9300  -10.9450 F       1  UNL1       -0.2060
      9  C         24.5310  -21.9000  -10.3430 C.2     1  UNL1        0.0560
     10  C         23.1800  -21.9260  -10.7430 C.ar    1  UNL1        0.0020
     11  H         21.0270  -22.0710  -13.1020 H       1  UNL1        0.1660
     12  C         21.7630  -21.7830   -8.5500 C.3     1  UNL1        0.0510
     13  C         20.7200  -22.7660   -8.0240 C.3     1  UNL1        0.1070
     14  C         19.9200  -22.1740   -6.8770 C.2     1  UNL1        0.2200
     15  N         18.7860  -22.8750   -6.4770 N.am    1  UNL1       -0.3500
     16  C         18.4460  -24.2070   -6.9620 C.3     1  UNL1        0.1530
     17  O         20.2600  -21.1190   -6.3390 O.2     1  UNL1       -0.2730
     18  C         18.1030  -22.4280   -5.2650 C.3     1  UNL1        0.1900
     19  C         16.6820  -22.8650   -5.2920 C.2     1  UNL1        0.0700
     20  C         15.5910  -22.4860   -6.0490 C.2     1  UNL1        0.0360
     21  C         14.5000  -23.2650   -5.5960 C.2     1  UNL1        0.0270
     22  C         14.9930  -24.0670   -4.5940 C.2     1  UNL1        0.1420
     23  O         16.3160  -23.8320   -4.3990 O.2     1  UNL1       -0.3250
     24  C         19.4660  -21.9130  -10.8550 C.2     1  UNL1       -0.0090
     25  C         18.7880  -23.0210  -10.3290 C.2     1  UNL1        0.0170
     26  C         17.3980  -22.9990  -10.1960 C.2     1  UNL1        0.0430
     27  C         16.6890  -21.8710  -10.5910 C.2     1  UNL1        0.1160
     28  F         15.3570  -21.8510  -10.4630 F       1  UNL1       -0.2060
     29  C         17.3440  -20.7630  -11.1160 C.2     1  UNL1        0.0430
     30  C         18.7330  -20.7830  -11.2500 C.2     1  UNL1        0.0170
@<TRIPOS>BOND
     1    11     3    1
     2     5     6    1
     3     5     4    2
     4     6     7    2
     5     3     4   ar
     6     3     2   ar
     7     4    10   ar
     8     7     8    1
     9     7     9    1
    10    30    29    1
    11    30    24    2
    12    29    27    2
    13     2    24    1
    14     2     1   ar
    15    24    25    1
    16    10     9    2
    17    10     1   ar
    18    27    28    1
    19    27    26    1
    20    25    26    2
    21     1    12    1
    22    12    13    1
    23    13    14    1
    24    16    15    1
    25    14    15   am
    26    14    17    2
    27    15    18    1
    28    20    21    1
    29    20    19    2
    30    21    22    2
    31    19    18    1
    32    19    23    1
    33    22    23    1
