@<TRIPOS>MOLECULE
46430_out_ligand_01.pdbqt
 32 34 0 0 0
SMALL
GASTEIGER

@<TRIPOS>ATOM
      1  C         20.5000  -22.8020   -8.5110 C.2     1  UNL1        0.2240
      2  O         21.3190  -22.1170   -7.9150 O.2     1  UNL1       -0.2730
      3  N         20.5690  -23.1520   -9.8570 N.am    1  UNL1       -0.3270
      4  H         19.8490  -23.7690  -10.2090 H       1  UNL1        0.1690
      5  C         19.3000  -23.4530   -7.8320 C.3     1  UNL1        0.1340
      6  C         18.0810  -22.5450   -7.5490 C.2     1  UNL1        0.1340
      7  C         18.0480  -22.1050   -6.0910 C.2     1  UNL1       -0.0240
      8  C         19.0330  -21.2540   -5.5630 C.3     1  UNL1        0.0100
      9  C         17.0310  -22.5820   -5.2510 C.2     1  UNL1       -0.0260
     10  C         19.0110  -20.9010   -4.2140 C.2     1  UNL1        0.0010
     11  C         18.0090  -21.3930   -3.3810 C.2     1  UNL1        0.0010
     12  C         17.0210  -22.2310   -3.8980 C.2     1  UNL1        0.0120
     13  C         15.9850  -23.4280   -5.8150 C.2     1  UNL1        0.0290
     14  C         15.8950  -23.6220   -7.1370 C.2     1  UNL1        0.0950
     15  N         16.7950  -23.0950   -8.0580 N.am    1  UNL1       -0.3190
     16  C         16.4630  -23.1600   -9.4170 C.2     1  UNL1        0.2200
     17  C         17.3220  -22.3840  -10.3880 C.3     1  UNL1        0.1170
     18  O         15.4830  -23.7730   -9.8510 O.2     1  UNL1       -0.2730
     19  C         21.5430  -22.7550  -10.7970 C.2     1  UNL1        0.0340
     20  C         22.8780  -23.1670  -10.7660 C.2     1  UNL1        0.0310
     21  C         23.7820  -22.7280  -11.7400 C.2     1  UNL1        0.0270
     22  C         23.3500  -21.8620  -12.7460 C.2     1  UNL1        0.0790
     23  C         22.0210  -21.4440  -12.7970 C.2     1  UNL1        0.0270
     24  C         21.1240  -21.8900  -11.8210 C.2     1  UNL1        0.0310
     25  S         24.5040  -21.3200  -13.9800 S.O2    1  UNL1        0.2590
     26  O         24.3690  -19.8860  -14.1060 O.2     1  UNL1       -0.2010
     27  O         25.7820  -21.9480  -13.7280 O.2     1  UNL1       -0.2010
     28  N         23.8590  -21.9820  -15.3730 N.3     1  UNL1       -0.3110
     29  H         22.8820  -21.7520  -15.5440 H       1  UNL1        0.1720
     30  C         24.7250  -22.4010  -16.4760 C.3     1  UNL1        0.0850
     31  C         25.0200  -21.2020  -17.3670 C.3     1  UNL1        0.0320
     32  C         24.0080  -23.4980  -17.2550 C.3     1  UNL1        0.0320
@<TRIPOS>BOND
     1    31    30    1
     2    32    30    1
     3    30    28    1
     4    29    28    1
     5    28    25    1
     6    26    25    2
     7    25    27    2
     8    25    22    1
     9    23    22    2
    10    23    24    1
    11    22    21    1
    12    24    19    2
    13    21    20    2
    14    19    20    1
    15    19     3    1
    16    17    16    1
    17     4     3    1
    18     3     1   am
    19    18    16    2
    20    16    15   am
    21     1     2    2
    22     1     5    1
    23    15     6    1
    24    15    14    1
    25     5     6    1
    26     6     7    2
    27    14    13    2
    28     7     8    1
    29     7     9    1
    30    13     9    1
    31     8    10    1
    32     9    12    2
    33    10    11    2
    34    12    11    1
