@<TRIPOS>MOLECULE
46442_out_ligand_01.pdbqt
 31 34 0 0 0
SMALL
GASTEIGER

@<TRIPOS>ATOM
      1  C         24.0100  -22.1180  -13.2300 C.2     1  UNL1        0.0540
      2  C         25.0720  -21.9710  -14.1370 C.2     1  UNL1        0.0190
      3  C         26.2620  -22.6760  -13.9410 C.2     1  UNL1        0.0010
      4  C         26.4010  -23.5210  -12.8410 C.2     1  UNL1        0.0020
      5  C         25.3530  -23.6650  -11.9300 C.2     1  UNL1        0.0250
      6  C         24.1610  -22.9600  -12.1140 C.2     1  UNL1        0.0380
      7  N         23.0770  -23.1990  -11.2010 N.pl3   1  UNL1       -0.1800
      8  H         22.7880  -24.1890  -11.1670 H       1  UNL1        0.1460
      9  S         23.3230  -22.6860   -9.5990 S.O2    1  UNL1        0.2450
     10  O         23.4600  -21.2440   -9.5730 O.2     1  UNL1       -0.2060
     11  O         24.3360  -23.5470   -9.0290 O.2     1  UNL1       -0.2060
     12  C         21.7850  -23.1240   -8.8270 C.2     1  UNL1        0.0750
     13  C         21.2180  -24.3710   -9.0980 C.2     1  UNL1        0.0260
     14  C         20.0080  -24.7180   -8.4970 C.2     1  UNL1        0.0140
     15  C         19.3600  -23.8300   -7.6220 C.2     1  UNL1       -0.0260
     16  C         18.1410  -24.1660   -7.0150 C.2     1  UNL1        0.0120
     17  C         19.9480  -22.5720   -7.3430 C.2     1  UNL1       -0.0250
     18  C         17.5080  -23.2760   -6.1450 C.2     1  UNL1        0.0010
     19  C         18.0860  -22.0400   -5.8700 C.2     1  UNL1        0.0010
     20  C         19.2980  -21.6910   -6.4650 C.2     1  UNL1        0.0120
     21  C         21.1660  -22.2300   -7.9480 C.2     1  UNL1        0.0370
     22  C         22.7490  -21.3540  -13.4170 C.2     1  UNL1        0.2530
     23  O         22.6320  -20.5980  -14.3790 O.2     1  UNL1       -0.2680
     24  N         21.7760  -21.5280  -12.4580 N.am    1  UNL1       -0.3540
     25  H         22.0610  -21.8910  -11.5550 H       1  UNL1        0.1620
     26  C         20.6100  -20.6610  -12.4200 C.3     1  UNL1        0.1550
     27  C         19.6570  -21.0760  -11.3020 C.3     1  UNL1        0.1390
     28  C         19.2450  -22.5360  -11.3770 C.3     1  UNL1        0.0350
     29  C         17.9070  -22.5110  -10.6810 C.3     1  UNL1        0.0290
     30  C         17.3280  -21.1990  -11.1640 C.3     1  UNL1        0.1680
     31  O         18.4350  -20.3080  -11.3780 O.3     1  UNL1       -0.3840
@<TRIPOS>BOND
     1    23    22    2
     2     2     3    1
     3     2     1    2
     4     3     4    2
     5    22     1    1
     6    22    24   am
     7     1     6    1
     8     4     5    1
     9    24    26    1
    10    24    25    1
    11    26    27    1
    12     6     5    2
    13     6     7    1
    14    31    27    1
    15    31    30    1
    16    28    27    1
    17    28    29    1
    18     7     8    1
    19     7     9    1
    20    30    29    1
    21     9    10    2
    22     9    11    2
    23     9    12    1
    24    13    12    2
    25    13    14    1
    26    12    21    1
    27    14    15    2
    28    21    17    2
    29    15    17    1
    30    15    16    1
    31    17    20    1
    32    16    18    2
    33    20    19    2
    34    18    19    1
