@<TRIPOS>MOLECULE
46452_out_ligand_01.pdbqt
 27 29 0 0 0
SMALL
GASTEIGER

@<TRIPOS>ATOM
      1  C         17.2690  -22.6080   -7.4820 C.2     1  UNL1       -0.0190
      2  C         16.0520  -22.7920   -8.1550 C.2     1  UNL1        0.0100
      3  C         16.0150  -22.9070   -9.5460 C.2     1  UNL1        0.0030
      4  C         17.1910  -22.8380  -10.2950 C.2     1  UNL1        0.0290
      5  C         18.4150  -22.6520   -9.6600 C.2     1  UNL1        0.0350
      6  C         18.4430  -22.5370   -8.2620 C.2     1  UNL1        0.0390
      7  N         19.6540  -22.5860  -10.3350 N.am    1  UNL1       -0.3230
      8  C         20.0900  -21.5900  -11.1880 C.2     1  UNL1        0.2560
      9  O         19.5180  -20.5390  -11.4480 O.2     1  UNL1       -0.2670
     10  H         20.3070  -23.3270  -10.1190 H       1  UNL1        0.1690
     11  C         21.4250  -21.8360  -11.8060 C.2     1  UNL1        0.0320
     12  C         22.3260  -22.6760  -11.1390 C.2     1  UNL1        0.0180
     13  C         23.5880  -22.9290  -11.6830 C.2     1  UNL1        0.0200
     14  C         23.9500  -22.3330  -12.8900 C.2     1  UNL1        0.0110
     15 BR         25.6570  -22.6730  -13.6270 Br      1  UNL1       -0.0510
     16  C         23.0680  -21.4810  -13.5530 C.2     1  UNL1        0.0200
     17  C         21.8040  -21.2260  -13.0100 C.2     1  UNL1        0.0180
     18  C         17.3490  -22.4630   -5.9660 C.3     1  UNL1        0.1390
     19  C         18.6700  -21.8380   -5.5150 C.3     1  UNL1        0.0540
     20  N         16.2350  -21.7260   -5.4000 N.am    1  UNL1       -0.3210
     21  C         15.4930  -22.4680   -4.5190 C.2     1  UNL1        0.3240
     22  H         16.0380  -20.7450   -5.5500 H       1  UNL1        0.1650
     23  O         14.5430  -22.0510   -3.8830 O.2     1  UNL1       -0.2470
     24  N         16.0090  -23.7150   -4.4600 N.am    1  UNL1       -0.2770
     25  C         17.1270  -23.8090   -5.2290 C.2     1  UNL1        0.2580
     26  H         15.6610  -24.4390   -3.8560 H       1  UNL1        0.1730
     27  O         17.8370  -24.8050   -5.2910 O.2     1  UNL1       -0.2700
@<TRIPOS>BOND
     1    15    14    1
     2    16    17    1
     3    16    14    2
     4    17    11    2
     5    14    13    1
     6    11     8    1
     7    11    12    1
     8    13    12    2
     9     9     8    2
    10     8     7   am
    11     7    10    1
    12     7     5    1
    13     4     5    2
    14     4     3    1
    15     5     6    1
    16     3     2    2
    17     6     1    2
    18     2     1    1
    19     1    18    1
    20    18    19    1
    21    18    20    1
    22    18    25    1
    23    22    20    1
    24    20    21   am
    25    27    25    2
    26    25    24   am
    27    21    24   am
    28    21    23    2
    29    24    26    1
