@<TRIPOS>MOLECULE
4646_out_ligand_01.pdbqt
 36 40 0 0 0
SMALL
GASTEIGER

@<TRIPOS>ATOM
      1  C         18.5710  -20.8870  -11.0940 C.ar    1  UNL1        0.1960
      2  N         17.3720  -20.4340  -11.3650 N.ar    1  UNL1       -0.1220
      3  N         16.4710  -21.2570  -10.7560 N.ar    1  UNL1       -0.1320
      4  C         17.1340  -22.2040  -10.1150 C.ar    1  UNL1        0.1480
      5  N         18.5040  -21.9900  -10.2570 N.ar    1  UNL1       -0.2740
      6  C         16.4780  -23.2570   -9.2810 C.3     1  UNL1        0.1730
      7  N         17.2070  -23.6060   -8.0660 N.pl3   1  UNL1       -0.2850
      8  H         18.1530  -23.2290   -8.0750 H       1  UNL1        0.1280
      9  C         16.6400  -23.4310   -6.7910 C.2     1  UNL1        0.0190
     10  C         15.4650  -24.0910   -6.3980 C.2     1  UNL1        0.0240
     11  C         14.9220  -23.9090   -5.1270 C.2     1  UNL1        0.0030
     12  C         15.5540  -23.0750   -4.2120 C.2     1  UNL1        0.0120
     13  C         16.7470  -22.4260   -4.5450 C.2     1  UNL1       -0.0240
     14  C         17.3880  -21.6060   -3.6010 C.2     1  UNL1        0.0120
     15  C         17.3140  -22.6090   -5.8340 C.2     1  UNL1       -0.0050
     16  C         18.5920  -20.9700   -3.9000 C.2     1  UNL1        0.0010
     17  C         19.1750  -21.1550   -5.1460 C.2     1  UNL1        0.0010
     18  C         18.5470  -21.9640   -6.0950 C.2     1  UNL1        0.0140
     19  C         19.5800  -22.7020   -9.6610 C.2     1  UNL1        0.0430
     20  C         20.5100  -22.0190   -8.8630 C.2     1  UNL1        0.0300
     21  C         21.5690  -22.7090   -8.2700 C.2     1  UNL1        0.0020
     22  C         21.7060  -24.0800   -8.4680 C.2     1  UNL1        0.0000
     23  C         20.7860  -24.7640   -9.2600 C.2     1  UNL1        0.0020
     24  C         19.7240  -24.0790   -9.8570 C.2     1  UNL1        0.0300
     25  S         19.9800  -20.2750  -11.9040 S.3     1  UNL1       -0.0800
     26  C         20.7340  -21.7960  -12.5460 C.3     1  UNL1        0.1850
     27  C         22.2440  -21.7330  -12.7340 C.2     1  UNL1        0.2310
     28  O         22.7100  -21.0790  -13.6650 O.2     1  UNL1       -0.2720
     29  N         22.9660  -22.4900  -11.8330 N.am    1  UNL1       -0.3270
     30  H         22.4600  -22.8050  -11.0100 H       1  UNL1        0.1690
     31  C         24.3600  -22.6960  -11.8040 C.2     1  UNL1        0.0340
     32  C         25.2310  -22.0190  -10.9490 C.2     1  UNL1        0.0290
     33  C         26.6060  -22.2700  -10.9940 C.2     1  UNL1        0.0020
     34  C         27.1210  -23.1990  -11.8960 C.2     1  UNL1        0.0000
     35  C         26.2610  -23.8780  -12.7540 C.2     1  UNL1        0.0020
     36  C         24.8880  -23.6260  -12.7100 C.2     1  UNL1        0.0290
@<TRIPOS>BOND
     1    28    27    2
     2    35    36    1
     3    35    34    2
     4    27    26    1
     5    27    29   am
     6    36    31    2
     7    26    25    1
     8    25     1    1
     9    34    33    1
    10    29    31    1
    11    29    30    1
    12    31    32    1
    13     2     1   ar
    14     2     3   ar
    15     1     5   ar
    16    33    32    2
    17     3     4   ar
    18     5     4   ar
    19     5    19    1
    20     4     6    1
    21    24    19    2
    22    24    23    1
    23    19    20    1
    24     6     7    1
    25    23    22    2
    26    20    21    2
    27    22    21    1
    28     8     7    1
    29     7     9    1
    30     9    10    2
    31     9    15    1
    32    10    11    1
    33    18    15    1
    34    18    17    2
    35    15    13    2
    36    17    16    1
    37    11    12    2
    38    13    12    1
    39    13    14    1
    40    16    14    2
