@<TRIPOS>MOLECULE
46462_out_ligand_01.pdbqt
 34 37 0 0 0
SMALL
GASTEIGER

@<TRIPOS>ATOM
      1  C         20.7120  -23.2460   -9.4260 C.2     1  UNL1        0.0320
      2  C         19.8020  -22.4260  -10.1070 C.2     1  UNL1        0.0180
      3  C         18.4420  -22.4700   -9.7960 C.2     1  UNL1        0.0260
      4  C         17.9950  -23.3410   -8.7980 C.2     1  UNL1        0.0790
      5  C         18.8970  -24.1380   -8.0870 C.2     1  UNL1        0.0260
      6  C         20.2570  -24.0910   -8.4020 C.2     1  UNL1        0.0180
      7  C         22.1550  -23.1650   -9.7940 C.2     1  UNL1        0.2560
      8  O         22.9450  -23.8870   -9.1980 O.2     1  UNL1       -0.2670
      9  N         22.4560  -22.2280  -10.7660 N.am    1  UNL1       -0.3230
     10  H         21.7090  -21.6130  -11.0600 H       1  UNL1        0.1690
     11  C         23.7200  -21.9590  -11.3370 C.2     1  UNL1        0.0370
     12  C         24.6860  -21.3910  -10.5040 C.2     1  UNL1        0.0290
     13  C         25.9530  -21.0940  -11.0000 C.2     1  UNL1        0.0040
     14  C         26.2640  -21.3600  -12.3360 C.2     1  UNL1        0.0300
     15  C         25.3190  -21.9240  -13.2000 C.2     1  UNL1        0.0390
     16  C         24.0440  -22.2140  -12.6760 C.2     1  UNL1        0.0590
     17  N         25.6210  -22.2010  -14.5630 N.am    1  UNL1       -0.3180
     18  C         26.6290  -23.1610  -14.9560 C.3     1  UNL1        0.1330
     19  C         26.8780  -22.8630  -16.4190 C.3     1  UNL1        0.0290
     20  C         25.5310  -22.3720  -16.9100 C.3     1  UNL1        0.1050
     21  C         24.9380  -21.7110  -15.6870 C.2     1  UNL1        0.2240
     22  O         23.9930  -20.9380  -15.7480 O.2     1  UNL1       -0.2730
     23  S         16.2590  -23.3920   -8.3980 S.O2    1  UNL1        0.2630
     24  O         16.0110  -24.6420   -7.7130 O.2     1  UNL1       -0.2000
     25  O         15.5180  -23.0230   -9.5850 O.2     1  UNL1       -0.2000
     26  N         16.0970  -22.1700   -7.2400 N.pl3   1  UNL1       -0.2780
     27  H         15.2920  -21.5760   -7.4470 H       1  UNL1        0.1790
     28  C         16.2750  -22.5100   -5.8640 C.2     1  UNL1        0.0810
     29  C         15.2370  -23.0640   -5.1180 C.2     1  UNL1        0.0330
     30  C         15.4300  -23.3510   -3.7640 C.2     1  UNL1        0.0020
     31  C         16.6580  -23.0830   -3.1550 C.2     1  UNL1        0.0030
     32  C         17.6990  -22.5280   -3.8980 C.2     1  UNL1        0.0440
     33  C         17.5010  -22.2450   -5.2450 C.2     1  UNL1        0.1430
     34  F         18.4990  -21.7000   -5.9570 F       1  UNL1       -0.2040
@<TRIPOS>BOND
     1    20    19    1
     2    20    21    1
     3    19    18    1
     4    22    21    2
     5    21    17   am
     6    18    17    1
     7    17    15    1
     8    15    16    1
     9    15    14    2
    10    16    11    2
    11    14    13    1
    12    11     9    1
    13    11    12    1
    14    10     9    1
    15    13    12    2
    16     9     7   am
    17     2     3    1
    18     2     1    2
    19     3     4    2
    20     7     1    1
    21     7     8    2
    22    25    23    2
    23     1     6    1
    24     4    23    1
    25     4     5    1
    26     6     5    2
    27    23    24    2
    28    23    26    1
    29    27    26    1
    30    26    28    1
    31    34    33    1
    32    28    33    2
    33    28    29    1
    34    33    32    1
    35    29    30    2
    36    32    31    2
    37    30    31    1
