@<TRIPOS>MOLECULE
46468_out_ligand_01.pdbqt
 37 40 0 0 0
SMALL
GASTEIGER

@<TRIPOS>ATOM
      1  C         17.5230  -22.6520   -5.5830 C.2     1  UNL1        0.0540
      2  C         17.5050  -23.2330   -4.3070 C.2     1  UNL1        0.0190
      3  C         16.2890  -23.5850   -3.7180 C.2     1  UNL1        0.0010
      4  C         15.0910  -23.3510   -4.3950 C.2     1  UNL1        0.0020
      5  C         15.1020  -22.7620   -5.6600 C.2     1  UNL1        0.0250
      6  C         16.3130  -22.3970   -6.2530 C.2     1  UNL1        0.0380
      7  N         16.2920  -21.8670   -7.5870 N.pl3   1  UNL1       -0.1800
      8  H         17.0290  -21.1670   -7.7620 H       1  UNL1        0.1460
      9  S         16.3480  -23.0120   -8.8430 S.O2    1  UNL1        0.2460
     10  O         17.0770  -24.1550   -8.3410 O.2     1  UNL1       -0.2060
     11  O         15.0290  -23.1460   -9.4250 O.2     1  UNL1       -0.2060
     12  C         17.4100  -22.2090  -10.0230 C.2     1  UNL1        0.0770
     13  C         16.9500  -21.0560  -10.7070 C.2     1  UNL1        0.0270
     14  C         17.7680  -20.4110  -11.6420 C.2     1  UNL1        0.0330
     15  C         19.0120  -20.9580  -11.8530 C.ar    1  UNL1        0.0630
     16  N         20.0280  -20.5450  -12.7060 N.ar    1  UNL1       -0.3070
     17  C         19.4530  -22.0990  -11.1810 C.ar    1  UNL1        0.0640
     18  C         21.1120  -21.4270  -12.5790 C.ar    1  UNL1        0.3250
     19  H         20.0200  -19.7580  -13.3350 H       1  UNL1        0.1700
     20  O         22.1710  -21.3680  -13.1780 O.2     1  UNL1       -0.2470
     21  N         20.7400  -22.3850  -11.6250 N.ar    1  UNL1       -0.3060
     22  H         21.3310  -23.1500  -11.3410 H       1  UNL1        0.1700
     23  C         18.6780  -22.7570  -10.2600 C.2     1  UNL1        0.0560
     24  C         18.8110  -22.2550   -6.2100 C.2     1  UNL1        0.2580
     25  O         19.2320  -21.1270   -5.9770 O.2     1  UNL1       -0.2670
     26  N         19.3780  -23.2090   -7.0320 N.am    1  UNL1       -0.3230
     27  H         18.8120  -24.0230   -7.2430 H       1  UNL1        0.1690
     28  C         20.6020  -23.1180   -7.7270 C.2     1  UNL1        0.0350
     29  C         20.9980  -24.2340   -8.4740 C.2     1  UNL1        0.0310
     30  C         22.2020  -24.2280   -9.1860 C.2     1  UNL1        0.0210
     31  C         23.0350  -23.1090   -9.1530 C.2     1  UNL1        0.0050
     32  C         22.6360  -21.9900   -8.4200 C.2     1  UNL1        0.0210
     33  C         21.4310  -21.9980   -7.7060 C.2     1  UNL1        0.0310
     34  S         24.5690  -23.0630  -10.0560 S.3     1  UNL1       -0.0610
     35  C         24.5170  -21.3560  -10.6370 C.3     1  UNL1        0.4200
     36  F         24.5170  -21.3310  -11.9940 F       1  UNL1       -0.2020
     37  F         25.6270  -20.6800  -10.2440 F       1  UNL1       -0.2020
@<TRIPOS>BOND
     1    19    16    1
     2    20    18    2
     3    16    18   ar
     4    16    15   ar
     5    18    21   ar
     6    36    35    1
     7    15    14    2
     8    15    17   ar
     9    14    13    1
    10    21    22    1
    11    21    17   ar
    12    17    23    2
    13    13    12    2
    14    35    37    1
    15    35    34    1
    16    23    12    1
    17    34    31    1
    18    12     9    1
    19    11     9    2
    20    30    31    2
    21    30    29    1
    22    31    32    1
    23     9    10    2
    24     9     7    1
    25    29    28    2
    26    32    33    2
    27     8     7    1
    28    28    33    1
    29    28    26    1
    30     7     6    1
    31    27    26    1
    32    26    24   am
    33     6     5    1
    34     6     1    2
    35    24    25    2
    36    24     1    1
    37     5     4    2
    38     1     2    1
    39     4     3    1
    40     2     3    2
