@<TRIPOS>MOLECULE
46461_out_ligand_01.pdbqt
 33 36 0 0 0
SMALL
GASTEIGER

@<TRIPOS>ATOM
      1  C         16.1400  -23.3710   -9.5530 C.3     1  UNL1        0.1610
      2  C         17.1190  -22.4360  -10.2140 C.2     1  UNL1       -0.0380
      3  C         16.6550  -21.3070  -10.8960 C.2     1  UNL1        0.0090
      4  C         17.5540  -20.4480  -11.5250 C.2     1  UNL1        0.0030
      5  C         18.9260  -20.7080  -11.4810 C.2     1  UNL1        0.0290
      6  C         19.4120  -21.8280  -10.8060 C.2     1  UNL1        0.0350
      7  C         18.5000  -22.6910  -10.1790 C.2     1  UNL1        0.0380
      8  N         20.7810  -22.1620  -10.7140 N.am    1  UNL1       -0.3230
      9  C         21.7340  -22.0710  -11.7130 C.2     1  UNL1        0.2570
     10  O         21.5740  -21.6330  -12.8450 O.2     1  UNL1       -0.2670
     11  H         21.1000  -22.4280   -9.7930 H       1  UNL1        0.1690
     12  C         23.0930  -22.5330  -11.3340 C.2     1  UNL1        0.0490
     13  C         23.4360  -22.9310  -10.0370 C.2     1  UNL1        0.0200
     14  C         24.7370  -23.3570   -9.7750 C.2     1  UNL1        0.0200
     15  C         25.6480  -23.3760  -10.8200 C.2     1  UNL1        0.1160
     16  N         25.3450  -23.0110  -12.0850 N.2     1  UNL1       -0.2720
     17  C         24.0700  -22.6080  -12.3180 C.2     1  UNL1        0.1330
     18  N         15.9640  -23.0170   -8.1640 N.am    1  UNL1       -0.3530
     19  C         16.0400  -23.9520   -7.1540 C.2     1  UNL1        0.2550
     20  O         16.1740  -25.1490   -7.3820 O.2     1  UNL1       -0.2680
     21  H         15.8900  -22.0400   -7.9330 H       1  UNL1        0.1630
     22  C         15.9510  -23.4060   -5.8040 C.2     1  UNL1        0.0800
     23  C         14.9150  -23.5790   -4.9000 C.2     1  UNL1        0.1280
     24  N         15.2340  -22.8460   -3.8010 N.pl3   1  UNL1       -0.2880
     25  N         16.4010  -22.2080   -3.9050 N.2     1  UNL1       -0.1740
     26  H         14.7010  -22.7300   -2.9460 H       1  UNL1        0.1880
     27  C         16.8710  -22.5410   -5.1200 C.2     1  UNL1        0.1040
     28  C         18.1730  -22.0260   -5.5530 C.2     1  UNL1       -0.0050
     29  C         18.8600  -22.6570   -6.6020 C.2     1  UNL1        0.0140
     30  C         20.0930  -22.1680   -7.0430 C.2     1  UNL1        0.0010
     31  C         20.6480  -21.0390   -6.4450 C.2     1  UNL1        0.0000
     32  C         19.9690  -20.3970   -5.4110 C.2     1  UNL1        0.0010
     33  C         18.7350  -20.8840   -4.9710 C.2     1  UNL1        0.0140
@<TRIPOS>BOND
     1    10     9    2
     2    17    16    1
     3    17    12    2
     4    16    15    2
     5     9    12    1
     6     9     8   am
     7     4     5    2
     8     4     3    1
     9     5     6    1
    10    12    13    1
    11     3     2    2
    12    15    14    1
    13     6     8    1
    14     6     7    2
    15     8    11    1
    16     2     7    1
    17     2     1    1
    18    13    14    2
    19     1    18    1
    20    18    21    1
    21    18    19   am
    22    20    19    2
    23    19    22    1
    24    30    29    1
    25    30    31    2
    26    29    28    2
    27    31    32    1
    28    22    27    1
    29    22    23    2
    30    28    27    1
    31    28    33    1
    32    32    33    2
    33    27    25    2
    34    23    24    1
    35    25    24    1
    36    24    26    1
