@<TRIPOS>MOLECULE
46478_out_ligand_01.pdbqt
 34 36 0 0 0
SMALL
GASTEIGER

@<TRIPOS>ATOM
      1  C         17.5230  -22.5380   -9.6770 C.2     1  UNL1        0.0230
      2  C         16.7230  -21.6040  -10.3370 C.2     1  UNL1        0.0240
      3  C         17.2630  -20.8260  -11.3620 C.2     1  UNL1        0.0030
      4  C         18.5980  -20.9930  -11.7390 C.2     1  UNL1        0.0170
      5  C         19.3940  -21.9490  -11.0900 C.2     1  UNL1        0.0350
      6  C         18.8530  -22.7180  -10.0540 C.2     1  UNL1        0.0410
      7  C         20.8180  -22.1700  -11.4520 C.2     1  UNL1        0.2700
      8  O         21.2700  -21.7430  -12.5140 O.2     1  UNL1       -0.2660
      9  N         21.5940  -22.8410  -10.5230 N.am    1  UNL1       -0.2630
     10  H         21.3100  -22.8880   -9.5450 H       1  UNL1        0.1900
     11  N         22.9820  -22.8440  -10.7500 N.am    1  UNL1       -0.2590
     12  C         23.7270  -21.8070  -10.2280 C.2     1  UNL1        0.3270
     13  O         23.3480  -21.0170   -9.3710 O.2     1  UNL1       -0.2610
     14  H         23.3030  -23.2810  -11.6190 H       1  UNL1        0.1900
     15  C         25.1340  -21.6890  -10.8350 C.2     1  UNL1        0.3110
     16  O         25.7450  -20.6310  -10.7710 O.2     1  UNL1       -0.2620
     17  N         25.5760  -22.8620  -11.4120 N.am    1  UNL1       -0.3480
     18  H         24.9420  -23.6570  -11.3730 H       1  UNL1        0.1630
     19  C         26.8440  -22.9850  -12.0510 C.3     1  UNL1        0.0850
     20  C         27.1210  -24.1110  -13.0080 C.3     1  UNL1        0.0270
     21  C         26.9810  -22.7080  -13.5210 C.3     1  UNL1        0.0270
     22  N         16.9710  -23.3890   -8.6630 N.pl3   1  UNL1       -0.1810
     23  H         16.9600  -24.3610   -8.9780 H       1  UNL1        0.1460
     24  S         17.8700  -23.3770   -7.2050 S.O2    1  UNL1        0.2460
     25  O         18.8650  -22.3270   -7.2390 O.2     1  UNL1       -0.2060
     26  O         18.2380  -24.7600   -6.9680 O.2     1  UNL1       -0.2060
     27  C         16.6030  -22.9280   -6.0260 C.2     1  UNL1        0.0810
     28  C         16.7260  -23.2170   -4.6540 C.2     1  UNL1       -0.0390
     29  C         15.6600  -22.8690   -3.8070 C.2     1  UNL1        0.0090
     30  C         17.9140  -23.9140   -4.0510 C.3     1  UNL1        0.0500
     31  C         14.5180  -22.2350   -4.3020 C.2     1  UNL1        0.0070
     32  C         14.4080  -21.9310   -5.6620 C.2     1  UNL1       -0.0600
     33  C         13.1640  -21.2890   -6.2010 C.3     1  UNL1        0.0480
     34  C         15.4470  -22.2960   -6.5240 C.2     1  UNL1        0.0320
@<TRIPOS>BOND
     1    21    20    1
     2    21    19    1
     3    20    19    1
     4     8     7    2
     5    19    17    1
     6     4     3    2
     7     4     5    1
     8    14    11    1
     9     7     5    1
    10     7     9   am
    11    17    18    1
    12    17    15   am
    13     3     2    1
    14     5     6    2
    15    15    16    2
    16    15    12    1
    17    11     9    1
    18    11    12   am
    19     9    10    1
    20     2     1    2
    21    12    13    2
    22     6     1    1
    23     1    22    1
    24    23    22    1
    25    22    24    1
    26    25    24    2
    27    24    26    2
    28    24    27    1
    29    34    27    2
    30    34    32    1
    31    33    32    1
    32    27    28    1
    33    32    31    2
    34    28    30    1
    35    28    29    2
    36    31    29    1
