@<TRIPOS>MOLECULE
46484_out_ligand_01.pdbqt
 35 38 0 0 0
SMALL
GASTEIGER

@<TRIPOS>ATOM
      1  C         16.8520  -22.6660   -5.1960 C.2     1  UNL1        0.0540
      2  C         16.5570  -23.2760   -3.9670 C.2     1  UNL1        0.0190
      3  C         15.3320  -23.9200   -3.7830 C.2     1  UNL1        0.0010
      4  C         14.3950  -23.9510   -4.8150 C.2     1  UNL1        0.0020
      5  C         14.6770  -23.3370   -6.0360 C.2     1  UNL1        0.0250
      6  C         15.8980  -22.6850   -6.2300 C.2     1  UNL1        0.0380
      7  N         16.1850  -22.1400   -7.5280 N.pl3   1  UNL1       -0.1800
      8  H         17.0070  -21.5170   -7.5310 H       1  UNL1        0.1460
      9  S         16.3990  -23.2720   -8.7770 S.O2    1  UNL1        0.2460
     10  O         15.1250  -23.5290   -9.4170 O.2     1  UNL1       -0.2060
     11  O         17.2080  -24.3470   -8.2460 O.2     1  UNL1       -0.2060
     12  C         17.4300  -22.3760   -9.9170 C.2     1  UNL1        0.0770
     13  C         16.9190  -21.1940  -10.5090 C.2     1  UNL1        0.0270
     14  C         17.6940  -20.4580  -11.4120 C.2     1  UNL1        0.0330
     15  C         18.9550  -20.9400  -11.6760 C.ar    1  UNL1        0.0630
     16  N         19.9400  -20.4350  -12.5170 N.ar    1  UNL1       -0.3070
     17  C         19.4550  -22.1000  -11.0790 C.ar    1  UNL1        0.0640
     18  C         21.0630  -21.2730  -12.4520 C.ar    1  UNL1        0.3250
     19  H         19.8950  -19.6050  -13.0850 H       1  UNL1        0.1700
     20  O         22.1110  -21.1330  -13.0570 O.2     1  UNL1       -0.2470
     21  N         20.7450  -22.3040  -11.5550 N.ar    1  UNL1       -0.3060
     22  H         21.3780  -23.0480  -11.3110 H       1  UNL1        0.1700
     23  C         18.7220  -22.8440  -10.1890 C.2     1  UNL1        0.0560
     24  C         18.1440  -21.9580   -5.3940 C.2     1  UNL1        0.2530
     25  O         18.4670  -21.0580   -4.6240 O.2     1  UNL1       -0.2680
     26  N         18.8990  -22.3520   -6.4770 N.am    1  UNL1       -0.3520
     27  H         18.4280  -22.8530   -7.2200 H       1  UNL1        0.1630
     28  C         20.0690  -21.5940   -6.8610 C.3     1  UNL1        0.1640
     29  C         21.0050  -22.4370   -7.6770 C.2     1  UNL1       -0.0020
     30  C         20.6310  -23.7260   -8.0880 C.2     1  UNL1        0.0120
     31  C         21.4990  -24.5040   -8.8580 C.2     1  UNL1        0.0010
     32  C         22.7460  -24.0030   -9.2300 C.2     1  UNL1        0.0030
     33  C         23.1250  -22.7210   -8.8330 C.2     1  UNL1        0.0430
     34  C         22.2560  -21.9510   -8.0660 C.2     1  UNL1        0.1240
     35  F         22.6360  -20.7180   -7.7050 F       1  UNL1       -0.2050
@<TRIPOS>BOND
     1    19    16    1
     2    20    18    2
     3    16    18   ar
     4    16    15   ar
     5    18    21   ar
     6    15    14    2
     7    15    17   ar
     8    21    22    1
     9    21    17   ar
    10    14    13    1
    11    17    23    2
    12    13    12    2
    13    23    12    1
    14    12     9    1
    15    10     9    2
    16    32    31    2
    17    32    33    1
    18    31    30    1
    19    33    34    2
    20     9    11    2
    21     9     7    1
    22    30    29    2
    23    34    35    1
    24    34    29    1
    25    29    28    1
    26     8     7    1
    27     7     6    1
    28    27    26    1
    29    28    26    1
    30    26    24   am
    31     6     5    1
    32     6     1    2
    33     5     4    2
    34    24     1    1
    35    24    25    2
    36     1     2    1
    37     4     3    1
    38     2     3    2
