@<TRIPOS>MOLECULE
46509_out_ligand_01.pdbqt
 33 37 0 0 0
SMALL
GASTEIGER

@<TRIPOS>ATOM
      1  C         21.5180  -22.8960  -10.2610 C.2     1  UNL1        0.0970
      2  C         22.0960  -23.7550   -9.3040 C.3     1  UNL1        0.1600
      3  N         21.2240  -24.1830   -8.3950 N.3     1  UNL1       -0.1770
      4  N         20.1150  -23.4210   -8.6080 N.pl3   1  UNL1       -0.2130
      5  C         20.2050  -22.7560   -9.8270 C.2     1  UNL1        0.1530
      6  C         22.2160  -22.4240  -11.4490 C.2     1  UNL1        0.2610
      7  O         21.5800  -22.1410  -12.4560 O.2     1  UNL1       -0.2670
      8  N         23.5780  -22.2640  -11.2730 N.am    1  UNL1       -0.3230
      9  H         23.9440  -22.4860  -10.3560 H       1  UNL1        0.1690
     10  C         24.5230  -21.8090  -12.2160 C.2     1  UNL1        0.0350
     11  C         25.6790  -21.1040  -11.8860 C.2     1  UNL1        0.0290
     12  C         26.5660  -20.7010  -12.8860 C.2     1  UNL1        0.0030
     13  C         26.3040  -20.9950  -14.2240 C.2     1  UNL1        0.0140
     14  C         25.1460  -21.6940  -14.5850 C.2     1  UNL1       -0.0060
     15  C         24.2660  -22.0960  -13.5660 C.2     1  UNL1        0.0430
     16  C         24.8540  -22.0180  -15.9830 C.2     1  UNL1        0.0610
     17  C         24.8540  -23.2210  -16.6670 C.2     1  UNL1        0.0530
     18  C         24.5010  -22.9030  -17.9910 C.2     1  UNL1        0.1410
     19  N         24.2780  -21.5980  -18.1530 N.2     1  UNL1       -0.1870
     20  N         24.4860  -21.0890  -16.9280 N.pl3   1  UNL1       -0.2780
     21  H         24.3510  -20.0930  -16.7990 H       1  UNL1        0.1890
     22  N         19.1420  -22.1200  -10.4690 N.pl3   1  UNL1       -0.3170
     23  C         19.1480  -20.8380  -10.9900 C.2     1  UNL1        0.0980
     24  C         17.8910  -20.5300  -11.4640 C.2     1  UNL1        0.0190
     25  C         17.0720  -21.6510  -11.2270 C.2     1  UNL1        0.0190
     26  C         17.8560  -22.6050  -10.6190 C.2     1  UNL1        0.0980
     27  C         19.1500  -23.3540   -7.5670 C.2     1  UNL1        0.0990
     28  C         18.1960  -24.3780   -7.4540 C.2     1  UNL1        0.0350
     29  C         17.2360  -24.3380   -6.4390 C.2     1  UNL1        0.0020
     30  C         17.2350  -23.2920   -5.5170 C.2     1  UNL1        0.0030
     31  C         18.2070  -22.2960   -5.5990 C.2     1  UNL1        0.0450
     32  C         19.1630  -22.3370   -6.6130 C.2     1  UNL1        0.1450
     33  F         20.1360  -21.4150   -6.5850 F       1  UNL1       -0.2040
@<TRIPOS>BOND
     1    19    18    2
     2    19    20    1
     3    18    17    1
     4    20    21    1
     5    20    16    1
     6    17    16    2
     7    16    14    1
     8    14    13    2
     9    14    15    1
    10    13    12    1
    11    15    10    2
    12    12    11    2
    13     7     6    2
    14    10    11    1
    15    10     8    1
    16    24    25    1
    17    24    23    2
    18     6     8   am
    19     6     1    1
    20     8     9    1
    21    25    26    2
    22    23    22    1
    23    26    22    1
    24    22     5    1
    25     1     5    2
    26     1     2    1
    27     5     4    1
    28     2     3    1
    29     4     3    1
    30     4    27    1
    31    27    28    2
    32    27    32    1
    33    28    29    1
    34    32    33    1
    35    32    31    2
    36    29    30    2
    37    31    30    1
