@<TRIPOS>MOLECULE
46507_out_ligand_01.pdbqt
 33 36 0 0 0
SMALL
GASTEIGER

@<TRIPOS>ATOM
      1  C         24.9040  -21.3830  -13.8410 C.2     1  UNL1        0.0360
      2  C         25.7600  -20.3470  -13.4430 C.2     1  UNL1        0.0290
      3  C         26.8420  -19.9680  -14.2410 C.2     1  UNL1        0.0040
      4  C         27.0820  -20.6250  -15.4450 C.2     1  UNL1        0.0230
      5  C         26.2380  -21.6630  -15.8520 C.2     1  UNL1        0.0460
      6  C         26.4870  -22.3430  -17.0890 C.1     1  UNL1        0.0990
      7  N         26.7040  -22.8850  -18.0920 N.1     1  UNL1       -0.1910
      8  C         25.1520  -22.0400  -15.0480 C.2     1  UNL1        0.0520
      9  N         23.8380  -21.7030  -12.9720 N.am    1  UNL1       -0.3230
     10  C         22.5120  -21.3340  -13.1060 C.2     1  UNL1        0.2560
     11  O         22.0350  -20.6060  -13.9680 O.2     1  UNL1       -0.2670
     12  H         24.1000  -22.2000  -12.1290 H       1  UNL1        0.1690
     13  C         21.5970  -21.8640  -12.0580 C.2     1  UNL1        0.0340
     14  C         20.2740  -21.4200  -12.0350 C.2     1  UNL1        0.0190
     15  C         19.3760  -21.8940  -11.0670 C.2     1  UNL1        0.0320
     16  C         19.7510  -22.8540  -10.1110 C.2     1  UNL1        0.0620
     17  C         21.1000  -23.2780  -10.1560 C.2     1  UNL1        0.1300
     18  C         22.0150  -22.8080  -11.1210 C.2     1  UNL1        0.0550
     19  N         18.8800  -23.2520   -9.0970 N.pl3   1  UNL1       -0.3790
     20  H         18.5780  -24.2280   -9.1760 H       1  UNL1        0.1600
     21  C         17.7960  -22.4190   -8.5610 C.3     1  UNL1        0.1180
     22  C         16.4110  -23.0210   -8.9550 C.3     1  UNL1        0.0300
     23  C         16.0120  -24.2310   -8.0820 C.3     1  UNL1        0.0080
     24  C         15.9030  -23.8730   -6.5870 C.3     1  UNL1        0.0590
     25  C         17.0180  -22.9710   -6.2050 C.2     1  UNL1        0.0400
     26  C         17.8590  -22.3010   -7.0700 C.2     1  UNL1        0.0080
     27  N         17.4020  -22.6140   -4.9440 N.pl3   1  UNL1       -0.2780
     28  C         18.7240  -21.5770   -6.2330 C.2     1  UNL1        0.1500
     29  N         18.4440  -21.7580   -4.9390 N.2     1  UNL1       -0.1840
     30  C         16.8360  -23.0420   -3.6870 C.3     1  UNL1        0.1790
     31  N         21.6120  -24.2520   -9.1890 N.pl3   1  UNL1       -0.1130
     32  O         20.8760  -25.1980   -8.8690 O.2     1  UNL1       -0.5320
     33  O         22.7680  -24.0810   -8.7710 O.2     1  UNL1       -0.5320
@<TRIPOS>BOND
     1     7     6    3
     2     6     5    1
     3     5     4    2
     4     5     8    1
     5     4     3    1
     6     8     1    2
     7     3     2    2
     8    11    10    2
     9     1     2    1
    10     1     9    1
    11    10     9   am
    12    10    13    1
    13     9    12    1
    14    13    14    2
    15    13    18    1
    16    14    15    1
    17    18    17    2
    18    15    16    2
    19    17    16    1
    20    17    31    1
    21    16    19    1
    22    31    32    2
    23    31    33    2
    24    20    19    1
    25    19    21    1
    26    22    21    1
    27    22    23    1
    28    21    26    1
    29    23    24    1
    30    26    28    1
    31    26    25    2
    32    24    25    1
    33    28    29    2
    34    25    27    1
    35    27    29    1
    36    27    30    1
