@<TRIPOS>MOLECULE
46508_out_ligand_01.pdbqt
 31 33 0 0 0
SMALL
GASTEIGER

@<TRIPOS>ATOM
      1  S         23.1610  -22.8430   -9.3210 S.O2    1  UNL1        0.2630
      2  O         24.0750  -23.7950   -8.7270 O.2     1  UNL1       -0.2000
      3  O         23.4460  -21.4270   -9.3220 O.2     1  UNL1       -0.2000
      4  C         21.5750  -23.0740   -8.5470 C.2     1  UNL1        0.0790
      5  C         20.8700  -24.2610   -8.7570 C.2     1  UNL1        0.0260
      6  C         19.6250  -24.4350   -8.1480 C.2     1  UNL1        0.0180
      7  C         19.0880  -23.4310   -7.3260 C.2     1  UNL1        0.0320
      8  C         19.8240  -22.2610   -7.0890 C.2     1  UNL1        0.0180
      9  C         21.0690  -22.0820   -7.6990 C.2     1  UNL1        0.0260
     10  C         17.7510  -23.6680   -6.7140 C.2     1  UNL1        0.2510
     11  O         17.4670  -24.7640   -6.2470 O.2     1  UNL1       -0.2680
     12  N         16.8570  -22.6150   -6.7390 N.am    1  UNL1       -0.3480
     13  H         17.0430  -21.8290   -7.3480 H       1  UNL1        0.1630
     14  C         15.4660  -22.8320   -6.3300 C.3     1  UNL1        0.2400
     15  C         15.1530  -22.4520   -4.8810 C.3     1  UNL1        0.4030
     16  F         16.2010  -21.8970   -4.2410 F       1  UNL1       -0.1690
     17  F         14.7810  -23.5520   -4.1790 F       1  UNL1       -0.1690
     18  F         14.1230  -21.5760   -4.8280 F       1  UNL1       -0.1690
     19  N         22.9140  -23.3730  -10.9180 N.pl3   1  UNL1       -0.2780
     20  H         22.0840  -23.9640  -10.9750 H       1  UNL1        0.1790
     21  C         23.1300  -22.4450  -11.9830 C.2     1  UNL1        0.0710
     22  C         24.4190  -22.4520  -12.5470 C.2     1  UNL1        0.0320
     23  C         24.7050  -21.7280  -13.7030 C.2     1  UNL1        0.0020
     24  C         23.7020  -20.9910  -14.3180 C.2     1  UNL1        0.0020
     25  C         22.4240  -20.9550  -13.7580 C.2     1  UNL1        0.0340
     26  C         22.1250  -21.6570  -12.5700 C.2     1  UNL1        0.0850
     27  N         20.8270  -21.4640  -12.0050 N.pl3   1  UNL1       -0.2430
     28  C         20.0770  -20.3100  -11.9080 C.2     1  UNL1        0.1200
     29  C         18.8920  -20.6350  -11.2930 C.2     1  UNL1        0.0400
     30  C         18.9720  -22.0170  -11.0920 C.2     1  UNL1        0.1400
     31  N         20.1110  -22.5360  -11.5510 N.2     1  UNL1       -0.1800
@<TRIPOS>BOND
     1    24    25    2
     2    24    23    1
     3    25    26    1
     4    23    22    2
     5    26    27    1
     6    26    21    2
     7    22    21    1
     8    27    28    1
     9    27    31    1
    10    21    19    1
    11    28    29    2
    12    31    30    2
    13    29    30    1
    14    20    19    1
    15    19     1    1
    16     3     1    2
    17     1     2    2
    18     1     4    1
    19     5     4    2
    20     5     6    1
    21     4     9    1
    22     6     7    2
    23     9     8    2
    24    13    12    1
    25     7     8    1
    26     7    10    1
    27    12    10   am
    28    12    14    1
    29    10    11    2
    30    14    15    1
    31    15    18    1
    32    15    16    1
    33    15    17    1
