@<TRIPOS>MOLECULE
46539_out_ligand_01.pdbqt
 34 37 0 0 0
SMALL
GASTEIGER

@<TRIPOS>ATOM
      1  N         26.7380  -17.5210  -18.1450 N.1     1  UNL1       -0.1910
      2  C         26.5200  -18.6200  -17.8380 C.1     1  UNL1        0.0990
      3  C         26.2440  -19.9700  -17.4450 C.2     1  UNL1        0.0460
      4  C         26.8390  -21.0330  -18.1260 C.2     1  UNL1        0.0230
      5  C         26.5650  -22.3430  -17.7330 C.2     1  UNL1        0.0040
      6  C         25.6980  -22.5910  -16.6640 C.2     1  UNL1        0.0290
      7  C         25.0930  -21.5360  -15.9780 C.2     1  UNL1        0.0360
      8  C         25.3760  -20.2220  -16.3750 C.2     1  UNL1        0.0520
      9  N         24.2120  -21.7060  -14.8870 N.am    1  UNL1       -0.3230
     10  C         24.5400  -21.7130  -13.5440 C.2     1  UNL1        0.2560
     11  O         25.6610  -21.6410  -13.0570 O.2     1  UNL1       -0.2670
     12  H         23.2510  -21.9110  -15.1290 H       1  UNL1        0.1690
     13  C         23.3880  -21.8670  -12.6120 C.2     1  UNL1        0.0340
     14  C         22.0670  -21.6760  -13.0280 C.2     1  UNL1        0.0190
     15  C         21.0140  -21.8210  -12.1120 C.2     1  UNL1        0.0330
     16  C         21.2360  -22.1570  -10.7650 C.2     1  UNL1        0.0630
     17  C         22.5800  -22.3100  -10.3790 C.2     1  UNL1        0.1300
     18  C         23.6510  -22.1700  -11.2750 C.2     1  UNL1        0.0550
     19  N         20.1040  -22.2830   -9.9630 N.pl3   1  UNL1       -0.3740
     20  C         18.8410  -21.6470  -10.3940 C.3     1  UNL1        0.1490
     21  C         17.6980  -22.6700  -10.4630 C.3     1  UNL1        0.1880
     22  O         17.4440  -23.3240   -9.2150 O.3     1  UNL1       -0.3780
     23  C         18.6280  -23.6450   -8.4510 C.3     1  UNL1        0.1720
     24  C         19.9380  -23.5950   -9.2910 C.3     1  UNL1        0.1600
     25  C         18.5780  -22.8330   -7.1610 C.2     1  UNL1       -0.0280
     26  C         19.6230  -21.9220   -6.9040 C.2     1  UNL1        0.0130
     27  C         19.6310  -21.1400   -5.7480 C.2     1  UNL1        0.0430
     28  C         18.5910  -21.2600   -4.8370 C.2     1  UNL1        0.1160
     29  F         18.5940  -20.5130   -3.7250 F       1  UNL1       -0.2060
     30  C         17.5480  -22.1490   -5.0620 C.2     1  UNL1        0.0430
     31  C         17.5400  -22.9310   -6.2200 C.2     1  UNL1        0.0130
     32  N         22.9310  -22.5920   -9.0090 N.pl3   1  UNL1       -0.1130
     33  O         23.3720  -23.7210   -8.7590 O.2     1  UNL1       -0.5320
     34  O         22.7430  -21.6880   -8.1840 O.2     1  UNL1       -0.5320
@<TRIPOS>BOND
     1     1     2    3
     2     4     5    1
     3     4     3    2
     4     2     3    1
     5     5     6    2
     6     3     8    1
     7     6     7    1
     8     8     7    2
     9     7     9    1
    10    12     9    1
    11     9    10   am
    12    10    11    2
    13    10    13    1
    14    14    13    2
    15    14    15    1
    16    13    18    1
    17    15    16    2
    18    18    17    2
    19    16    17    1
    20    16    19    1
    21    21    20    1
    22    21    22    1
    23    20    19    1
    24    17    32    1
    25    19    24    1
    26    24    23    1
    27    22    23    1
    28    32    33    2
    29    32    34    2
    30    23    25    1
    31    25    26    2
    32    25    31    1
    33    26    27    1
    34    31    30    2
    35    27    28    2
    36    30    28    1
    37    28    29    1
