@<TRIPOS>MOLECULE
46531_out_ligand_01.pdbqt
 29 32 0 0 0
SMALL
GASTEIGER

@<TRIPOS>ATOM
      1  C         19.9160  -20.8910  -11.8760 C.3     1  UNL1        0.0510
      2  C         20.0970  -21.8090  -10.7060 C.ar    1  UNL1       -0.0210
      3  C         21.3130  -22.2690  -10.2110 C.ar    1  UNL1        0.0820
      4  S         21.1080  -23.4010   -8.9390 S.2     1  UNL1       -0.0630
      5  C         19.4160  -23.2370   -8.9650 C.ar    1  UNL1        0.1160
      6  N         18.6270  -23.9250   -8.1000 N.ar    1  UNL1       -0.2270
      7  C         17.3530  -23.7140   -8.2410 C.ar    1  UNL1        0.1120
      8  N         16.8180  -22.8460   -9.1710 N.ar    1  UNL1       -0.3100
      9  C         17.5750  -22.1340  -10.0700 C.ar    1  UNL1        0.2600
     10  O         17.0650  -21.3750  -10.8880 O.2     1  UNL1       -0.2670
     11  C         19.0040  -22.3580   -9.9430 C.ar    1  UNL1        0.0750
     12  H         15.8170  -22.7510   -9.2680 H       1  UNL1        0.1700
     13  C         22.6790  -21.9450  -10.6140 C.2     1  UNL1        0.2630
     14  O         23.4040  -21.2020   -9.9570 O.2     1  UNL1       -0.2670
     15  N         23.0390  -22.5390  -11.8130 N.am    1  UNL1       -0.3200
     16  H         22.3340  -23.0630  -12.3140 H       1  UNL1        0.1690
     17  C         24.2740  -22.4310  -12.4260 C.2     1  UNL1        0.0710
     18  C         25.4290  -23.1950  -12.1450 C.2     1  UNL1        0.1690
     19  N         26.4720  -22.8520  -12.9050 N.2     1  UNL1       -0.1830
     20  N         25.9800  -21.8670  -13.6810 N.pl3   1  UNL1       -0.2830
     21  C         26.8330  -21.2360  -14.6580 C.3     1  UNL1        0.1790
     22  C         24.6710  -21.5790  -13.4270 C.2     1  UNL1        0.1420
     23  C         16.3550  -24.4130   -7.3390 C.3     1  UNL1        0.1170
     24  C         16.2050  -23.7340   -5.9990 C.2     1  UNL1       -0.0510
     25  C         17.1550  -23.9450   -4.9900 C.2     1  UNL1        0.0070
     26  C         17.0120  -23.3320   -3.7440 C.2     1  UNL1        0.0010
     27  C         15.9210  -22.5000   -3.4970 C.2     1  UNL1        0.0000
     28  C         14.9760  -22.2760   -4.4960 C.2     1  UNL1        0.0010
     29  C         15.1170  -22.8880   -5.7440 C.2     1  UNL1        0.0070
@<TRIPOS>BOND
     1    21    20    1
     2    20    22    1
     3    20    19    1
     4    22    17    2
     5    19    18    2
     6    17    18    1
     7    17    15    1
     8    16    15    1
     9     1     2    1
    10    15    13   am
    11    10     9    2
    12     2     3   ar
    13     2    11   ar
    14    13     3    1
    15    13    14    2
    16     3     4   ar
    17     9    11   ar
    18     9     8   ar
    19    11     5   ar
    20    12     8    1
    21     8     7   ar
    22     5     4   ar
    23     5     6   ar
    24     7     6   ar
    25     7    23    1
    26    23    24    1
    27    24    29    2
    28    24    25    1
    29    29    28    1
    30    25    26    2
    31    28    27    2
    32    26    27    1
