@<TRIPOS>MOLECULE
46538_out_ligand_01.pdbqt
 28 30 0 0 0
SMALL
GASTEIGER

@<TRIPOS>ATOM
      1  C         19.3880  -22.4590   -6.8100 C.2     1  UNL1        0.2570
      2  O         19.2580  -21.3820   -6.2420 O.2     1  UNL1       -0.2670
      3  N         18.5060  -23.5270   -6.7920 N.am    1  UNL1       -0.3080
      4  H         18.6850  -24.3070   -7.4110 H       1  UNL1        0.1700
      5  C         17.3430  -23.5270   -6.0390 C.2     1  UNL1        0.1280
      6  C         17.0870  -23.9580   -4.7540 C.2     1  UNL1        0.0710
      7  C         15.7270  -23.6860   -4.5320 C.2     1  UNL1        0.1420
      8  N         15.1430  -23.1260   -5.5900 N.2     1  UNL1       -0.1830
      9  N         16.1300  -23.0610   -6.5070 N.pl3   1  UNL1       -0.2540
     10  C         15.8360  -22.4800   -7.8050 C.3     1  UNL1        0.1570
     11  C         16.3300  -23.3180   -8.9850 C.3     1  UNL1        0.0600
     12  C         17.1640  -22.5490   -9.9790 C.2     1  UNL1       -0.0570
     13  C         18.4240  -23.0270  -10.3690 C.2     1  UNL1        0.0070
     14  C         19.1990  -22.3110  -11.2830 C.2     1  UNL1        0.0010
     15  C         18.7270  -21.1120  -11.8120 C.2     1  UNL1        0.0000
     16  C         17.4800  -20.6240  -11.4250 C.2     1  UNL1        0.0010
     17  C         16.7010  -21.3390  -10.5130 C.2     1  UNL1        0.0070
     18  C         20.5980  -22.6730   -7.6490 C.2     1  UNL1        0.0320
     19  C         21.5820  -21.6770   -7.6720 C.2     1  UNL1        0.0180
     20  C         22.7290  -21.8440   -8.4500 C.2     1  UNL1        0.0180
     21  C         22.9130  -23.0200   -9.1900 C.2     1  UNL1        0.0310
     22  C         21.9320  -24.0210   -9.1610 C.2     1  UNL1        0.0180
     23  C         20.7790  -23.8500   -8.3880 C.2     1  UNL1        0.0180
     24  C         24.1490  -23.1540  -10.0060 C.2     1  UNL1        0.2490
     25  N         25.1760  -23.8850   -9.4740 N.am    1  UNL1       -0.3660
     26  H         25.2390  -24.0690   -8.4830 H       1  UNL1        0.1590
     27  H         26.0480  -23.8400   -9.9870 H       1  UNL1        0.1590
     28  O         24.2610  -22.6080  -11.0950 O.2     1  UNL1       -0.2680
@<TRIPOS>BOND
     1    15    16    2
     2    15    14    1
     3    16    17    1
     4    14    13    2
     5    28    24    2
     6    17    12    2
     7    13    12    1
     8    24    25   am
     9    24    21    1
    10    27    25    1
    11    12    11    1
    12    25    26    1
    13    21    22    2
    14    21    20    1
    15    22    23    1
    16    11    10    1
    17    20    19    2
    18    23    18    2
    19    10     9    1
    20    19    18    1
    21    18     1    1
    22     4     3    1
    23     1     3   am
    24     1     2    2
    25     3     5    1
    26     9     5    1
    27     9     8    1
    28     5     6    2
    29     8     7    2
    30     6     7    1
