@<TRIPOS>MOLECULE
4653_out_ligand_01.pdbqt
 34 38 0 0 0
SMALL
GASTEIGER

@<TRIPOS>ATOM
      1  C         22.5400  -22.4550  -11.8940 C.2     1  UNL1        0.0790
      2  C         21.8720  -21.5030  -12.6690 C.2     1  UNL1        0.0370
      3  C         20.5770  -21.1140  -12.3280 C.2     1  UNL1        0.0040
      4  C         19.9620  -21.6500  -11.1940 C.2     1  UNL1        0.0170
      5  C         20.6530  -22.5680  -10.3880 C.2     1  UNL1        0.0350
      6  C         21.9430  -22.9760  -10.7470 C.2     1  UNL1        0.0540
      7  O         23.8280  -22.8440  -12.1780 O.2     1  UNL1       -0.2920
      8  C         24.8000  -21.8460  -12.2260 C.2     1  UNL1        0.1730
      9  C         25.5150  -21.6530  -11.0690 C.2     1  UNL1        0.0770
     10  C         26.4780  -20.6780  -11.1320 C.2     1  UNL1        0.1230
     11  N         26.7240  -19.9460  -12.2350 N.2     1  UNL1       -0.2410
     12  C         25.9750  -20.2190  -13.3230 C.2     1  UNL1        0.1620
     13  N         25.0110  -21.1550  -13.3590 N.2     1  UNL1       -0.2040
     14  C         26.2130  -19.4270  -14.5470 C.2     1  UNL1        0.0120
     15  C         26.7580  -18.1300  -14.4890 C.2     1  UNL1        0.0160
     16  C         26.9920  -17.3790  -15.6460 C.2     1  UNL1        0.0070
     17  C         26.6960  -17.9070  -16.9040 C.2     1  UNL1       -0.0620
     18  C         26.9250  -17.1050  -18.1510 C.3     1  UNL1        0.0480
     19  C         26.1430  -19.1880  -16.9850 C.2     1  UNL1        0.0070
     20  C         25.9080  -19.9330  -15.8240 C.2     1  UNL1        0.0160
     21  C         20.0400  -23.1530   -9.1600 C.2     1  UNL1        0.2560
     22  O         20.5650  -24.1420   -8.6650 O.2     1  UNL1       -0.2670
     23  N         18.9400  -22.4690   -8.6770 N.am    1  UNL1       -0.3230
     24  H         18.7240  -21.5820   -9.1120 H       1  UNL1        0.1690
     25  C         18.1300  -22.8200   -7.5750 C.2     1  UNL1        0.0370
     26  C         17.1220  -23.7690   -7.8040 C.2     1  UNL1        0.0320
     27  C         16.2830  -24.1860   -6.7660 C.2     1  UNL1        0.0420
     28  C         16.4520  -23.6620   -5.4880 C.2     1  UNL1        0.1020
     29  C         17.4390  -22.7010   -5.2560 C.2     1  UNL1        0.1040
     30  O         15.6100  -24.1320   -4.5140 O.2     1  UNL1       -0.3460
     31  C         18.2850  -22.2920   -6.2910 C.2     1  UNL1        0.0690
     32  O         17.6440  -22.1210   -4.0270 O.2     1  UNL1       -0.3460
     33  C         16.5320  -22.3400   -3.1540 C.3     1  UNL1        0.2020
     34  C         16.0880  -23.7940   -3.2050 C.3     1  UNL1        0.2020
@<TRIPOS>BOND
     1    18    17    1
     2    19    17    2
     3    19    20    1
     4    17    16    1
     5    20    14    2
     6    16    15    2
     7    14    15    1
     8    14    12    1
     9    13    12    1
    10    13     8    2
    11    12    11    2
    12     2     3    1
    13     2     1    2
    14     3     4    2
    15    11    10    1
    16     8     7    1
    17     8     9    1
    18     7     1    1
    19     1     6    1
    20     4     5    1
    21    10     9    2
    22     6     5    2
    23     5    21    1
    24    21    23   am
    25    21    22    2
    26    24    23    1
    27    23    25    1
    28    26    25    2
    29    26    27    1
    30    25    31    1
    31    27    28    2
    32    31    29    2
    33    28    29    1
    34    28    30    1
    35    29    32    1
    36    30    34    1
    37    32    33    1
    38    34    33    1
