@<TRIPOS>MOLECULE
46534_out_ligand_01.pdbqt
 33 35 0 0 0
SMALL
GASTEIGER

@<TRIPOS>ATOM
      1  C         22.4540  -22.0300  -10.7490 C.2     1  UNL1        0.2260
      2  O         22.8000  -21.2020   -9.9090 O.2     1  UNL1       -0.2730
      3  N         23.3490  -22.8560  -11.3920 N.am    1  UNL1       -0.3560
      4  H         23.0500  -23.2720  -12.2660 H       1  UNL1        0.1620
      5  C         24.7690  -22.7010  -11.1820 C.3     1  UNL1        0.1610
      6  C         25.2990  -21.5280  -11.9610 C.2     1  UNL1       -0.0390
      7  C         26.2950  -20.7080  -11.4090 C.2     1  UNL1        0.0090
      8  C         26.7910  -19.6160  -12.1220 C.2     1  UNL1        0.0020
      9  C         26.2980  -19.3330  -13.3960 C.2     1  UNL1        0.0240
     10  C         25.3150  -20.1460  -13.9590 C.2     1  UNL1        0.0240
     11  C         24.8130  -21.2380  -13.2440 C.2     1  UNL1        0.0330
     12  N         24.7850  -19.8540  -15.2510 N.pl3   1  UNL1       -0.1730
     13  H         24.9530  -18.9110  -15.6020 H       1  UNL1        0.1470
     14  S         25.0150  -20.9550  -16.4870 S.O2    1  UNL1        0.2800
     15  O         24.1120  -22.0560  -16.2780 O.2     1  UNL1       -0.1940
     16  O         26.4150  -21.1370  -16.7730 O.2     1  UNL1       -0.1940
     17  N         24.3910  -20.0720  -17.7600 N.3     1  UNL1       -0.2160
     18  H         25.1320  -19.9330  -18.4520 H       1  UNL1        0.1370
     19  H         24.0690  -19.1690  -17.4040 H       1  UNL1        0.1370
     20  C         20.9870  -22.2260  -11.1400 C.3     1  UNL1        0.1060
     21  C         20.4260  -20.9270  -11.7280 C.3     1  UNL1        0.0250
     22  C         20.1840  -22.8440  -10.0010 C.2     1  UNL1       -0.0450
     23  C         18.9140  -22.3120   -9.7150 C.2     1  UNL1        0.0200
     24  C         18.1180  -22.8200   -8.6720 C.2     1  UNL1       -0.0250
     25  C         16.8560  -22.2780   -8.3800 C.2     1  UNL1        0.0150
     26  C         18.6000  -23.8930   -7.8970 C.2     1  UNL1       -0.0230
     27  C         16.0840  -22.7790   -7.3280 C.2     1  UNL1        0.0370
     28  C         16.5600  -23.8330   -6.5500 C.2     1  UNL1        0.0690
     29  C         17.8080  -24.3910   -6.8440 C.2     1  UNL1        0.0490
     30  C         19.8600  -24.4340   -8.1890 C.2     1  UNL1        0.0130
     31  C         20.6420  -23.9180   -9.2280 C.2     1  UNL1        0.0090
     32  O         15.9130  -24.4060   -5.4890 O.2     1  UNL1       -0.3560
     33  C         14.9070  -23.6240   -4.8550 C.3     1  UNL1        0.2100
@<TRIPOS>BOND
     1    18    17    1
     2    17    19    1
     3    17    14    1
     4    16    14    2
     5    14    15    2
     6    14    12    1
     7    13    12    1
     8    12    10    1
     9    10     9    2
    10    10    11    1
    11     9     8    1
    12    11     6    2
    13     4     3    1
    14     8     7    2
    15     6     7    1
    16     6     5    1
    17    21    20    1
    18     3     5    1
    19     3     1   am
    20    20     1    1
    21    20    22    1
    22     1     2    2
    23    22    23    2
    24    22    31    1
    25    23    24    1
    26    31    30    2
    27    24    25    2
    28    24    26    1
    29    25    27    1
    30    30    26    1
    31    26    29    2
    32    27    28    2
    33    29    28    1
    34    28    32    1
    35    32    33    1
