@<TRIPOS>MOLECULE
46537_out_ligand_01.pdbqt
 34 37 0 0 0
SMALL
GASTEIGER

@<TRIPOS>ATOM
      1  C         19.6430  -21.5450  -11.4470 C.2     1  UNL1        0.0860
      2  C         18.8900  -20.4000  -11.6370 C.2     1  UNL1        0.0400
      3  C         17.5760  -20.6930  -11.1960 C.2     1  UNL1        0.0370
      4  C         17.5960  -22.0010  -10.7610 C.2     1  UNL1        0.0710
      5  O         18.8460  -22.5240  -10.9250 O.2     1  UNL1       -0.3130
      6  C         16.5850  -22.8920  -10.1420 C.3     1  UNL1        0.1870
      7  N         16.5580  -22.6080   -8.7300 N.am    1  UNL1       -0.3510
      8  C         16.0980  -23.5080   -7.8040 C.2     1  UNL1        0.2520
      9  O         15.7250  -24.6430   -8.0840 O.2     1  UNL1       -0.2680
     10  H         16.9380  -21.7190   -8.4300 H       1  UNL1        0.1630
     11  C         16.1170  -23.0530   -6.3860 C.2     1  UNL1        0.0430
     12  C         14.8790  -23.0700   -5.7200 C.2     1  UNL1        0.0180
     13  C         14.7930  -22.6940   -4.3810 C.2     1  UNL1        0.0010
     14  C         15.9380  -22.2850   -3.7020 C.2     1  UNL1        0.0010
     15  C         17.1690  -22.2460   -4.3650 C.2     1  UNL1        0.0130
     16  C         17.2880  -22.6220   -5.7180 C.2     1  UNL1       -0.0100
     17  C         18.6080  -22.5180   -6.3660 C.2     1  UNL1       -0.0250
     18  C         19.4340  -21.4030   -6.1520 C.2     1  UNL1        0.0120
     19  C         20.6720  -21.2960   -6.7920 C.2     1  UNL1        0.0010
     20  C         21.1040  -22.3030   -7.6510 C.2     1  UNL1        0.0000
     21  C         20.3030  -23.4200   -7.8680 C.2     1  UNL1        0.0010
     22  C         19.0670  -23.5290   -7.2280 C.2     1  UNL1        0.0120
     23  C         21.0420  -21.9060  -11.6700 C.2     1  UNL1       -0.0020
     24  C         21.7480  -21.3940  -12.7710 C.2     1  UNL1        0.0160
     25  C         23.0860  -21.7380  -12.9940 C.2     1  UNL1        0.0260
     26  C         23.7280  -22.6100  -12.1110 C.2     1  UNL1        0.0740
     27  C         23.0540  -23.1190  -11.0010 C.2     1  UNL1        0.0260
     28  C         21.7170  -22.7680  -10.7880 C.2     1  UNL1        0.0160
     29  S         25.4210  -23.0670  -12.3780 S.O2    1  UNL1        0.2390
     30  O         25.9800  -22.1910  -13.3830 O.2     1  UNL1       -0.2060
     31  O         26.0460  -23.2730  -11.0940 O.2     1  UNL1       -0.2060
     32  N         25.2500  -24.5660  -13.1260 N.3     1  UNL1       -0.2250
     33  H         26.0270  -24.7020  -13.7730 H       1  UNL1        0.1360
     34  H         24.3460  -24.6870  -13.5840 H       1  UNL1        0.1360
@<TRIPOS>BOND
     1    33    32    1
     2    34    32    1
     3    30    29    2
     4    32    29    1
     5    25    24    1
     6    25    26    2
     7    24    23    2
     8    29    26    1
     9    29    31    2
    10    26    27    1
    11    23     1    1
    12    23    28    1
    13     2     1    2
    14     2     3    1
    15     1     5    1
    16     3     4    2
    17    27    28    2
    18     5     4    1
    19     4     6    1
    20     6     7    1
    21     7    10    1
    22     7     8   am
    23     9     8    2
    24    21    20    2
    25    21    22    1
    26     8    11    1
    27    20    19    1
    28    22    17    2
    29    19    18    2
    30    11    12    2
    31    11    16    1
    32    17    18    1
    33    17    16    1
    34    12    13    1
    35    16    15    2
    36    13    14    2
    37    15    14    1
