@<TRIPOS>MOLECULE
46541_out_ligand_01.pdbqt
 35 38 0 0 0
SMALL
GASTEIGER

@<TRIPOS>ATOM
      1  C         24.0370  -22.0820  -10.8390 C.2     1  UNL1        0.2730
      2  O         24.9280  -21.4840  -10.2270 O.2     1  UNL1       -0.2660
      3  N         22.8660  -22.5070  -10.2010 N.am    1  UNL1       -0.3360
      4  C         22.7200  -22.2210   -8.7750 C.3     1  UNL1        0.1650
      5  C         21.3810  -22.6800   -8.2370 C.2     1  UNL1       -0.0400
      6  C         20.5860  -21.8060   -7.4790 C.2     1  UNL1        0.0100
      7  C         19.3570  -22.2280   -6.9680 C.2     1  UNL1        0.0170
      8  C         18.8980  -23.5240   -7.2240 C.2     1  UNL1        0.0320
      9  C         19.6890  -24.4070   -7.9680 C.2     1  UNL1        0.0170
     10  C         20.9220  -23.9830   -8.4750 C.2     1  UNL1        0.0100
     11  C         17.5840  -23.9350   -6.6620 C.2     1  UNL1        0.2520
     12  O         17.3440  -25.1220   -6.4650 O.2     1  UNL1       -0.2680
     13  N         16.7140  -22.9040   -6.3570 N.am    1  UNL1       -0.3520
     14  H         17.0580  -21.9530   -6.3820 H       1  UNL1        0.1630
     15  C         15.4360  -23.1380   -5.7610 C.3     1  UNL1        0.0840
     16  C         14.3800  -22.0660   -5.7830 C.3     1  UNL1        0.0270
     17  C         15.0450  -22.4340   -4.4890 C.3     1  UNL1        0.0270
     18  C         21.7120  -23.1270  -10.8570 C.3     1  UNL1        0.1910
     19  C         20.6710  -22.1050  -11.1590 C.2     1  UNL1        0.0700
     20  C         20.7260  -20.8200  -11.6580 C.2     1  UNL1        0.0360
     21  C         19.3910  -20.3590  -11.7360 C.2     1  UNL1        0.0270
     22  C         18.6030  -21.3940  -11.2890 C.2     1  UNL1        0.1420
     23  O         19.3680  -22.4610  -10.9440 O.2     1  UNL1       -0.3250
     24  C         24.2700  -22.3050  -12.3040 C.2     1  UNL1        0.1260
     25  N         23.8650  -21.3570  -13.1850 N.2     1  UNL1       -0.2290
     26  C         24.0460  -21.5630  -14.5070 C.2     1  UNL1        0.1350
     27  C         24.5990  -22.7570  -14.9770 C.2     1  UNL1        0.1420
     28  C         25.0020  -23.7450  -14.0710 C.2     1  UNL1        0.0420
     29  C         24.8350  -23.5100  -12.7090 C.2     1  UNL1        0.0400
     30  N         23.5400  -20.5460  -15.3200 N.pl3   1  UNL1       -0.2850
     31  H         22.7240  -20.1150  -14.8920 H       1  UNL1        0.1250
     32  H         23.2350  -20.9150  -16.2220 H       1  UNL1        0.1250
     33  N         24.7980  -22.9860  -16.3970 N.pl3   1  UNL1       -0.1120
     34  O         25.9210  -23.3540  -16.7640 O.2     1  UNL1       -0.5320
     35  O         23.8390  -22.7900  -17.1580 O.2     1  UNL1       -0.5320
@<TRIPOS>BOND
     1    35    33    2
     2    34    33    2
     3    33    27    1
     4    32    30    1
     5    30    31    1
     6    30    26    1
     7    27    26    2
     8    27    28    1
     9    26    25    1
    10    28    29    2
    11    25    24    2
    12    29    24    1
    13    24     1    1
    14    21    20    1
    15    21    22    2
    16    20    19    2
    17    22    23    1
    18    19    23    1
    19    19    18    1
    20    18     3    1
    21     1     2    2
    22     1     3   am
    23     3     4    1
    24     4     5    1
    25    10     5    2
    26    10     9    1
    27     5     6    1
    28     9     8    2
    29     6     7    2
    30     8     7    1
    31     8    11    1
    32    11    12    2
    33    11    13   am
    34    14    13    1
    35    13    15    1
    36    16    15    1
    37    16    17    1
    38    15    17    1
