@<TRIPOS>MOLECULE
46562_out_ligand_01.pdbqt
 32 34 0 0 0
SMALL
GASTEIGER

@<TRIPOS>ATOM
      1  N         22.5040  -22.9390  -10.8740 N.am    1  UNL1       -0.3530
      2  C         21.7720  -22.0330  -10.1470 C.2     1  UNL1        0.2520
      3  O         22.2240  -21.3880   -9.2060 O.2     1  UNL1       -0.2680
      4  H         22.0570  -23.4870  -11.6060 H       1  UNL1        0.1630
      5  C         20.3410  -21.8640  -10.5160 C.2     1  UNL1        0.0460
      6  C         20.0560  -20.9890  -11.5770 C.2     1  UNL1        0.0180
      7  C         18.7370  -20.7830  -11.9950 C.2     1  UNL1        0.0010
      8  C         17.6890  -21.4550  -11.3660 C.2     1  UNL1        0.0010
      9  C         17.9580  -22.3400  -10.3210 C.2     1  UNL1        0.0160
     10  C         19.2830  -22.5510   -9.9070 C.2     1  UNL1        0.0300
     11  C         19.5040  -23.5130   -8.8180 C.2     1  UNL1        0.1930
     12  O         20.2020  -24.4930   -9.0650 O.2     1  UNL1       -0.2870
     13  C         18.8970  -23.3040   -7.4740 C.2     1  UNL1        0.0150
     14  C         18.0880  -24.2700   -6.8600 C.2     1  UNL1        0.0170
     15  C         17.5470  -24.0250   -5.5920 C.2     1  UNL1        0.0200
     16  C         17.8180  -22.8220   -4.9380 C.2     1  UNL1        0.0110
     17 BR         17.0820  -22.4970   -3.2270 Br      1  UNL1       -0.0510
     18  C         18.6280  -21.8590   -5.5370 C.2     1  UNL1        0.0200
     19  C         19.1690  -22.1010   -6.8040 C.2     1  UNL1        0.0170
     20  C         23.8700  -23.2700  -10.5390 C.3     1  UNL1        0.1610
     21  C         24.8300  -22.7470  -11.5800 C.2     1  UNL1       -0.0390
     22  C         26.2170  -22.7990  -11.3600 C.2     1  UNL1        0.0090
     23  C         27.1110  -22.2930  -12.3100 C.2     1  UNL1        0.0020
     24  C         26.6300  -21.7430  -13.4970 C.2     1  UNL1        0.0250
     25  C         25.2520  -21.7070  -13.7310 C.2     1  UNL1        0.0740
     26  C         24.3510  -22.1900  -12.7750 C.2     1  UNL1        0.0330
     27  S         24.6350  -21.0340  -15.2530 S.O2    1  UNL1        0.2390
     28  O         25.5890  -20.0820  -15.7740 O.2     1  UNL1       -0.2060
     29  O         24.0970  -22.1130  -16.0500 O.2     1  UNL1       -0.2060
     30  N         23.2870  -20.1700  -14.7040 N.3     1  UNL1       -0.2250
     31  H         22.7790  -20.7530  -14.0360 H       1  UNL1        0.1360
     32  H         23.5410  -19.2660  -14.3000 H       1  UNL1        0.1360
@<TRIPOS>BOND
     1    29    27    2
     2    28    27    2
     3    27    30    1
     4    27    25    1
     5    30    32    1
     6    30    31    1
     7    25    24    2
     8    25    26    1
     9    24    23    1
    10    26    21    2
    11    23    22    2
    12     7     6    1
    13     7     8    2
    14     4     1    1
    15    21    22    1
    16    21    20    1
    17     6     5    2
    18     8     9    1
    19     1    20    1
    20     1     2   am
    21     5     2    1
    22     5    10    1
    23     9    10    2
    24     2     3    2
    25    10    11    1
    26    12    11    2
    27    11    13    1
    28    13    14    2
    29    13    19    1
    30    14    15    1
    31    19    18    2
    32    15    16    2
    33    18    16    1
    34    16    17    1
