@<TRIPOS>MOLECULE
46579_out_ligand_01.pdbqt
 28 31 0 0 0
SMALL
GASTEIGER

@<TRIPOS>ATOM
      1  O         19.5560  -20.8630  -10.9750 O.2     1  UNL1       -0.2670
      2  C         20.1150  -21.9350  -10.7500 C.2     1  UNL1        0.2610
      3  N         19.5980  -22.9660   -9.9940 N.am    1  UNL1       -0.3230
      4  H         20.1840  -23.7980   -9.8980 H       1  UNL1        0.1690
      5  C         21.4760  -22.2020  -11.3200 C.2     1  UNL1        0.1000
      6  C         21.8330  -21.5680  -12.4550 C.2     1  UNL1        0.0320
      7  C         23.1320  -21.7660  -13.0750 C.2     1  UNL1       -0.0340
      8  C         24.0120  -22.6140  -12.5130 C.2     1  UNL1        0.0180
      9  C         23.4340  -20.9910  -14.3310 C.3     1  UNL1        0.0400
     10  N         23.6710  -23.2730  -11.3550 N.am    1  UNL1       -0.3260
     11  C         25.3710  -22.8980  -13.0950 C.3     1  UNL1        0.0570
     12  C         22.4680  -23.1340  -10.7070 C.2     1  UNL1        0.2610
     13  H         24.3280  -23.9130  -10.9240 H       1  UNL1        0.1690
     14  O         22.2250  -23.7510   -9.6710 O.2     1  UNL1       -0.2670
     15  C         25.5160  -22.4030  -14.5360 C.3     1  UNL1        0.0060
     16  C         24.9200  -21.0090  -14.7030 C.3     1  UNL1        0.0050
     17  C         18.3540  -23.0200   -9.3320 C.2     1  UNL1        0.0350
     18  C         17.1200  -22.9280   -9.9730 C.2     1  UNL1        0.0290
     19  C         15.9360  -22.9920   -9.2370 C.2     1  UNL1        0.0030
     20  C         15.9730  -23.1480   -7.8500 C.2     1  UNL1        0.0150
     21  C         17.1980  -23.2440   -7.1800 C.2     1  UNL1        0.0140
     22  C         18.3810  -23.1780   -7.9380 C.2     1  UNL1        0.0440
     23  C         17.2910  -23.4090   -5.7270 C.2     1  UNL1        0.1610
     24  N         17.5480  -24.5300   -5.0720 N.2     1  UNL1       -0.1300
     25  N         17.5480  -24.2640   -3.7230 N.2     1  UNL1       -0.1430
     26  C         17.2920  -22.9900   -3.5740 C.2     1  UNL1        0.2330
     27  N         17.1240  -22.4150   -4.7950 N.pl3   1  UNL1       -0.3320
     28  H         16.9180  -21.4460   -4.9770 H       1  UNL1        0.1680
@<TRIPOS>BOND
     1    16    15    1
     2    16     9    1
     3    15    11    1
     4     9     7    1
     5    11     8    1
     6     7     8    2
     7     7     6    1
     8     8    10    1
     9     6     5    2
    10    10    13    1
    11    10    12   am
    12     5     2    1
    13     5    12    1
    14     1     2    2
    15     2     3   am
    16    12    14    2
    17     3     4    1
    18     3    17    1
    19    18    17    2
    20    18    19    1
    21    17    22    1
    22    19    20    2
    23    22    21    2
    24    20    21    1
    25    21    23    1
    26    23    24    2
    27    23    27    1
    28    24    25    1
    29    28    27    1
    30    27    26    1
    31    25    26    2
