@<TRIPOS>MOLECULE
46591_out_ligand_01.pdbqt
 28 30 0 0 0
SMALL
GASTEIGER

@<TRIPOS>ATOM
      1  S         16.7930  -23.6350   -8.2570 S.O2    1  UNL1        0.2640
      2  O         15.8710  -23.6540   -9.3730 O.2     1  UNL1       -0.2000
      3  O         16.7950  -24.6800   -7.2550 O.2     1  UNL1       -0.2000
      4  C         18.4690  -23.5550   -8.8790 C.2     1  UNL1        0.0910
      5  C         19.4240  -24.3880   -8.2800 C.2     1  UNL1        0.0290
      6  C         20.7550  -24.3310   -8.6770 C.2     1  UNL1        0.0390
      7  C         21.1490  -23.4470   -9.6810 C.2     1  UNL1        0.0790
      8  C         20.1920  -22.6120  -10.3190 C.2     1  UNL1        0.0090
      9  C         20.5750  -21.7240  -11.3510 C.2     1  UNL1        0.0150
     10  C         18.8230  -22.6660   -9.9310 C.2     1  UNL1        0.0000
     11  C         19.6540  -20.9120  -12.0090 C.2     1  UNL1        0.0010
     12  C         18.3170  -20.9740  -11.6550 C.2     1  UNL1        0.0010
     13  C         17.9100  -21.8380  -10.6380 C.2     1  UNL1        0.0140
     14  O         22.4490  -23.3250  -10.1180 O.2     1  UNL1       -0.3550
     15  C         23.4830  -23.3260   -9.1430 C.3     1  UNL1        0.2100
     16  N         16.5780  -22.1840   -7.4310 N.pl3   1  UNL1       -0.2800
     17  H         16.5790  -21.3880   -8.0890 H       1  UNL1        0.1790
     18  C         17.1710  -21.9160   -6.1480 C.2     1  UNL1        0.0580
     19  C         18.5050  -21.5010   -6.0300 C.2     1  UNL1        0.0310
     20  C         19.0890  -21.3060   -4.7760 C.2     1  UNL1        0.0020
     21  C         18.3580  -21.5410   -3.6180 C.2     1  UNL1        0.0010
     22  C         17.0430  -21.9970   -3.7110 C.2     1  UNL1        0.0190
     23  C         16.4530  -22.2180   -4.9670 C.2     1  UNL1        0.0590
     24  C         15.0580  -22.7430   -5.0490 C.2     1  UNL1        0.2510
     25  N         14.8400  -24.0540   -4.7200 N.am    1  UNL1       -0.3660
     26  H         15.5820  -24.7360   -4.6640 H       1  UNL1        0.1590
     27  H         13.9060  -24.4040   -4.8980 H       1  UNL1        0.1590
     28  O         14.1280  -22.0480   -5.4460 O.2     1  UNL1       -0.2680
@<TRIPOS>BOND
     1    11    12    1
     2    11     9    2
     3    12    13    2
     4     9     8    1
     5    13    10    1
     6     8    10    1
     7     8     7    2
     8    14     7    1
     9    14    15    1
    10    10     4    2
    11     7     6    1
    12     2     1    2
    13     4     5    1
    14     4     1    1
    15     6     5    2
    16     1    16    1
    17     1     3    2
    18    17    16    1
    19    16    18    1
    20    18    19    2
    21    18    23    1
    22    19    20    1
    23    28    24    2
    24    24    23    1
    25    24    25   am
    26    23    22    2
    27    27    25    1
    28    20    21    2
    29    25    26    1
    30    22    21    1
