@<TRIPOS>MOLECULE
46596_out_ligand_01.pdbqt
 27 30 0 0 0
SMALL
GASTEIGER

@<TRIPOS>ATOM
      1  O         20.0600  -24.7150   -8.7870 O.2     1  UNL1       -0.2670
      2  C         19.5430  -23.6250   -8.5590 C.2     1  UNL1        0.2580
      3  N         19.7930  -22.4640   -9.2610 N.am    1  UNL1       -0.3230
      4  H         19.2490  -21.6530   -8.9640 H       1  UNL1        0.1690
      5  C         20.6810  -22.2600  -10.3360 C.2     1  UNL1        0.0350
      6  C         20.1680  -21.6020  -11.4590 C.2     1  UNL1        0.0290
      7  C         20.9730  -21.3570  -12.5700 C.2     1  UNL1        0.0030
      8  C         22.3060  -21.7690  -12.5690 C.2     1  UNL1        0.0150
      9  C         22.8450  -22.4300  -11.4560 C.2     1  UNL1        0.0140
     10  C         22.0190  -22.6640  -10.3410 C.2     1  UNL1        0.0440
     11  C         24.2400  -22.8710  -11.4270 C.2     1  UNL1        0.1610
     12  N         25.0610  -23.0010  -12.4540 N.2     1  UNL1       -0.1300
     13  N         26.2830  -23.4320  -11.9910 N.2     1  UNL1       -0.1430
     14  C         26.1940  -23.5430  -10.6890 C.2     1  UNL1        0.2330
     15  N         24.9380  -23.2010  -10.2920 N.pl3   1  UNL1       -0.3320
     16  H         24.5940  -23.1690   -9.3460 H       1  UNL1        0.1680
     17  C         18.5480  -23.5340   -7.4300 C.2     1  UNL1        0.0620
     18  C         17.5240  -24.5010   -7.4380 C.2     1  UNL1        0.0210
     19  C         16.5540  -24.5140   -6.4460 C.2     1  UNL1        0.0260
     20  C         16.5990  -23.5590   -5.4370 C.2     1  UNL1        0.0460
     21 CL         15.3510  -23.6410   -4.2360 Cl      1  UNL1       -0.0830
     22  C         17.6170  -22.5750   -5.4040 C.2     1  UNL1        0.0150
     23  C         17.6980  -21.5880   -4.3960 C.2     1  UNL1        0.0170
     24  C         18.6120  -22.5580   -6.4160 C.2     1  UNL1        0.0840
     25  C         18.7100  -20.6390   -4.3970 C.2     1  UNL1        0.0200
     26  C         19.6300  -20.6950   -5.4130 C.2     1  UNL1        0.1170
     27  N         19.5970  -21.6180   -6.4000 N.2     1  UNL1       -0.2590
@<TRIPOS>BOND
     1     7     8    2
     2     7     6    1
     3     8     9    1
     4    12    13    1
     5    12    11    2
     6    13    14    2
     7     6     5    2
     8     9    11    1
     9     9    10    2
    10    11    15    1
    11    14    15    1
    12    10     5    1
    13     5     3    1
    14    15    16    1
    15     3     4    1
    16     3     2   am
    17     1     2    2
    18     2    17    1
    19    18    17    2
    20    18    19    1
    21    17    24    1
    22    19    20    2
    23    24    27    1
    24    24    22    2
    25    27    26    2
    26    20    22    1
    27    20    21    1
    28    26    25    1
    29    22    23    1
    30    25    23    2
