@<TRIPOS>MOLECULE
46609_out_ligand_01.pdbqt
 26 29 0 0 0
SMALL
GASTEIGER

@<TRIPOS>ATOM
      1  O         21.0820  -22.1190   -7.3090 O.2     1  UNL1       -0.2670
      2  C         20.0750  -22.5530   -7.8530 C.2     1  UNL1        0.2560
      3  N         19.9040  -22.8140   -9.2000 N.am    1  UNL1       -0.3230
      4  H         19.0860  -23.3520   -9.4550 H       1  UNL1        0.1690
      5  C         20.8040  -22.5240  -10.2470 C.2     1  UNL1        0.0350
      6  C         20.3140  -21.7610  -11.3130 C.2     1  UNL1        0.0290
      7  C         21.1380  -21.4260  -12.3870 C.2     1  UNL1        0.0030
      8  C         22.4670  -21.8490  -12.4040 C.2     1  UNL1        0.0150
      9  C         22.9830  -22.6090  -11.3440 C.2     1  UNL1        0.0140
     10  C         22.1400  -22.9340  -10.2670 C.2     1  UNL1        0.0440
     11  C         24.3770  -23.0500  -11.3310 C.2     1  UNL1        0.1610
     12  N         25.1590  -23.2650  -12.3730 N.2     1  UNL1       -0.1300
     13  N         26.3960  -23.6650  -11.9190 N.2     1  UNL1       -0.1430
     14  C         26.3530  -23.6670  -10.6100 C.2     1  UNL1        0.2330
     15  N         25.1130  -23.2900  -10.1970 N.pl3   1  UNL1       -0.3320
     16  H         24.8020  -23.1760   -9.2460 H       1  UNL1        0.1680
     17  C         18.9050  -22.9120   -7.0010 C.2     1  UNL1        0.0340
     18  C         18.2390  -24.1120   -7.2640 C.2     1  UNL1        0.0180
     19  C         17.1280  -24.4950   -6.5010 C.2     1  UNL1        0.0150
     20  C         16.6950  -23.6630   -5.4500 C.2     1  UNL1       -0.0080
     21  C         15.6380  -23.7430   -4.5010 C.2     1  UNL1        0.0300
     22  C         17.3900  -22.4810   -5.1930 C.2     1  UNL1        0.0430
     23  C         15.7160  -22.6330   -3.6930 C.2     1  UNL1        0.0890
     24  N         16.7810  -21.8810   -4.1120 N.pl3   1  UNL1       -0.3650
     25  H         17.0810  -21.0130   -3.6900 H       1  UNL1        0.1650
     26  C         18.5010  -22.0760   -5.9460 C.2     1  UNL1        0.0470
@<TRIPOS>BOND
     1     8     7    2
     2     8     9    1
     3     7     6    1
     4    12    13    1
     5    12    11    2
     6    13    14    2
     7     9    11    1
     8     9    10    2
     9    11    15    1
    10     6     5    2
    11    14    15    1
    12    10     5    1
    13     5     3    1
    14    15    16    1
    15     4     3    1
    16     3     2   am
    17     2     1    2
    18     2    17    1
    19    18    17    2
    20    18    19    1
    21    17    26    1
    22    19    20    2
    23    26    22    2
    24    20    22    1
    25    20    21    1
    26    22    24    1
    27    21    23    2
    28    24    23    1
    29    24    25    1
