@<TRIPOS>MOLECULE
46612_out_ligand_01.pdbqt
 32 35 0 0 0
SMALL
GASTEIGER

@<TRIPOS>ATOM
      1  C         15.5490  -22.1070   -9.9210 C.3     1  UNL1        0.0500
      2  C         17.0400  -22.0430  -10.1340 C.2     1  UNL1       -0.0350
      3  C         17.5110  -21.7520  -11.4260 C.2     1  UNL1        0.0100
      4  C         18.8770  -21.6770  -11.6880 C.2     1  UNL1        0.0170
      5  C         19.7900  -21.8950  -10.6540 C.2     1  UNL1        0.0340
      6  C         19.3330  -22.2000   -9.3650 C.2     1  UNL1        0.0470
      7  C         17.9630  -22.2680   -9.0860 C.2     1  UNL1        0.0420
      8  C         21.2530  -21.8420  -10.9010 C.2     1  UNL1        0.2520
      9  O         22.0440  -21.8830   -9.9680 O.2     1  UNL1       -0.2680
     10  N         21.6350  -21.7290  -12.2220 N.am    1  UNL1       -0.3520
     11  H         20.9280  -21.6160  -12.9360 H       1  UNL1        0.1630
     12  C         23.0420  -21.6720  -12.6090 C.3     1  UNL1        0.0890
     13  C         23.1780  -21.0880  -14.0390 C.3     1  UNL1        0.0310
     14  C         24.6480  -20.9190  -14.4710 C.3     1  UNL1        0.0610
     15  C         25.4070  -22.1340  -14.0960 C.2     1  UNL1        0.0350
     16  N         26.6390  -22.4970  -14.5480 N.pl3   1  UNL1       -0.2820
     17  C         25.0170  -23.0990  -13.1970 C.2     1  UNL1       -0.0130
     18  N         27.0710  -23.6530  -14.0070 N.2     1  UNL1       -0.1860
     19  H         27.2400  -22.0190  -15.2110 H       1  UNL1        0.1890
     20  C         26.0840  -24.0130  -13.1800 C.2     1  UNL1        0.1480
     21  C         23.7160  -23.0700  -12.4830 C.3     1  UNL1        0.0670
     22  N         17.4620  -22.5650   -7.7950 N.am    1  UNL1       -0.3220
     23  C         17.8080  -23.6120   -6.9610 C.2     1  UNL1        0.2590
     24  O         18.6670  -24.4580   -7.1910 O.2     1  UNL1       -0.2670
     25  H         16.7750  -21.9150   -7.4300 H       1  UNL1        0.1690
     26  C         17.0770  -23.7010   -5.6580 C.2     1  UNL1        0.0700
     27  C         17.8020  -23.5100   -4.4700 C.2     1  UNL1        0.0200
     28  C         17.1670  -23.5830   -3.2260 C.2     1  UNL1        0.0010
     29  C         15.8010  -23.8470   -3.1530 C.2     1  UNL1        0.0030
     30  C         15.0700  -24.0370   -4.3240 C.2     1  UNL1        0.0430
     31  C         15.7070  -23.9630   -5.5620 C.2     1  UNL1        0.1320
     32  F         14.9600  -24.1510   -6.6610 F       1  UNL1       -0.2050
@<TRIPOS>BOND
     1    19    16    1
     2    16    15    1
     3    16    18    1
     4    14    15    1
     5    14    13    1
     6    15    17    2
     7    13    12    1
     8    18    20    2
     9    17    20    1
    10    17    21    1
    11    11    10    1
    12    12    21    1
    13    12    10    1
    14    10     8   am
    15     4     3    1
    16     4     5    2
    17     3     2    2
    18     8     5    1
    19     8     9    2
    20     5     6    1
    21     2     1    1
    22     2     7    1
    23     6     7    2
    24     7    22    1
    25    22    25    1
    26    22    23   am
    27    24    23    2
    28    23    26    1
    29    32    31    1
    30    26    31    2
    31    26    27    1
    32    31    30    1
    33    27    28    2
    34    30    29    2
    35    28    29    1
