@<TRIPOS>MOLECULE
46628_out_ligand_01.pdbqt
 26 29 0 0 0
SMALL
GASTEIGER

@<TRIPOS>ATOM
      1  C         24.2330  -21.8050  -12.7860 C.3     1  UNL1        0.0720
      2  C         23.0910  -22.1740  -11.9170 C.2     1  UNL1        0.0550
      3  C         23.0960  -23.0270  -10.7900 C.2     1  UNL1        0.0810
      4  C         21.7980  -23.0480  -10.3320 C.2     1  UNL1        0.1560
      5  N         21.2120  -23.6920   -9.2820 N.2     1  UNL1       -0.2040
      6  C         19.9350  -23.4940   -9.1280 C.2     1  UNL1        0.1840
      7  C         19.0860  -22.6320   -9.9960 C.2     1  UNL1        0.0460
      8  C         17.7140  -22.4410   -9.8030 C.2     1  UNL1        0.0180
      9  C         17.0040  -21.6090  -10.6760 C.2     1  UNL1        0.0010
     10  C         17.6550  -20.9680  -11.7340 C.2     1  UNL1        0.0020
     11  C         19.0230  -21.1520  -11.9360 C.2     1  UNL1        0.0320
     12  C         19.7250  -21.9840  -11.0620 C.2     1  UNL1        0.0750
     13  N         21.1000  -22.2220  -11.1980 N.pl3   1  UNL1       -0.2140
     14  N         21.8700  -21.6800  -12.1650 N.2     1  UNL1       -0.1710
     15  O         19.1720  -24.0590   -8.1220 O.2     1  UNL1       -0.2910
     16  C         18.9360  -23.2350   -7.0150 C.2     1  UNL1        0.0790
     17  C         19.6890  -22.0740   -6.8500 C.2     1  UNL1        0.0370
     18  C         19.4150  -21.2340   -5.7730 C.2     1  UNL1        0.0040
     19  C         18.3920  -21.5570   -4.8750 C.2     1  UNL1        0.0170
     20  C         17.6380  -22.7280   -5.0560 C.2     1  UNL1        0.0340
     21  C         17.9000  -23.5630   -6.1450 C.2     1  UNL1        0.0540
     22  C         16.5360  -23.1020   -4.1320 C.2     1  UNL1        0.2490
     23  N         15.9920  -22.1070   -3.3680 N.am    1  UNL1       -0.3660
     24  H         15.3480  -22.4140   -2.6500 H       1  UNL1        0.1590
     25  H         16.4830  -21.2390   -3.2050 H       1  UNL1        0.1590
     26  O         16.1470  -24.2580   -4.0260 O.2     1  UNL1       -0.2680
@<TRIPOS>BOND
     1     1     2    1
     2    14     2    2
     3    14    13    1
     4    11    10    2
     5    11    12    1
     6     2     3    1
     7    10     9    1
     8    13    12    1
     9    13     4    1
    10    12     7    2
    11     3     4    2
    12     9     8    2
    13     4     5    1
    14     7     8    1
    15     7     6    1
    16     5     6    2
    17     6    15    1
    18    15    16    1
    19    16    17    2
    20    16    21    1
    21    17    18    1
    22    21    20    2
    23    18    19    2
    24    20    19    1
    25    20    22    1
    26    22    26    2
    27    22    23   am
    28    23    25    1
    29    23    24    1
