@<TRIPOS>MOLECULE
46634_out_ligand_01.pdbqt
 36 39 0 0 0
SMALL
GASTEIGER

@<TRIPOS>ATOM
      1  C         22.9050  -21.9350  -11.5810 C.3     1  UNL1        0.1810
      2  C         21.5820  -21.8990  -12.3300 C.3     1  UNL1        0.0430
      3  N         23.5480  -23.2480  -11.8150 N.3     1  UNL1       -0.3020
      4  H         23.3050  -23.9670  -11.1240 H       1  UNL1        0.1730
      5  S         25.1330  -23.3120  -12.3370 S.O2    1  UNL1        0.2590
      6  O         25.2230  -24.4090  -13.2760 O.2     1  UNL1       -0.2010
      7  O         25.9720  -23.2370  -11.1640 O.2     1  UNL1       -0.2010
      8  C         25.3420  -21.8000  -13.2450 C.2     1  UNL1        0.0790
      9  C         24.6920  -21.6280  -14.4680 C.2     1  UNL1        0.0270
     10  C         24.8910  -20.4460  -15.1880 C.2     1  UNL1        0.0310
     11  C         25.7310  -19.4340  -14.6970 C.2     1  UNL1        0.0340
     12  C         26.3490  -19.6130  -13.4580 C.2     1  UNL1        0.0310
     13  C         26.1580  -20.7920  -12.7300 C.2     1  UNL1        0.0270
     14  N         25.8990  -18.2850  -15.4970 N.am    1  UNL1       -0.3280
     15  C         26.5160  -18.2050  -16.7320 C.2     1  UNL1        0.2180
     16  C         26.5970  -16.7960  -17.2660 C.3     1  UNL1        0.1170
     17  O         26.9920  -19.1350  -17.3770 O.2     1  UNL1       -0.2740
     18  H         25.4610  -17.4360  -15.1580 H       1  UNL1        0.1690
     19  C         22.6560  -21.8400  -10.0630 C.2     1  UNL1        0.2420
     20  O         23.2570  -20.9770   -9.4080 O.2     1  UNL1       -0.2710
     21  N         21.7790  -22.7240   -9.4560 N.am    1  UNL1       -0.3500
     22  C         20.8890  -23.6560  -10.1420 C.3     1  UNL1        0.1260
     23  C         21.5910  -22.6360   -8.0050 C.3     1  UNL1        0.1260
     24  C         19.4270  -23.2240   -9.9800 C.3     1  UNL1        0.0290
     25  C         19.1790  -22.4900   -8.6450 C.3     1  UNL1        0.0240
     26  C         20.1640  -22.9870   -7.5790 C.3     1  UNL1        0.0290
     27  C         17.7560  -22.5130   -8.1570 C.2     1  UNL1       -0.0260
     28  C         16.5970  -22.6540   -8.8960 C.2     1  UNL1        0.0960
     29  N         15.5270  -22.6110   -8.0430 N.pl3   1  UNL1       -0.3650
     30  C         15.9580  -22.4680   -6.7460 C.2     1  UNL1        0.0420
     31  H         14.5590  -22.6810   -8.3220 H       1  UNL1        0.1650
     32  C         15.2250  -22.3890   -5.5550 C.2     1  UNL1        0.0300
     33  C         17.3490  -22.4050   -6.7820 C.2     1  UNL1       -0.0010
     34  C         15.9410  -22.2450   -4.3630 C.2     1  UNL1        0.0020
     35  C         17.3310  -22.1830   -4.3630 C.2     1  UNL1        0.0010
     36  C         18.0460  -22.2630   -5.5630 C.2     1  UNL1        0.0140
@<TRIPOS>BOND
     1    17    15    2
     2    16    15    1
     3    15    14   am
     4    14    18    1
     5    14    11    1
     6    10    11    2
     7    10     9    1
     8    11    12    1
     9     9     8    2
    10    12    13    2
    11     6     5    2
    12     8    13    1
    13     8     5    1
    14     5     3    1
    15     5     7    2
    16     2     1    1
    17     3     1    1
    18     3     4    1
    19     1    19    1
    20    22    24    1
    21    22    21    1
    22    19    21   am
    23    19    20    2
    24    24    25    1
    25    21    23    1
    26    28    27    2
    27    28    29    1
    28    25    27    1
    29    25    26    1
    30    31    29    1
    31    27    33    1
    32    29    30    1
    33    23    26    1
    34    33    30    2
    35    33    36    1
    36    30    32    1
    37    36    35    2
    38    32    34    2
    39    34    35    1
