@<TRIPOS>MOLECULE
46645_out_ligand_01.pdbqt
 35 39 0 0 0
SMALL
GASTEIGER

@<TRIPOS>ATOM
      1  C         19.1330  -22.7840  -10.3450 C.2     1  UNL1       -0.0370
      2  C         17.7330  -22.7550  -10.5260 C.2     1  UNL1        0.0090
      3  C         17.1140  -21.6970  -11.1870 C.2     1  UNL1        0.0010
      4  C         17.8810  -20.6470  -11.6680 C.2     1  UNL1        0.0010
      5  C         19.2690  -20.6620  -11.5030 C.2     1  UNL1        0.0090
      6  C         19.9280  -21.7320  -10.8700 C.2     1  UNL1       -0.0230
      7  C         19.7110  -23.9450   -9.5570 C.3     1  UNL1        0.1310
      8  N         20.0890  -23.5540   -8.1890 N.pl3   1  UNL1       -0.2870
      9  H         20.7030  -24.2950   -7.8240 H       1  UNL1        0.1280
     10  C         18.9750  -23.5590   -7.2840 C.2     1  UNL1        0.0380
     11  C         18.0520  -24.6120   -7.3450 C.2     1  UNL1        0.0280
     12  C         16.9860  -24.6530   -6.4600 C.2     1  UNL1        0.0390
     13  C         16.8550  -23.6260   -5.5170 C.2     1  UNL1        0.1150
     14  C         17.7750  -22.5490   -5.4180 C.2     1  UNL1        0.0280
     15  C         17.7180  -21.4920   -4.4740 C.2     1  UNL1        0.0180
     16  C         18.8550  -22.5280   -6.3270 C.2     1  UNL1        0.0900
     17  C         18.6790  -20.4890   -4.4710 C.2     1  UNL1        0.0200
     18  C         19.6880  -20.5620   -5.4060 C.2     1  UNL1        0.1170
     19  N         19.7930  -21.5530   -6.3160 N.2     1  UNL1       -0.2580
     20  N         15.7190  -23.7090   -4.6170 N.pl3   1  UNL1       -0.1150
     21  O         15.8370  -24.4490   -3.6320 O.2     1  UNL1       -0.5320
     22  O         14.7110  -23.0510   -4.9060 O.2     1  UNL1       -0.5320
     23  C         21.4400  -21.7050  -10.6720 C.3     1  UNL1        0.3110
     24  N         22.3220  -22.0080  -11.8060 N.3     1  UNL1        0.0950
     25  C         22.2010  -21.1170  -12.9700 C.3     1  UNL1        0.2920
     26  C         23.0300  -21.6080  -14.1850 C.3     1  UNL1        0.1530
     27  N         24.4470  -21.8310  -13.8080 N.pl3   1  UNL1       -0.3780
     28  C         24.5540  -22.7680  -12.6690 C.3     1  UNL1        0.1530
     29  C         23.7200  -22.2910  -11.4540 C.3     1  UNL1        0.2920
     30  C         25.3170  -20.7420  -13.9200 C.2     1  UNL1        0.0300
     31  C         25.3370  -19.8730  -15.0220 C.2     1  UNL1        0.0290
     32  C         26.2240  -18.7900  -15.0990 C.2     1  UNL1        0.0020
     33  C         27.1070  -18.5340  -14.0580 C.2     1  UNL1        0.0000
     34  C         27.0920  -19.3530  -12.9360 C.2     1  UNL1        0.0020
     35  C         26.2030  -20.4330  -12.8710 C.2     1  UNL1        0.0290
@<TRIPOS>BOND
     1    32    31    1
     2    32    33    2
     3    31    30    2
     4    26    27    1
     5    26    25    1
     6    33    34    1
     7    30    27    1
     8    30    35    1
     9    27    28    1
    10    25    24    1
    11    34    35    2
    12    28    29    1
    13    24    29    1
    14    24    23    1
    15     4     5    2
    16     4     3    1
    17     5     6    1
    18     3     2    2
    19     6    23    1
    20     6     1    2
    21     2     1    1
    22     1     7    1
    23     7     8    1
    24     8     9    1
    25     8    10    1
    26    11    10    2
    27    11    12    1
    28    10    16    1
    29    12    13    2
    30    16    19    1
    31    16    14    2
    32    19    18    2
    33    13    14    1
    34    13    20    1
    35    14    15    1
    36    18    17    1
    37    22    20    2
    38    20    21    2
    39    15    17    2
