@<TRIPOS>MOLECULE
46649_out_ligand_01.pdbqt
 33 35 0 0 0
SMALL
GASTEIGER

@<TRIPOS>ATOM
      1  C         17.3140  -23.1910   -8.7620 C.2     1  UNL1        0.0750
      2  C         16.4190  -22.5090   -9.5920 C.2     1  UNL1        0.0250
      3  C         16.9070  -21.6800  -10.6040 C.2     1  UNL1        0.0090
      4  C         18.2900  -21.5220  -10.7960 C.2     1  UNL1       -0.0460
      5  C         18.7750  -20.5870  -11.8690 C.3     1  UNL1        0.0490
      6  C         19.1730  -22.2430   -9.9670 C.2     1  UNL1        0.0390
      7  C         18.6910  -23.0590   -8.9360 C.2     1  UNL1        0.0420
      8  C         20.6430  -22.1650  -10.1240 C.2     1  UNL1        0.2520
      9  O         21.3660  -22.1100   -9.1400 O.2     1  UNL1       -0.2680
     10  N         21.0960  -22.1960  -11.4240 N.am    1  UNL1       -0.3510
     11  H         20.4200  -22.1790  -12.1770 H       1  UNL1        0.1630
     12  C         22.4960  -21.9710  -11.7230 C.3     1  UNL1        0.1040
     13  C         23.3400  -23.2370  -11.5830 C.3     1  UNL1        0.0460
     14  C         24.5770  -22.9120  -12.4100 C.3     1  UNL1        0.1280
     15  N         24.0840  -22.0660  -13.4840 N.am    1  UNL1       -0.3500
     16  C         24.6740  -21.7920  -14.6980 C.2     1  UNL1        0.2230
     17  C         22.7550  -21.5530  -13.1760 C.3     1  UNL1        0.1500
     18  O         24.0750  -21.1520  -15.5630 O.2     1  UNL1       -0.2730
     19  C         26.1080  -22.2790  -14.9180 C.3     1  UNL1        0.0700
     20  C         26.3010  -22.7470  -16.3620 C.3     1  UNL1        0.0190
     21  C         27.0990  -21.1620  -14.5970 C.3     1  UNL1        0.0190
     22  S         16.6670  -24.2190   -7.4650 S.O2    1  UNL1        0.2450
     23  O         15.5720  -24.9940   -8.0080 O.2     1  UNL1       -0.2060
     24  O         17.7980  -24.8270   -6.8020 O.2     1  UNL1       -0.2060
     25  N         15.9560  -23.0280   -6.4660 N.pl3   1  UNL1       -0.1810
     26  H         15.1570  -23.4740   -6.0110 H       1  UNL1        0.1460
     27  C         16.8500  -22.5000   -5.4740 C.2     1  UNL1        0.0230
     28  C         16.6180  -22.7810   -4.1300 C.2     1  UNL1        0.0240
     29  C         17.4520  -22.2350   -3.1560 C.2     1  UNL1        0.0020
     30  C         18.5120  -21.4050   -3.5260 C.2     1  UNL1        0.0070
     31  C         18.7450  -21.1090   -4.8750 C.2     1  UNL1       -0.0600
     32  C         19.8470  -20.1700   -5.2680 C.3     1  UNL1        0.0480
     33  C         17.8930  -21.6490   -5.8480 C.2     1  UNL1        0.0310
@<TRIPOS>BOND
     1    20    19    1
     2    18    16    2
     3    19    16    1
     4    19    21    1
     5    16    15   am
     6    15    17    1
     7    15    14    1
     8    17    12    1
     9    14    13    1
    10    11    10    1
    11     5     4    1
    12    12    13    1
    13    12    10    1
    14    10     8   am
    15     4     3    2
    16     4     6    1
    17     3     2    1
    18     8     6    1
    19     8     9    2
    20     6     7    2
    21     2     1    2
    22     7     1    1
    23     1    22    1
    24    23    22    2
    25    22    24    2
    26    22    25    1
    27    25    26    1
    28    25    27    1
    29    33    27    2
    30    33    31    1
    31    27    28    1
    32    32    31    1
    33    31    30    2
    34    28    29    2
    35    30    29    1
