@<TRIPOS>MOLECULE
46654_out_ligand_01.pdbqt
 28 31 0 0 0
SMALL
GASTEIGER

@<TRIPOS>ATOM
      1  O         22.4020  -21.2770   -7.1140 O.2     1  UNL1       -0.2670
      2  C         21.6590  -21.9330   -7.8390 C.2     1  UNL1        0.2600
      3  N         20.3180  -22.1700   -7.6030 N.am    1  UNL1       -0.3230
      4  H         19.8040  -22.6490   -8.3310 H       1  UNL1        0.1690
      5  C         22.1650  -22.4990   -9.0880 C.2     1  UNL1        0.0800
      6  C         23.4000  -23.1130   -9.2100 C.2     1  UNL1        0.1280
      7  N         23.5290  -23.4760  -10.5110 N.pl3   1  UNL1       -0.2880
      8  N         22.4700  -23.1530  -11.2620 N.2     1  UNL1       -0.1740
      9  H         24.3110  -23.9440  -10.9590 H       1  UNL1        0.1880
     10  C         21.6000  -22.5990  -10.4000 C.2     1  UNL1        0.1040
     11  C         20.2760  -22.1920  -10.8640 C.2     1  UNL1       -0.0050
     12  C         19.1390  -22.9350  -10.5200 C.2     1  UNL1        0.0140
     13  C         17.8720  -22.5050  -10.9160 C.2     1  UNL1        0.0010
     14  C         17.7340  -21.3380  -11.6660 C.2     1  UNL1        0.0000
     15  C         18.8620  -20.6050  -12.0320 C.2     1  UNL1        0.0010
     16  C         20.1310  -21.0320  -11.6350 C.2     1  UNL1        0.0140
     17  C         19.5570  -21.8110   -6.4710 C.2     1  UNL1        0.0350
     18  C         19.8780  -20.7630   -5.6110 C.2     1  UNL1        0.0290
     19  C         19.0670  -20.4850   -4.5070 C.2     1  UNL1        0.0030
     20  C         17.9290  -21.2550   -4.2520 C.2     1  UNL1        0.0150
     21  C         17.5870  -22.3150   -5.1000 C.2     1  UNL1        0.0140
     22  C         18.4140  -22.5790   -6.2060 C.2     1  UNL1        0.0440
     23  C         16.4100  -23.1560   -4.8770 C.2     1  UNL1        0.1610
     24  N         16.2500  -24.0540   -3.9190 N.2     1  UNL1       -0.1300
     25  N         15.0100  -24.6320   -4.0560 N.2     1  UNL1       -0.1430
     26  C         14.4340  -24.0820   -5.0960 C.2     1  UNL1        0.2330
     27  N         15.2690  -23.1570   -5.6410 N.pl3   1  UNL1       -0.3320
     28  H         15.0850  -22.5900   -6.4520 H       1  UNL1        0.1680
@<TRIPOS>BOND
     1    15    14    2
     2    15    16    1
     3    14    13    1
     4    16    11    2
     5     8     7    1
     6     8    10    2
     7     9     7    1
     8    13    12    2
     9    11    12    1
    10    11    10    1
    11     7     6    1
    12    10     5    1
    13     6     5    2
    14     5     2    1
    15     4     3    1
    16     2     3   am
    17     2     1    2
    18     3    17    1
    19    17    22    2
    20    17    18    1
    21    28    27    1
    22    22    21    1
    23    27    26    1
    24    27    23    1
    25    18    19    2
    26    21    23    1
    27    21    20    2
    28    26    25    2
    29    23    24    2
    30    19    20    1
    31    25    24    1
