@<TRIPOS>MOLECULE
46698_out_ligand_01.pdbqt
 34 37 0 0 0
SMALL
GASTEIGER

@<TRIPOS>ATOM
      1  C         19.8730  -21.6970  -11.3760 C.2     1  UNL1        0.0540
      2  C         19.0310  -20.5930  -11.6050 C.2     1  UNL1        0.0190
      3  C         17.7060  -20.6150  -11.1700 C.2     1  UNL1        0.0010
      4  C         17.2090  -21.7350  -10.5080 C.2     1  UNL1        0.0020
      5  C         18.0450  -22.8220  -10.2490 C.2     1  UNL1        0.0250
      6  C         19.3890  -22.7990  -10.6410 C.2     1  UNL1        0.0380
      7  C         21.2770  -21.6900  -11.8920 C.2     1  UNL1        0.2580
      8  O         21.4590  -21.4140  -13.0730 O.2     1  UNL1       -0.2670
      9  N         22.2620  -21.9360  -10.9520 N.am    1  UNL1       -0.3230
     10  H         21.9790  -21.9670   -9.9810 H       1  UNL1        0.1690
     11  C         23.6530  -22.0360  -11.1760 C.2     1  UNL1        0.0350
     12  C         24.6080  -21.2700  -10.5080 C.2     1  UNL1        0.0290
     13  C         25.9650  -21.4270  -10.7930 C.2     1  UNL1        0.0030
     14  C         26.3820  -22.3520  -11.7510 C.2     1  UNL1        0.0140
     15  C         25.4440  -23.1310  -12.4370 C.2     1  UNL1       -0.0060
     16  C         24.0820  -22.9580  -12.1440 C.2     1  UNL1        0.0430
     17  C         25.8630  -24.1050  -13.4420 C.2     1  UNL1        0.0610
     18  C         27.1150  -24.5490  -13.8270 C.2     1  UNL1        0.0530
     19  C         26.8820  -25.4830  -14.8510 C.2     1  UNL1        0.1410
     20  N         25.5860  -25.6260  -15.1200 N.2     1  UNL1       -0.1870
     21  N         24.9900  -24.7800  -14.2620 N.pl3   1  UNL1       -0.2780
     22  H         23.9810  -24.6980  -14.2930 H       1  UNL1        0.1890
     23  N         20.2390  -23.9170  -10.3240 N.pl3   1  UNL1       -0.1800
     24  H         21.0530  -24.0140  -10.9500 H       1  UNL1        0.1460
     25  S         20.7860  -24.1030   -8.7290 S.O2    1  UNL1        0.2450
     26  O         21.8670  -23.1590   -8.5440 O.2     1  UNL1       -0.2060
     27  O         20.9770  -25.5110   -8.4480 O.2     1  UNL1       -0.2060
     28  C         19.4090  -23.5340   -7.7520 C.2     1  UNL1        0.0750
     29  C         18.3260  -24.3880   -7.5080 C.2     1  UNL1        0.0280
     30  C         17.2570  -23.9340   -6.7350 C.2     1  UNL1        0.0440
     31  C         17.2870  -22.6450   -6.2100 C.2     1  UNL1        0.1160
     32  F         16.2560  -22.2120   -5.4730 F       1  UNL1       -0.2060
     33  C         18.3680  -21.7990   -6.4360 C.2     1  UNL1        0.0440
     34  C         19.4430  -22.2460   -7.2060 C.2     1  UNL1        0.0280
@<TRIPOS>BOND
     1    20    19    2
     2    20    21    1
     3    19    18    1
     4    22    21    1
     5    21    17    1
     6    18    17    2
     7    17    15    1
     8     8     7    2
     9    15    16    1
    10    15    14    2
    11    16    11    2
    12     7     1    1
    13     7     9   am
    14    14    13    1
    15     2     1    2
    16     2     3    1
    17     1     6    1
    18    11     9    1
    19    11    12    1
    20     3     4    2
    21     9    10    1
    22    24    23    1
    23    13    12    2
    24     6    23    1
    25     6     5    2
    26     4     5    1
    27    23    25    1
    28    25    26    2
    29    25    27    2
    30    25    28    1
    31    28    29    2
    32    28    34    1
    33    29    30    1
    34    34    33    2
    35    30    31    2
    36    33    31    1
    37    31    32    1
