@<TRIPOS>MOLECULE
46692_out_ligand_01.pdbqt
 36 39 0 0 0
SMALL
GASTEIGER

@<TRIPOS>ATOM
      1  O         23.8230  -24.0120   -8.8750 O.2     1  UNL1       -0.2670
      2  C         22.9350  -23.2860   -9.3040 C.2     1  UNL1        0.2560
      3  N         23.0090  -22.4270  -10.3860 N.am    1  UNL1       -0.3230
      4  H         22.2080  -21.8370  -10.5640 H       1  UNL1        0.1690
      5  C         21.6260  -23.2870   -8.5910 C.2     1  UNL1        0.0320
      6  C         21.1800  -22.1770   -7.8580 C.2     1  UNL1        0.0180
      7  C         19.9440  -22.2170   -7.2070 C.2     1  UNL1        0.0260
      8  C         19.1530  -23.3670   -7.3030 C.2     1  UNL1        0.0740
      9  C         19.5770  -24.4690   -8.0480 C.2     1  UNL1        0.0260
     10  C         20.8150  -24.4260   -8.6920 C.2     1  UNL1        0.0180
     11  S         17.5770  -23.4280   -6.4910 S.O2    1  UNL1        0.2410
     12  O         17.0690  -24.7790   -6.5740 O.2     1  UNL1       -0.2060
     13  O         17.7040  -22.7250   -5.2360 O.2     1  UNL1       -0.2060
     14  N         16.6170  -22.5160   -7.5380 N.3     1  UNL1       -0.2090
     15  H         17.1290  -21.6650   -7.7830 H       1  UNL1        0.1400
     16  C         16.2830  -23.2340   -8.7860 C.3     1  UNL1        0.1690
     17  C         16.9820  -22.5400   -9.8980 C.2     1  UNL1        0.0660
     18  C         18.1020  -22.8350  -10.6470 C.2     1  UNL1        0.0360
     19  C         18.2590  -21.7700  -11.5660 C.2     1  UNL1        0.0270
     20  C         17.2270  -20.8970  -11.3220 C.2     1  UNL1        0.1420
     21  O         16.4430  -21.3560  -10.3130 O.2     1  UNL1       -0.3260
     22  C         24.1050  -22.2330  -11.2550 C.2     1  UNL1        0.0350
     23  C         25.1330  -21.3960  -10.8040 C.2     1  UNL1        0.0290
     24  C         26.2480  -21.1400  -11.6030 C.2     1  UNL1        0.0030
     25  C         26.3460  -21.7170  -12.8660 C.2     1  UNL1        0.0090
     26  C         25.3320  -22.5610  -13.3380 C.2     1  UNL1       -0.0370
     27  C         24.2160  -22.8160  -12.5200 C.2     1  UNL1        0.0380
     28  C         25.4450  -23.2060  -14.7010 C.3     1  UNL1        0.1750
     29  N         25.3030  -22.2430  -15.7680 N.am    1  UNL1       -0.2640
     30  C         26.1450  -22.1330  -16.8370 C.2     1  UNL1        0.2450
     31  O         27.1210  -22.8290  -17.0830 O.2     1  UNL1       -0.2710
     32  C         25.6610  -20.9910  -17.7150 C.3     1  UNL1        0.2270
     33  N         24.5020  -20.5650  -16.9850 N.am    1  UNL1       -0.3340
     34  C         24.3060  -21.3210  -15.8500 C.2     1  UNL1        0.3250
     35  H         23.8600  -19.8310  -17.2470 H       1  UNL1        0.1640
     36  O         23.3720  -21.1600  -15.0830 O.2     1  UNL1       -0.2470
@<TRIPOS>BOND
     1    32    33    1
     2    32    30    1
     3    35    33    1
     4    31    30    2
     5    33    34   am
     6    30    29   am
     7    34    29   am
     8    34    36    2
     9    29    28    1
    10    28    26    1
    11    26    25    2
    12    26    27    1
    13    25    24    1
    14    27    22    2
    15    24    23    2
    16    19    20    2
    17    19    18    1
    18    20    21    1
    19    22    23    1
    20    22     3    1
    21    18    17    2
    22     4     3    1
    23     3     2   am
    24    21    17    1
    25    17    16    1
    26     2     1    2
    27     2     5    1
    28    16    14    1
    29    10     5    2
    30    10     9    1
    31     5     6    1
    32     9     8    2
    33     6     7    2
    34    15    14    1
    35    14    11    1
    36     8     7    1
    37     8    11    1
    38    12    11    2
    39    11    13    2
