@<TRIPOS>MOLECULE
466_out_ligand_01.pdbqt
 33 35 0 0 0
SMALL
GASTEIGER

@<TRIPOS>ATOM
      1  C         19.3250  -22.0310  -10.8670 C.2     1  UNL1        0.0330
      2  C         18.7240  -21.0060  -11.6120 C.2     1  UNL1        0.0170
      3  C         17.3670  -20.7180  -11.4430 C.2     1  UNL1        0.0030
      4  C         16.6050  -21.4470  -10.5300 C.2     1  UNL1        0.0250
      5  C         17.2090  -22.4690   -9.7890 C.2     1  UNL1        0.0800
      6  C         18.5590  -22.7810   -9.9690 C.2     1  UNL1        0.0420
      7  C         20.7670  -22.3710  -11.0250 C.2     1  UNL1        0.2560
      8  O         21.2770  -23.1250  -10.2060 O.2     1  UNL1       -0.2670
      9  N         21.4020  -21.7480  -12.0850 N.am    1  UNL1       -0.3230
     10  H         20.8730  -21.0440  -12.5850 H       1  UNL1        0.1690
     11  C         22.7440  -21.9060  -12.4890 C.2     1  UNL1        0.0350
     12  C         23.0780  -21.4670  -13.7720 C.2     1  UNL1        0.0310
     13  C         24.3840  -21.5920  -14.2470 C.2     1  UNL1        0.0220
     14  C         25.3760  -22.1620  -13.4440 C.2     1  UNL1        0.0260
     15 BR         27.1210  -22.2840  -14.1840 Br      1  UNL1       -0.0500
     16  C         25.0680  -22.6160  -12.1560 C.2     1  UNL1        0.0670
     17  C         23.7390  -22.4810  -11.6940 C.2     1  UNL1        0.0470
     18  C         26.1040  -23.2420  -11.2580 C.3     1  UNL1        0.4180
     19  F         26.6920  -24.3380  -11.8140 F       1  UNL1       -0.1660
     20  F         25.6050  -23.6720  -10.0650 F       1  UNL1       -0.1660
     21  F         27.1130  -22.3860  -10.9370 F       1  UNL1       -0.1660
     22  S         16.2300  -23.4090   -8.6370 S.O2    1  UNL1        0.2630
     23  O         15.4010  -22.4720   -7.9080 O.2     1  UNL1       -0.2000
     24  O         15.6530  -24.5310   -9.3430 O.2     1  UNL1       -0.2000
     25  N         17.3800  -23.9650   -7.5340 N.pl3   1  UNL1       -0.2810
     26  H         17.3470  -24.9760   -7.4190 H       1  UNL1        0.1790
     27  C         17.7560  -23.1630   -6.4230 C.2     1  UNL1        0.0420
     28  C         18.5990  -22.0590   -6.5720 C.2     1  UNL1        0.0330
     29  C         18.9240  -21.2750   -5.4660 C.2     1  UNL1        0.0440
     30  C         18.4110  -21.6040   -4.2160 C.2     1  UNL1        0.1160
     31  F         18.7200  -20.8510   -3.1540 F       1  UNL1       -0.2060
     32  C         17.5810  -22.7080   -4.0540 C.2     1  UNL1        0.0440
     33  C         17.2540  -23.4930   -5.1610 C.2     1  UNL1        0.0330
@<TRIPOS>BOND
     1    13    12    1
     2    13    14    2
     3    15    14    1
     4    12    11    2
     5    14    16    1
     6    10     9    1
     7    11     9    1
     8    11    17    1
     9    16    17    2
    10    16    18    1
    11     9     7   am
    12    19    18    1
    13     2     3    1
    14     2     1    2
    15     3     4    2
    16    18    21    1
    17    18    20    1
    18     7     1    1
    19     7     8    2
    20     1     6    1
    21     4     5    1
    22     6     5    2
    23     5    22    1
    24    24    22    2
    25    22    23    2
    26    22    25    1
    27    25    26    1
    28    25    27    1
    29    28    27    2
    30    28    29    1
    31    27    33    1
    32    29    30    2
    33    33    32    2
    34    30    32    1
    35    30    31    1
