@<TRIPOS>MOLECULE
46701_out_ligand_01.pdbqt
 34 38 0 0 0
SMALL
GASTEIGER

@<TRIPOS>ATOM
      1  N         20.2190  -22.2490  -10.1260 N.am    1  UNL1       -0.3230
      2  C         19.6310  -23.2830   -9.4200 C.2     1  UNL1        0.2580
      3  O         20.1500  -24.3330   -9.0700 O.2     1  UNL1       -0.2670
      4  H         19.5900  -21.5390  -10.4860 H       1  UNL1        0.1690
      5  C         21.5720  -22.1280  -10.4990 C.2     1  UNL1        0.0350
      6  C         22.6370  -22.2010   -9.5990 C.2     1  UNL1        0.0290
      7  C         23.9550  -22.0470  -10.0430 C.2     1  UNL1        0.0030
      8  C         24.2230  -21.8250  -11.3930 C.2     1  UNL1        0.0170
      9  C         23.1650  -21.7650  -12.3060 C.2     1  UNL1        0.0340
     10  C         21.8440  -21.9040  -11.8530 C.2     1  UNL1        0.0460
     11  C         23.3870  -21.5190  -13.7600 C.2     1  UNL1        0.2570
     12  O         22.6240  -20.7550  -14.3410 O.2     1  UNL1       -0.2670
     13  N         24.4310  -22.2150  -14.3180 N.am    1  UNL1       -0.3070
     14  H         24.9260  -22.9080  -13.7750 H       1  UNL1        0.1700
     15  C         24.8920  -22.1740  -15.6330 C.2     1  UNL1        0.1290
     16  C         24.4590  -23.0220  -16.6420 C.2     1  UNL1        0.0500
     17  C         24.9970  -22.8740  -17.9210 C.2     1  UNL1        0.0050
     18  C         25.9440  -21.8870  -18.1530 C.2     1  UNL1        0.0190
     19  C         26.3160  -21.0840  -17.0910 C.2     1  UNL1        0.1190
     20  N         25.8110  -21.2050  -15.8420 N.2     1  UNL1       -0.2430
     21  C         18.1990  -23.0580   -9.1160 C.2     1  UNL1        0.0590
     22  C         17.2990  -22.8190  -10.1620 C.2     1  UNL1        0.0190
     23  C         15.9560  -22.5660   -9.8990 C.2     1  UNL1        0.0020
     24  C         15.4770  -22.5540   -8.5830 C.2     1  UNL1        0.0140
     25  C         16.3580  -22.8220   -7.5150 C.ar    1  UNL1       -0.0000
     26  C         16.2060  -22.9060   -6.1020 C.ar    1  UNL1       -0.0230
     27  C         17.7030  -23.0820   -7.7980 C.ar    1  UNL1        0.0590
     28  C         17.4350  -23.2460   -5.5750 C.ar    1  UNL1        0.0170
     29  C         14.9930  -22.7250   -5.2530 C.3     1  UNL1        0.0410
     30  N         18.3250  -23.3740   -6.6000 N.ar    1  UNL1       -0.3580
     31  C         17.7510  -23.4390   -4.1340 C.3     1  UNL1        0.0570
     32  H         19.2940  -23.6520   -6.5060 H       1  UNL1        0.1660
     33  C         16.4450  -23.5870   -3.3300 C.3     1  UNL1        0.0060
     34  C         15.3750  -22.5690   -3.7680 C.3     1  UNL1        0.0050
@<TRIPOS>BOND
     1    18    17    2
     2    18    19    1
     3    17    16    1
     4    19    20    2
     5    16    15    2
     6    20    15    1
     7    15    13    1
     8    12    11    2
     9    13    14    1
    10    13    11   am
    11    11     9    1
    12     9    10    1
    13     9     8    2
    14    10     5    2
    15     8     7    1
    16     5     1    1
    17     5     6    1
    18     4     1    1
    19    22    23    1
    20    22    21    2
    21     1     2   am
    22     7     6    2
    23    23    24    2
    24     2    21    1
    25     2     3    2
    26    21    27    1
    27    24    25    1
    28    27    25   ar
    29    27    30   ar
    30    25    26   ar
    31    30    32    1
    32    30    28   ar
    33    26    28   ar
    34    26    29    1
    35    28    31    1
    36    29    34    1
    37    31    33    1
    38    34    33    1
