@<TRIPOS>MOLECULE
46708_out_ligand_01.pdbqt
 36 39 0 0 0
SMALL
GASTEIGER

@<TRIPOS>ATOM
      1  C         21.9760  -22.1360  -10.5150 C.2     1  UNL1        0.0970
      2  C         22.7950  -22.3720   -9.3930 C.3     1  UNL1        0.1600
      3  N         22.1170  -22.3860   -8.2490 N.3     1  UNL1       -0.1770
      4  N         20.8090  -22.3740   -8.6260 N.pl3   1  UNL1       -0.2160
      5  C         20.6950  -22.0740   -9.9800 C.2     1  UNL1        0.1530
      6  C         22.4760  -21.9230  -11.8640 C.2     1  UNL1        0.2610
      7  N         23.8510  -21.9460  -11.9600 N.am    1  UNL1       -0.3200
      8  H         24.3750  -22.1610  -11.1180 H       1  UNL1        0.1690
      9  O         21.6930  -21.8210  -12.8000 O.2     1  UNL1       -0.2670
     10  C         24.6420  -21.7420  -13.1120 C.2     1  UNL1        0.0740
     11  C         25.6510  -20.7740  -13.0190 C.2     1  UNL1        0.1430
     12  C         26.4870  -20.4810  -14.0930 C.2     1  UNL1        0.0460
     13  F         25.8230  -20.1070  -11.8670 F       1  UNL1       -0.2040
     14  C         26.3210  -21.1660  -15.2950 C.2     1  UNL1        0.0200
     15  C         25.3200  -22.1400  -15.4090 C.2     1  UNL1        0.0340
     16  C         24.4740  -22.4190  -14.3210 C.2     1  UNL1        0.0500
     17  C         25.0980  -22.8730  -16.6840 C.2     1  UNL1        0.2490
     18  N         23.8030  -23.0820  -17.0680 N.am    1  UNL1       -0.3660
     19  H         23.0400  -22.5390  -16.6920 H       1  UNL1        0.1590
     20  H         23.6830  -23.4600  -18.0000 H       1  UNL1        0.1590
     21  O         26.0300  -23.2540  -17.3790 O.2     1  UNL1       -0.2680
     22  N         19.5060  -21.7540  -10.6320 N.pl3   1  UNL1       -0.3170
     23  C         19.1870  -20.5430  -11.2130 C.2     1  UNL1        0.0980
     24  C         17.9060  -20.6000  -11.7180 C.2     1  UNL1        0.0190
     25  C         17.4040  -21.8830  -11.4310 C.2     1  UNL1        0.0190
     26  C         18.3940  -22.5650  -10.7600 C.2     1  UNL1        0.0980
     27  C         19.8320  -22.7780   -7.6640 C.2     1  UNL1        0.0610
     28  C         19.1180  -23.9680   -7.8830 C.2     1  UNL1        0.0320
     29  C         18.1460  -24.3880   -6.9740 C.2     1  UNL1        0.0030
     30  C         17.8630  -23.6180   -5.8470 C.2     1  UNL1        0.0160
     31  C         18.5430  -22.4120   -5.6220 C.2     1  UNL1        0.0500
     32  C         19.5160  -21.9900   -6.5480 C.2     1  UNL1        0.0480
     33  C         18.1970  -21.5520   -4.4300 C.3     1  UNL1        0.4170
     34  F         18.5570  -20.2470   -4.5910 F       1  UNL1       -0.1660
     35  F         18.8010  -21.9630   -3.2810 F       1  UNL1       -0.1660
     36  F         16.8610  -21.5410   -4.1700 F       1  UNL1       -0.1660
@<TRIPOS>BOND
     1    20    18    1
     2    21    17    2
     3    18    19    1
     4    18    17   am
     5    17    15    1
     6    15    14    2
     7    15    16    1
     8    14    12    1
     9    16    10    2
    10    12    11    2
    11    10    11    1
    12    10     7    1
    13    11    13    1
    14     9     6    2
    15     7     6   am
    16     7     8    1
    17     6     1    1
    18    24    25    1
    19    24    23    2
    20    25    26    2
    21    23    22    1
    22    26    22    1
    23    22     5    1
    24     1     5    2
    25     1     2    1
    26     5     4    1
    27     2     3    1
    28     4     3    1
    29     4    27    1
    30    28    27    2
    31    28    29    1
    32    27    32    1
    33    29    30    2
    34    32    31    2
    35    30    31    1
    36    31    33    1
    37    34    33    1
    38    33    36    1
    39    33    35    1
