@<TRIPOS>MOLECULE
46727_out_ligand_01.pdbqt
 31 33 0 0 0
SMALL
GASTEIGER

@<TRIPOS>ATOM
      1  C         21.5460  -22.8410   -9.7040 C.2     1  UNL1       -0.0380
      2  C         21.0560  -22.3960  -10.9380 C.2     1  UNL1        0.0090
      3  C         19.7160  -22.0360  -11.0760 C.2     1  UNL1        0.0030
      4  C         18.8390  -22.1430   -9.9930 C.2     1  UNL1        0.0290
      5  C         19.2880  -22.6210   -8.7630 C.2     1  UNL1        0.0350
      6  C         20.6440  -22.9610   -8.6270 C.2     1  UNL1        0.0380
      7  C         22.9860  -23.2730   -9.5260 C.3     1  UNL1        0.1620
      8  N         23.7410  -23.2800  -10.7650 N.am    1  UNL1       -0.3390
      9  C         24.5270  -22.2130  -11.1210 C.2     1  UNL1        0.3180
     10  N         25.2150  -22.3710  -12.3220 N.am    1  UNL1       -0.3340
     11  O         24.6120  -21.2010  -10.4290 O.2     1  UNL1       -0.2470
     12  C         26.2260  -21.3700  -12.6550 C.3     1  UNL1        0.1270
     13  C         24.9160  -23.4260  -13.2900 C.3     1  UNL1        0.1300
     14  C         25.6530  -20.2470  -13.5140 C.3     1  UNL1        0.0220
     15  C         25.5070  -20.6110  -14.9880 C.3     1  UNL1        0.0330
     16  C         24.6230  -21.8330  -15.2780 C.3     1  UNL1        0.1220
     17  C         25.2410  -23.1340  -14.7520 C.3     1  UNL1        0.0510
     18  H         24.0590  -24.1850  -11.0730 H       1  UNL1        0.1640
     19  O         24.5300  -21.9910  -16.7050 O.3     1  UNL1       -0.3910
     20  C         24.4560  -23.3480  -17.1200 C.3     1  UNL1        0.2020
     21  N         18.4570  -22.7980   -7.6340 N.am    1  UNL1       -0.3230
     22  C         18.5410  -22.1330   -6.4230 C.2     1  UNL1        0.2560
     23  O         19.3440  -21.2620   -6.1130 O.2     1  UNL1       -0.2670
     24  H         17.6670  -23.4140   -7.7670 H       1  UNL1        0.1690
     25  C         17.5070  -22.5130   -5.4200 C.2     1  UNL1        0.0350
     26  C         17.6380  -22.1960   -4.0590 C.2     1  UNL1        0.0170
     27  C         16.6350  -22.5650   -3.1530 C.2     1  UNL1        0.0040
     28  C         15.5030  -23.2450   -3.6080 C.2     1  UNL1        0.0420
     29  C         15.3730  -23.5390   -4.9630 C.2     1  UNL1        0.1170
     30  F         14.2790  -24.1820   -5.3940 F       1  UNL1       -0.2060
     31  C         16.3590  -23.1760   -5.8740 C.2     1  UNL1        0.0590
@<TRIPOS>BOND
     1    20    19    1
     2    19    16    1
     3    16    15    1
     4    16    17    1
     5    15    14    1
     6    17    13    1
     7    14    12    1
     8    13    10    1
     9    12    10    1
    10    10     9   am
    11     9     8   am
    12     9    11    2
    13     3     2    1
    14     3     4    2
    15    18     8    1
    16     2     1    2
    17     8     7    1
    18     4     5    1
    19     1     7    1
    20     1     6    1
    21     5     6    2
    22     5    21    1
    23    24    21    1
    24    21    22   am
    25    22    23    2
    26    22    25    1
    27    31    25    2
    28    31    29    1
    29    25    26    1
    30    30    29    1
    31    29    28    2
    32    26    27    2
    33    28    27    1
