@<TRIPOS>MOLECULE
46731_out_ligand_01.pdbqt
 28 30 0 0 0
SMALL
GASTEIGER

@<TRIPOS>ATOM
      1  C         20.4620  -23.1960   -8.6400 C.2     1  UNL1        0.2580
      2  O         20.3580  -24.3450   -8.2450 O.2     1  UNL1       -0.2670
      3  N         19.9820  -22.0660   -8.0080 N.am    1  UNL1       -0.3230
      4  H         20.1580  -21.2100   -8.5050 H       1  UNL1        0.1690
      5  C         21.2400  -22.9280   -9.8910 C.2     1  UNL1        0.0590
      6  C         20.6850  -22.3370  -11.0530 C.2     1  UNL1        0.0460
      7  C         21.5990  -22.0110  -12.0690 C.2     1  UNL1        0.0310
      8  C         22.9780  -22.2120  -11.9450 C.2     1  UNL1        0.0090
      9  C         23.5070  -22.7720  -10.7920 C.2     1  UNL1       -0.0610
     10  C         24.9850  -22.9610  -10.6310 C.3     1  UNL1        0.0480
     11  C         22.6270  -23.1570   -9.7790 C.2     1  UNL1        0.0260
     12  N         19.3320  -22.0440  -11.1790 N.pl3   1  UNL1       -0.3800
     13  C         18.8820  -20.6450  -11.2520 C.3     1  UNL1        0.1230
     14  C         17.3800  -20.8000  -11.4290 C.3     1  UNL1        0.0210
     15  C         17.0580  -21.9450  -10.4950 C.3     1  UNL1        0.0210
     16  C         18.2640  -22.8760  -10.6420 C.3     1  UNL1        0.1230
     17  C         19.2730  -21.9830   -6.7960 C.2     1  UNL1        0.0360
     18  C         19.5870  -21.0960   -5.7720 C.2     1  UNL1        0.0320
     19  C         18.8160  -21.0570   -4.6080 C.2     1  UNL1        0.0450
     20  C         17.7250  -21.8980   -4.4680 C.2     1  UNL1        0.1320
     21  F         17.0110  -21.8250   -3.3330 F       1  UNL1       -0.2050
     22  C         17.4040  -22.8160   -5.4680 C.2     1  UNL1        0.0720
     23  C         18.1680  -22.8370   -6.6450 C.2     1  UNL1        0.0490
     24  C         16.2860  -23.7830   -5.3480 C.2     1  UNL1        0.2520
     25  N         15.4320  -23.9010   -6.3990 N.am    1  UNL1       -0.3660
     26  H         14.6940  -24.5950   -6.3370 H       1  UNL1        0.1590
     27  H         15.5440  -23.4070   -7.2720 H       1  UNL1        0.1590
     28  O         16.1170  -24.4390   -4.3250 O.2     1  UNL1       -0.2680
@<TRIPOS>BOND
     1     7     8    2
     2     7     6    1
     3     8     9    1
     4    14    13    1
     5    14    15    1
     6    13    12    1
     7    12     6    1
     8    12    16    1
     9     6     5    2
    10     9    10    1
    11     9    11    2
    12    16    15    1
    13     5    11    1
    14     5     1    1
    15     1     2    2
    16     1     3   am
    17     4     3    1
    18     3    17    1
    19    27    25    1
    20    17    23    2
    21    17    18    1
    22    23    22    1
    23    25    26    1
    24    25    24   am
    25    18    19    2
    26    22    24    1
    27    22    20    2
    28    24    28    2
    29    19    20    1
    30    20    21    1
