@<TRIPOS>MOLECULE
46733_out_ligand_01.pdbqt
 37 39 0 0 0
SMALL
GASTEIGER

@<TRIPOS>ATOM
      1  O         20.7170  -20.3580   -5.7830 O.2     1  UNL1       -0.2680
      2  C         20.0280  -21.3200   -6.1010 C.2     1  UNL1        0.2510
      3  N         18.8890  -21.7030   -5.4220 N.am    1  UNL1       -0.3570
      4  H         18.4970  -22.6190   -5.5980 H       1  UNL1        0.1620
      5  C         20.4170  -22.1740   -7.2600 C.2     1  UNL1        0.0330
      6  C         19.5230  -23.1630   -7.6960 C.2     1  UNL1        0.0170
      7  C         19.8500  -23.9830   -8.7800 C.2     1  UNL1        0.0030
      8  C         21.0750  -23.8290   -9.4270 C.2     1  UNL1        0.0250
      9  C         21.9750  -22.8580   -8.9730 C.2     1  UNL1        0.0750
     10  C         21.6550  -22.0260   -7.8950 C.2     1  UNL1        0.0410
     11  S         23.5370  -22.6750   -9.7980 S.O2    1  UNL1        0.2460
     12  O         23.8110  -21.2580   -9.9000 O.2     1  UNL1       -0.2060
     13  O         24.4730  -23.5920   -9.1790 O.2     1  UNL1       -0.2060
     14  N         23.1730  -23.3480  -11.3180 N.pl3   1  UNL1       -0.1780
     15  H         23.6490  -24.2480  -11.3660 H       1  UNL1        0.1460
     16  C         23.5290  -22.5070  -12.4270 C.2     1  UNL1        0.0610
     17  C         24.8580  -22.4400  -12.8470 C.2     1  UNL1        0.0270
     18  C         25.2130  -21.5770  -13.8870 C.2     1  UNL1        0.0020
     19  C         24.2490  -20.7700  -14.4930 C.2     1  UNL1        0.0030
     20  C         22.9250  -20.8170  -14.0560 C.2     1  UNL1        0.0440
     21  C         22.5720  -21.6800  -13.0250 C.2     1  UNL1        0.1380
     22  F         21.2960  -21.7190  -12.6160 F       1  UNL1       -0.2040
     23  C         18.4510  -21.0120   -4.2260 C.3     1  UNL1        0.1240
     24  C         17.9600  -21.9840   -3.1570 C.3     1  UNL1        0.0340
     25  C         16.5080  -22.3790   -3.4110 C.3     1  UNL1        0.0950
     26  N         16.4770  -23.7030   -4.0290 N.pl3   1  UNL1       -0.2770
     27  H         15.6600  -24.2290   -3.7170 H       1  UNL1        0.1290
     28  C         16.3390  -23.6800   -5.4180 C.2     1  UNL1        0.1020
     29  C         16.6540  -24.7830   -6.2060 C.2     1  UNL1        0.0450
     30  C         16.4690  -24.7080   -7.5840 C.2     1  UNL1        0.0210
     31  C         15.9650  -23.5360   -8.1500 C.2     1  UNL1        0.0650
     32  C         15.6710  -22.4930   -7.2870 C.2     1  UNL1        0.1340
     33  N         15.8440  -22.5450   -5.9450 N.2     1  UNL1       -0.2480
     34  C         15.7390  -23.3740   -9.6210 C.3     1  UNL1        0.4180
     35  F         15.0660  -22.2290   -9.9210 F       1  UNL1       -0.1660
     36  F         15.0050  -24.3890  -10.1570 F       1  UNL1       -0.1660
     37  F         16.8940  -23.3300  -10.3450 F       1  UNL1       -0.1660
@<TRIPOS>BOND
     1    19    20    2
     2    19    18    1
     3    20    21    1
     4    18    17    2
     5    21    22    1
     6    21    16    2
     7    17    16    1
     8    16    14    1
     9    15    14    1
    10    14    11    1
    11    37    34    1
    12    36    34    1
    13    35    34    1
    14    12    11    2
    15    11    13    2
    16    11     9    1
    17    34    31    1
    18     8     9    2
    19     8     7    1
    20     9    10    1
    21     7     6    2
    22    31    30    2
    23    31    32    1
    24    10     5    2
    25     6     5    1
    26    30    29    1
    27    32    33    2
    28     5     2    1
    29    29    28    2
    30     2     1    2
    31     2     3   am
    32    33    28    1
    33     4     3    1
    34     3    23    1
    35    28    26    1
    36    23    24    1
    37    26    27    1
    38    26    25    1
    39    25    24    1
