@<TRIPOS>MOLECULE
46730_out_ligand_01.pdbqt
 37 40 0 0 0
SMALL
GASTEIGER

@<TRIPOS>ATOM
      1  N         22.1250  -22.5570  -10.5420 N.am    1  UNL1       -0.3230
      2  C         20.8930  -21.9420  -10.6790 C.2     1  UNL1        0.2560
      3  O         20.6170  -21.0120  -11.4280 O.2     1  UNL1       -0.2670
      4  H         22.1590  -23.3990   -9.9820 H       1  UNL1        0.1690
      5  C         19.7990  -22.5270   -9.8500 C.2     1  UNL1        0.0320
      6  C         20.1400  -23.4560   -8.8560 C.2     1  UNL1        0.0180
      7  C         19.1480  -24.0310   -8.0590 C.2     1  UNL1        0.0260
      8  C         17.8130  -23.6720   -8.2570 C.2     1  UNL1        0.0790
      9  C         17.4570  -22.7710   -9.2670 C.2     1  UNL1        0.0260
     10  C         18.4510  -22.1990  -10.0650 C.2     1  UNL1        0.0180
     11  S         16.5430  -24.4190   -7.2640 S.O2    1  UNL1        0.2630
     12  O         17.1520  -25.3710   -6.3610 O.2     1  UNL1       -0.2000
     13  O         15.4770  -24.8190   -8.1600 O.2     1  UNL1       -0.2000
     14  N         15.9390  -23.1030   -6.3880 N.pl3   1  UNL1       -0.2810
     15  H         14.9800  -23.2850   -6.0920 H       1  UNL1        0.1790
     16  C         16.7990  -22.4890   -5.4370 C.2     1  UNL1        0.0420
     17  C         16.6380  -22.7470   -4.0760 C.2     1  UNL1        0.0300
     18  C         17.5090  -22.1650   -3.1530 C.2     1  UNL1        0.0020
     19  C         18.5370  -21.3330   -3.5930 C.2     1  UNL1        0.0000
     20  C         18.7000  -21.0810   -4.9550 C.2     1  UNL1        0.0020
     21  C         17.8320  -21.6630   -5.8800 C.2     1  UNL1        0.0300
     22  C         23.3380  -22.1970  -11.1690 C.2     1  UNL1        0.0370
     23  C         24.3810  -21.7730  -10.3380 C.2     1  UNL1        0.0290
     24  C         25.6130  -21.3970  -10.8770 C.2     1  UNL1        0.0050
     25  C         25.8120  -21.4380  -12.2550 C.2     1  UNL1        0.0320
     26  C         24.7770  -21.8570  -13.1040 C.2     1  UNL1        0.0600
     27  C         23.5400  -22.2320  -12.5530 C.2     1  UNL1        0.0610
     28  N         24.9980  -21.8920  -14.5110 N.pl3   1  UNL1       -0.2440
     29  C         25.3330  -22.9770  -15.2920 C.2     1  UNL1        0.1210
     30  C         25.4400  -22.5280  -16.5840 C.2     1  UNL1        0.0580
     31  C         25.1560  -21.1460  -16.5220 C.2     1  UNL1        0.1460
     32  N         24.8870  -20.7620  -15.2590 N.2     1  UNL1       -0.1620
     33  C         25.1380  -20.2000  -17.6450 C.2     1  UNL1        0.2690
     34  N         23.8860  -19.8860  -18.0940 N.am    1  UNL1       -0.3650
     35  H         23.0860  -20.3110  -17.6410 H       1  UNL1        0.1590
     36  H         23.7760  -19.2450  -18.8630 H       1  UNL1        0.1590
     37  O         26.1440  -19.7180  -18.1530 O.2     1  UNL1       -0.2660
@<TRIPOS>BOND
     1    36    34    1
     2    37    33    2
     3    34    33   am
     4    34    35    1
     5    33    31    1
     6    30    31    1
     7    30    29    2
     8    31    32    2
     9    29    28    1
    10    32    28    1
    11    28    26    1
    12    26    27    1
    13    26    25    2
    14    27    22    2
    15    25    24    1
    16     3     2    2
    17    22     1    1
    18    22    23    1
    19    24    23    2
    20     2     1   am
    21     2     5    1
    22     1     4    1
    23    10     5    2
    24    10     9    1
    25     5     6    1
    26     9     8    2
    27     6     7    2
    28     8     7    1
    29     8    11    1
    30    13    11    2
    31    11    14    1
    32    11    12    2
    33    14    15    1
    34    14    16    1
    35    21    16    2
    36    21    20    1
    37    16    17    1
    38    20    19    2
    39    17    18    2
    40    19    18    1
