@<TRIPOS>MOLECULE
46769_out_ligand_01.pdbqt
 37 39 0 0 0
SMALL
GASTEIGER

@<TRIPOS>ATOM
      1  C         17.5660  -23.0320   -9.1720 C.2     1  UNL1        0.0830
      2  C         18.9360  -23.0310   -9.5020 C.2     1  UNL1        0.0540
      3  C         19.4010  -22.3220  -10.6080 C.2     1  UNL1        0.0360
      4  C         18.4790  -21.6310  -11.3990 C.2     1  UNL1        0.0300
      5  C         17.1170  -21.6360  -11.0830 C.2     1  UNL1        0.0100
      6  C         16.6360  -22.3270   -9.9610 C.2     1  UNL1       -0.0390
      7  C         15.1600  -22.2870   -9.6840 C.3     1  UNL1        0.0500
      8  N         20.7580  -22.2410  -10.9890 N.am    1  UNL1       -0.3230
      9  C         21.8250  -22.9280  -10.4410 C.2     1  UNL1        0.2560
     10  O         21.7880  -23.7730   -9.5570 O.2     1  UNL1       -0.2670
     11  H         20.9480  -21.6360  -11.7770 H       1  UNL1        0.1690
     12  C         23.1570  -22.6020  -11.0250 C.2     1  UNL1        0.0340
     13  C         24.3070  -23.0300  -10.3450 C.2     1  UNL1        0.0200
     14  C         25.5780  -22.7330  -10.8470 C.2     1  UNL1        0.0450
     15  C         25.6990  -22.0020  -12.0250 C.2     1  UNL1        0.1390
     16  F         26.9240  -21.7010  -12.4720 F       1  UNL1       -0.2040
     17  C         24.5640  -21.5620  -12.6940 C.2     1  UNL1        0.1130
     18  C         23.2850  -21.8520  -12.2000 C.2     1  UNL1        0.0450
     19  S         24.7470  -20.6450  -14.1840 S.O2    1  UNL1        0.2420
     20  O         25.4010  -19.4000  -13.8620 O.2     1  UNL1       -0.2060
     21  O         25.2670  -21.5450  -15.1880 O.2     1  UNL1       -0.2060
     22  N         23.1690  -20.2730  -14.6280 N.3     1  UNL1       -0.2250
     23  H         23.0870  -19.2570  -14.7210 H       1  UNL1        0.1360
     24  H         22.4580  -20.6420  -13.9990 H       1  UNL1        0.1360
     25  S         17.0750  -23.9780   -7.7300 S.O2    1  UNL1        0.2460
     26  O         15.9940  -24.8630   -8.1100 O.2     1  UNL1       -0.2060
     27  O         18.2690  -24.5200   -7.1130 O.2     1  UNL1       -0.2060
     28  N         16.4080  -22.8100   -6.7000 N.pl3   1  UNL1       -0.1790
     29  H         15.8740  -22.1250   -7.2360 H       1  UNL1        0.1460
     30  C         17.2720  -22.2160   -5.7220 C.2     1  UNL1        0.0560
     31  C         18.4180  -21.5260   -6.1180 C.2     1  UNL1        0.0270
     32  C         19.2180  -20.9070   -5.1610 C.2     1  UNL1        0.0020
     33  C         18.8750  -20.9840   -3.8120 C.2     1  UNL1        0.0030
     34  C         17.7290  -21.6770   -3.4100 C.2     1  UNL1        0.0380
     35  C         16.9160  -22.2950   -4.3630 C.2     1  UNL1        0.0900
     36  O         15.7670  -22.9970   -4.0930 O.2     1  UNL1       -0.3540
     37  C         15.8740  -24.0650   -3.1600 C.3     1  UNL1        0.2100
@<TRIPOS>BOND
     1    21    19    2
     2    23    22    1
     3    22    19    1
     4    22    24    1
     5    19    20    2
     6    19    17    1
     7    17    18    1
     8    17    15    2
     9    16    15    1
    10    18    12    2
    11    15    14    1
    12    11     8    1
    13     4     5    2
    14     4     3    1
    15     5     6    1
    16    12     9    1
    17    12    13    1
    18     8     3    1
    19     8     9   am
    20    14    13    2
    21     3     2    2
    22     9    10    2
    23     6     7    1
    24     6     1    2
    25     2     1    1
    26     1    25    1
    27    26    25    2
    28    25    27    2
    29    25    28    1
    30    29    28    1
    31    28    30    1
    32    31    30    2
    33    31    32    1
    34    30    35    1
    35    32    33    2
    36    35    36    1
    37    35    34    2
    38    36    37    1
    39    33    34    1
