@<TRIPOS>MOLECULE
46766_out_ligand_01.pdbqt
 29 31 0 0 0
SMALL
GASTEIGER

@<TRIPOS>ATOM
      1  C         20.4340  -21.9730  -10.3740 C.2     1  UNL1        0.0230
      2  C         20.0170  -21.4100  -11.5750 C.2     1  UNL1        0.0240
      3  C         20.9250  -21.2650  -12.6200 C.2     1  UNL1        0.0020
      4  C         22.2460  -21.7010  -12.4700 C.2     1  UNL1        0.0100
      5  C         22.6820  -22.2980  -11.2720 C.2     1  UNL1       -0.0190
      6  C         21.7460  -22.4270  -10.2280 C.2     1  UNL1        0.0340
      7  N         19.4880  -22.1640   -9.3160 N.pl3   1  UNL1       -0.1810
      8  H         19.1700  -21.2710   -8.9340 H       1  UNL1        0.1460
      9  S         20.0900  -23.0970   -8.0180 S.O2    1  UNL1        0.2460
     10  O         20.4180  -24.4300   -8.4710 O.2     1  UNL1       -0.2060
     11  O         21.0680  -22.2660   -7.3440 O.2     1  UNL1       -0.2060
     12  C         18.6410  -23.2000   -6.9780 C.2     1  UNL1        0.0800
     13  C         17.7530  -24.2620   -7.2020 C.2     1  UNL1        0.0260
     14  C         16.6030  -24.3940   -6.4240 C.2     1  UNL1        0.0080
     15  C         16.3280  -23.4710   -5.4120 C.2     1  UNL1       -0.0610
     16  C         15.0720  -23.5850   -4.6000 C.3     1  UNL1        0.0480
     17  C         17.2090  -22.3980   -5.2070 C.2     1  UNL1        0.0150
     18  C         18.3790  -22.2500   -5.9730 C.2     1  UNL1       -0.0390
     19  C         19.2610  -21.0620   -5.7050 C.3     1  UNL1        0.0500
     20  C         24.1050  -22.8150  -11.0860 C.3     1  UNL1        0.1390
     21  C         24.3320  -23.4300   -9.7040 C.3     1  UNL1        0.0540
     22  N         24.5120  -23.7580  -12.1120 N.am    1  UNL1       -0.3210
     23  C         25.5940  -23.3270  -12.8350 C.2     1  UNL1        0.3240
     24  H         24.1260  -24.6810  -12.2480 H       1  UNL1        0.1650
     25  O         26.1450  -23.9650  -13.7130 O.2     1  UNL1       -0.2470
     26  N         25.9470  -22.1000  -12.3980 N.am    1  UNL1       -0.2770
     27  C         25.1650  -21.7150  -11.3530 C.2     1  UNL1        0.2580
     28  H         26.7290  -21.5760  -12.7550 H       1  UNL1        0.1730
     29  O         25.3090  -20.6700  -10.7310 O.2     1  UNL1       -0.2700
@<TRIPOS>BOND
     1    25    23    2
     2    23    26   am
     3    23    22   am
     4    28    26    1
     5     3     4    2
     6     3     2    1
     7     4     5    1
     8    26    27   am
     9    24    22    1
    10    22    20    1
    11     2     1    2
    12    27    20    1
    13    27    29    2
    14     5    20    1
    15     5     6    2
    16    20    21    1
    17     1     6    1
    18     1     7    1
    19     7     8    1
    20     7     9    1
    21    10     9    2
    22     9    11    2
    23     9    12    1
    24    13    12    2
    25    13    14    1
    26    12    18    1
    27    14    15    2
    28    18    19    1
    29    18    17    2
    30    15    17    1
    31    15    16    1
