@<TRIPOS>MOLECULE
46773_out_ligand_01.pdbqt
 27 29 0 0 0
SMALL
GASTEIGER

@<TRIPOS>ATOM
      1  C         18.2730  -22.5840   -9.1950 C.2     1  UNL1        0.2520
      2  O         17.1360  -22.1400   -9.3170 O.2     1  UNL1       -0.2680
      3  N         18.6920  -23.3900   -8.1530 N.am    1  UNL1       -0.3430
      4  H         19.6830  -23.5330   -8.0140 H       1  UNL1        0.1640
      5  C         19.3100  -22.2300  -10.2030 C.2     1  UNL1        0.0330
      6  C         18.9070  -21.5810  -11.3720 C.2     1  UNL1        0.0170
      7  C         19.8460  -21.2290  -12.3440 C.2     1  UNL1        0.0090
      8  C         21.2090  -21.5320  -12.1790 C.2     1  UNL1       -0.0390
      9  C         22.1680  -21.1060  -13.2560 C.3     1  UNL1        0.0500
     10  C         21.6050  -22.1980  -11.0040 C.2     1  UNL1        0.0810
     11  C         20.6600  -22.5490  -10.0230 C.2     1  UNL1        0.0420
     12  S         23.3060  -22.6030  -10.6730 S.O2    1  UNL1        0.2390
     13  O         23.9660  -21.4390  -10.1240 O.2     1  UNL1       -0.2060
     14  O         23.8580  -23.3370  -11.7850 O.2     1  UNL1       -0.2060
     15  N         23.1760  -23.6830   -9.3940 N.3     1  UNL1       -0.2250
     16  H         22.5860  -23.2870   -8.6630 H       1  UNL1        0.1360
     17  H         24.1040  -23.9540   -9.0690 H       1  UNL1        0.1360
     18  C         17.8430  -23.7100   -7.0350 C.3     1  UNL1        0.0600
     19  C         16.4650  -24.2970   -7.2780 C.3     1  UNL1        0.0390
     20  C         17.5580  -25.1800   -6.7690 C.3     1  UNL1        0.0390
     21  C         18.0480  -22.7910   -5.8390 C.2     1  UNL1       -0.0270
     22  C         17.6490  -23.1660   -4.5410 C.2     1  UNL1        0.0100
     23  C         17.8510  -22.3260   -3.4390 C.2     1  UNL1        0.0040
     24  C         18.4660  -21.0910   -3.6150 C.2     1  UNL1        0.0420
     25  C         18.8750  -20.7100   -4.8860 C.2     1  UNL1        0.1170
     26  F         19.4750  -19.5240   -5.0560 F       1  UNL1       -0.2060
     27  C         18.6760  -21.5420   -5.9840 C.2     1  UNL1        0.0520
@<TRIPOS>BOND
     1     9     8    1
     2     7     8    2
     3     7     6    1
     4     8    10    1
     5    14    12    2
     6     6     5    2
     7    10    12    1
     8    10    11    2
     9    12    13    2
    10    12    15    1
    11     5    11    1
    12     5     1    1
    13    15    17    1
    14    15    16    1
    15     2     1    2
    16     1     3   am
    17     3     4    1
    18     3    18    1
    19    19    18    1
    20    19    20    1
    21    18    20    1
    22    18    21    1
    23    27    21    2
    24    27    25    1
    25    21    22    1
    26    26    25    1
    27    25    24    2
    28    22    23    2
    29    24    23    1
