@<TRIPOS>MOLECULE
46778_out_ligand_01.pdbqt
 37 41 0 0 0
SMALL
GASTEIGER

@<TRIPOS>ATOM
      1  N         17.0920  -23.3780   -8.8470 N.am    1  UNL1       -0.3520
      2  C         17.1880  -22.4740   -9.8890 C.2     1  UNL1        0.2520
      3  O         16.2490  -21.8090  -10.3090 O.2     1  UNL1       -0.2680
      4  H         17.9640  -23.6110   -8.3920 H       1  UNL1        0.1630
      5  C         15.8820  -23.4680   -8.0320 C.3     1  UNL1        0.0880
      6  C         15.6430  -22.1270   -7.3260 C.3     1  UNL1        0.0550
      7  C         14.7040  -22.2940   -6.1390 C.3     1  UNL1        0.2750
      8  N         15.2110  -23.2140   -5.1030 N.3     1  UNL1        0.0970
      9  C         16.2260  -24.1520   -5.6150 C.3     1  UNL1        0.2750
     10  C         15.9180  -24.6340   -7.0300 C.3     1  UNL1        0.0550
     11  C         15.7690  -22.4780   -3.9350 C.3     1  UNL1        0.3740
     12  C         17.2910  -22.2920   -4.0460 C.2     1  UNL1        0.2500
     13  O         18.0370  -22.6980   -3.1590 O.2     1  UNL1       -0.2710
     14  N         17.6560  -21.6060   -5.1880 N.am    1  UNL1       -0.3260
     15  H         16.8710  -21.3870   -5.7970 H       1  UNL1        0.1690
     16  C         18.9440  -21.2680   -5.6320 C.2     1  UNL1        0.0340
     17  C         19.5210  -22.0930   -6.6060 C.2     1  UNL1        0.0290
     18  C         20.8070  -21.8320   -7.0900 C.2     1  UNL1        0.0020
     19  C         21.5250  -20.7430   -6.6040 C.2     1  UNL1        0.0000
     20  C         20.9560  -19.9150   -5.6390 C.2     1  UNL1        0.0020
     21  C         19.6700  -20.1760   -5.1560 C.2     1  UNL1        0.0290
     22  C         18.5530  -22.2850  -10.4490 C.2     1  UNL1        0.0320
     23  C         18.8350  -21.2890  -11.3830 C.2     1  UNL1        0.0190
     24  C         20.1200  -21.1830  -11.9310 C.2     1  UNL1        0.0300
     25  C         21.1620  -22.0480  -11.5560 C.2     1  UNL1        0.0300
     26  C         20.8490  -23.0330  -10.6030 C.2     1  UNL1        0.0300
     27  C         19.5710  -23.1470  -10.0450 C.2     1  UNL1        0.0190
     28  N         22.4370  -21.9980  -12.1250 N.pl3   1  UNL1       -0.3760
     29  C         23.5760  -21.8340  -11.2070 C.3     1  UNL1        0.1280
     30  C         24.8100  -22.5120  -11.8100 C.3     1  UNL1        0.0590
     31  C         25.0500  -22.0920  -13.2380 C.2     1  UNL1       -0.0490
     32  C         26.3060  -22.3010  -13.8260 C.2     1  UNL1        0.0080
     33  C         24.0010  -21.5480  -14.0020 C.2     1  UNL1       -0.0340
     34  C         26.5300  -21.9440  -15.1550 C.2     1  UNL1        0.0010
     35  C         25.5030  -21.3810  -15.9080 C.2     1  UNL1        0.0010
     36  C         24.2440  -21.1820  -15.3360 C.2     1  UNL1        0.0090
     37  C         22.6230  -21.3080  -13.4110 C.3     1  UNL1        0.1620
@<TRIPOS>BOND
     1    35    36    2
     2    35    34    1
     3    36    33    1
     4    34    32    2
     5    33    37    1
     6    33    31    2
     7    32    31    1
     8    37    28    1
     9    31    30    1
    10    28    25    1
    11    28    29    1
    12    24    25    2
    13    24    23    1
    14    30    29    1
    15    25    26    1
    16    23    22    2
    17    26    27    2
    18    22    27    1
    19    22     2    1
    20     3     2    2
    21     2     1   am
    22     1     4    1
    23     1     5    1
    24     5     6    1
    25     5    10    1
    26     6     7    1
    27    18    17    1
    28    18    19    2
    29    10     9    1
    30    17    16    2
    31    19    20    1
    32     7     8    1
    33    15    14    1
    34    20    21    2
    35    16    14    1
    36    16    21    1
    37     9     8    1
    38    14    12   am
    39     8    11    1
    40    12    11    1
    41    12    13    2
