@<TRIPOS>MOLECULE
46788_out_ligand_01.pdbqt
 28 31 0 0 0
SMALL
GASTEIGER

@<TRIPOS>ATOM
      1  C         19.9830  -22.7800   -9.8490 C.2     1  UNL1        0.0670
      2  C         18.7790  -22.1040  -10.1120 C.2     1  UNL1        0.0200
      3  C         18.6500  -21.2650  -11.2190 C.2     1  UNL1        0.0020
      4  C         19.7200  -21.0720  -12.0990 C.2     1  UNL1        0.0140
      5  C         20.9410  -21.7350  -11.8640 C.ar    1  UNL1       -0.0000
      6  C         22.1960  -21.7680  -12.5330 C.ar    1  UNL1       -0.0230
      7  C         23.0260  -22.6040  -11.8140 C.ar    1  UNL1        0.0170
      8  N         22.3300  -23.0860  -10.7440 N.ar    1  UNL1       -0.3580
      9  C         21.0470  -22.5700  -10.7480 C.ar    1  UNL1        0.0590
     10  C         24.4310  -22.9560  -12.1510 C.3     1  UNL1        0.0570
     11  C         24.9750  -21.9670  -13.1980 C.3     1  UNL1        0.0060
     12  C         23.9520  -21.6760  -14.3120 C.3     1  UNL1        0.0050
     13  C         22.6520  -21.0570  -13.7610 C.3     1  UNL1        0.0410
     14  H         22.6740  -23.7280  -10.0370 H       1  UNL1        0.1660
     15  C         20.1780  -23.6880   -8.6880 C.2     1  UNL1        0.3000
     16  O         20.3330  -24.8960   -8.8060 O.2     1  UNL1       -0.2590
     17  O         20.1550  -22.9570   -7.5150 O.3     1  UNL1       -0.2750
     18  C         18.9600  -23.0600   -6.7980 C.2     1  UNL1        0.0790
     19  C         18.6320  -22.0280   -5.9230 C.2     1  UNL1        0.0380
     20  C         17.4200  -22.0810   -5.2300 C.2     1  UNL1        0.0200
     21  C         16.5370  -23.1520   -5.4300 C.2     1  UNL1        0.0320
     22  C         16.8810  -24.1810   -6.3190 C.2     1  UNL1        0.0200
     23  C         18.0920  -24.1290   -7.0140 C.2     1  UNL1        0.0380
     24  C         15.2600  -23.1590   -4.6640 C.2     1  UNL1        0.2490
     25  N         14.3550  -24.1450   -4.9490 N.am    1  UNL1       -0.3660
     26  H         14.3990  -24.6890   -5.7980 H       1  UNL1        0.1590
     27  H         13.4500  -24.0490   -4.5050 H       1  UNL1        0.1590
     28  O         15.0010  -22.2970   -3.8350 O.2     1  UNL1       -0.2680
@<TRIPOS>BOND
     1    12    13    1
     2    12    11    1
     3    13     6    1
     4    11    10    1
     5     6     5   ar
     6     6     7   ar
     7    10     7    1
     8     4     5    2
     9     4     3    1
    10     5     9   ar
    11     7     8   ar
    12     3     2    2
    13     9     8   ar
    14     9     1    2
    15     8    14    1
    16     2     1    1
    17     1    15    1
    18    16    15    2
    19    15    17    1
    20    17    18    1
    21    23    18    2
    22    23    22    1
    23    18    19    1
    24    22    21    2
    25    19    20    2
    26    26    25    1
    27    21    20    1
    28    21    24    1
    29    25    24   am
    30    25    27    1
    31    24    28    2
