@<TRIPOS>MOLECULE
46793_out_ligand_01.pdbqt
 31 33 0 0 0
SMALL
GASTEIGER

@<TRIPOS>ATOM
      1  C         16.6390  -20.9900  -11.0530 C.3     1  UNL1        0.0500
      2  C         18.0620  -21.4520  -10.9170 C.2     1  UNL1       -0.0390
      3  C         19.0310  -20.8640  -11.7460 C.2     1  UNL1        0.0100
      4  C         20.3750  -21.2540  -11.6950 C.2     1  UNL1        0.0300
      5  C         20.7860  -22.2630  -10.8270 C.2     1  UNL1        0.0360
      6  C         19.8360  -22.8540   -9.9900 C.2     1  UNL1        0.0540
      7  C         18.4900  -22.4330  -10.0080 C.2     1  UNL1        0.0830
      8  N         22.1100  -22.7340  -10.7380 N.am    1  UNL1       -0.3270
      9  C         23.1690  -22.1480  -10.0650 C.2     1  UNL1        0.2260
     10  O         23.1310  -21.1140   -9.4050 O.2     1  UNL1       -0.2730
     11  H         22.3090  -23.5970  -11.2330 H       1  UNL1        0.1690
     12  C         24.4630  -22.9330  -10.1960 C.3     1  UNL1        0.1440
     13  C         25.3500  -22.3760  -11.2780 C.2     1  UNL1       -0.0110
     14  C         26.1750  -21.2680  -11.0360 C.2     1  UNL1        0.0110
     15  C         26.9710  -20.7440  -12.0570 C.2     1  UNL1        0.0010
     16  C         26.9450  -21.3160  -13.3300 C.2     1  UNL1        0.0030
     17  C         26.1170  -22.4120  -13.5850 C.2     1  UNL1        0.0430
     18  C         25.3260  -22.9260  -12.5630 C.2     1  UNL1        0.1230
     19  F         24.5210  -23.9680  -12.8230 F       1  UNL1       -0.2060
     20  S         17.4190  -23.2140   -8.8090 S.O2    1  UNL1        0.2460
     21  O         18.2640  -24.0800   -8.0130 O.2     1  UNL1       -0.2060
     22  O         16.2160  -23.7120   -9.4340 O.2     1  UNL1       -0.2060
     23  N         17.0120  -21.9200   -7.7990 N.pl3   1  UNL1       -0.1800
     24  H         17.6790  -21.1560   -7.9330 H       1  UNL1        0.1460
     25  C         16.6470  -22.1820   -6.4360 C.2     1  UNL1        0.0440
     26  C         15.3580  -22.6070   -6.1050 C.2     1  UNL1        0.0260
     27  C         15.0100  -22.8320   -4.7670 C.2     1  UNL1        0.0020
     28  C         15.9480  -22.6340   -3.7530 C.2     1  UNL1        0.0020
     29  C         17.2330  -22.1920   -4.0720 C.2     1  UNL1        0.0260
     30  C         17.5810  -21.9700   -5.4070 C.2     1  UNL1        0.0560
     31 CL         19.1850  -21.4260   -5.7590 Cl      1  UNL1       -0.0820
@<TRIPOS>BOND
     1    17    16    2
     2    17    18    1
     3    16    15    1
     4    19    18    1
     5    18    13    2
     6    15    14    2
     7     3     4    1
     8     3     2    2
     9     4     5    2
    10    13    14    1
    11    13    12    1
    12    11     8    1
    13     1     2    1
    14     2     7    1
    15     5     8    1
    16     5     6    1
    17     8     9   am
    18    12     9    1
    19     9    10    2
    20     7     6    2
    21     7    20    1
    22    22    20    2
    23    20    21    2
    24    20    23    1
    25    24    23    1
    26    23    25    1
    27    25    26    2
    28    25    30    1
    29    26    27    1
    30    31    30    1
    31    30    29    2
    32    27    28    2
    33    29    28    1
