@<TRIPOS>MOLECULE
46798_out_ligand_01.pdbqt
 33 35 0 0 0
SMALL
GASTEIGER

@<TRIPOS>ATOM
      1  C         20.0540  -21.6430  -11.0850 C.2     1  UNL1        0.0350
      2  C         19.1280  -20.8630  -11.7930 C.2     1  UNL1        0.0170
      3  C         17.7660  -20.9640  -11.5020 C.2     1  UNL1        0.0040
      4  C         17.3290  -21.8290  -10.4970 C.2     1  UNL1        0.0370
      5  C         18.2580  -22.5750   -9.7650 C.2     1  UNL1        0.0770
      6  C         19.6170  -22.4940  -10.0640 C.2     1  UNL1        0.0540
      7  C         21.5130  -21.5750  -11.3760 C.2     1  UNL1        0.2560
      8  N         21.8410  -21.7270  -12.7110 N.am    1  UNL1       -0.3230
      9  H         21.0870  -21.9620  -13.3430 H       1  UNL1        0.1690
     10  O         22.2850  -21.4240  -10.4370 O.2     1  UNL1       -0.2670
     11  C         23.1280  -21.6920  -13.2860 C.2     1  UNL1        0.0350
     12  C         24.1960  -22.4830  -12.8640 C.2     1  UNL1        0.0300
     13  C         25.4450  -22.3860  -13.4890 C.2     1  UNL1        0.0100
     14  C         25.6470  -21.4890  -14.5460 C.2     1  UNL1       -0.0490
     15  C         24.5780  -20.6900  -14.9660 C.2     1  UNL1        0.0100
     16  C         23.3310  -20.7930  -14.3410 C.2     1  UNL1        0.0300
     17  C         27.0050  -21.3670  -15.1990 C.3     1  UNL1        0.1410
     18  C         27.1110  -21.9350  -16.6040 C.2     1  UNL1        0.2190
     19  N         27.1210  -21.0570  -17.6470 N.am    1  UNL1       -0.3700
     20  H         27.2770  -21.4560  -18.5640 H       1  UNL1        0.1590
     21  H         27.3830  -20.0890  -17.5130 H       1  UNL1        0.1590
     22  O         27.1210  -23.1430  -16.8240 O.2     1  UNL1       -0.2730
     23  O         17.8880  -23.4660   -8.7830 O.2     1  UNL1       -0.3110
     24  C         17.6830  -22.9610   -7.5190 C.2     1  UNL1        0.0760
     25  C         18.7310  -22.5290   -6.7030 C.2     1  UNL1        0.0370
     26  C         18.4590  -22.0540   -5.4200 C.2     1  UNL1        0.0040
     27  C         17.1440  -22.0260   -4.9480 C.2     1  UNL1        0.0160
     28  C         16.0880  -22.4900   -5.7490 C.2     1  UNL1        0.0500
     29  C         16.3720  -22.9600   -7.0410 C.2     1  UNL1        0.0530
     30  C         14.6650  -22.4560   -5.2510 C.3     1  UNL1        0.4170
     31  F         13.8630  -21.6150   -5.9630 F       1  UNL1       -0.1660
     32  F         14.5660  -22.0560   -3.9530 F       1  UNL1       -0.1660
     33  F         14.0690  -23.6790   -5.3120 F       1  UNL1       -0.1660
@<TRIPOS>BOND
     1    20    19    1
     2    19    21    1
     3    19    18   am
     4    22    18    2
     5    18    17    1
     6    17    14    1
     7    15    14    2
     8    15    16    1
     9    14    13    1
    10    16    11    2
    11    13    12    2
    12     9     8    1
    13    11    12    1
    14    11     8    1
    15     8     7   am
    16     2     3    1
    17     2     1    2
    18     3     4    2
    19     7     1    1
    20     7    10    2
    21     1     6    1
    22     4     5    1
    23     6     5    2
    24     5    23    1
    25    23    24    1
    26    24    29    2
    27    24    25    1
    28    29    28    1
    29    25    26    2
    30    31    30    1
    31    28    30    1
    32    28    27    2
    33    26    27    1
    34    33    30    1
    35    30    32    1
