@<TRIPOS>MOLECULE
46799_out_ligand_01.pdbqt
 29 32 0 0 0
SMALL
GASTEIGER

@<TRIPOS>ATOM
      1  C         19.5710  -22.2820  -10.3020 C.2     1  UNL1        0.0320
      2  C         20.7320  -22.9650   -9.9240 C.2     1  UNL1        0.0190
      3  C         21.9080  -22.8200  -10.6680 C.2     1  UNL1        0.0300
      4  C         21.9450  -21.9860  -11.7920 C.2     1  UNL1        0.0350
      5  C         20.7880  -21.2900  -12.1540 C.2     1  UNL1        0.0300
      6  C         19.6080  -21.4320  -11.4120 C.2     1  UNL1        0.0190
      7  C         18.3430  -22.4640   -9.4790 C.2     1  UNL1        0.2520
      8  O         17.2600  -22.1280   -9.9430 O.2     1  UNL1       -0.2680
      9  N         18.5360  -22.9810   -8.2150 N.am    1  UNL1       -0.3440
     10  H         19.4950  -23.0860   -7.9060 H       1  UNL1        0.1640
     11  C         17.4800  -23.2650   -7.1870 C.3     1  UNL1        0.0600
     12  C         17.0800  -24.7730   -7.0880 C.3     1  UNL1        0.0360
     13  C         15.7340  -24.4760   -7.7570 C.3     1  UNL1        0.0060
     14  C         16.0240  -22.9730   -7.6810 C.3     1  UNL1        0.0360
     15  C         17.9120  -22.5560   -5.7950 C.2     1  UNL1       -0.0300
     16  C         18.6300  -21.3420   -5.7700 C.2     1  UNL1        0.0100
     17  C         18.9800  -20.7110   -4.5730 C.2     1  UNL1        0.0010
     18  C         18.6100  -21.2730   -3.3560 C.2     1  UNL1        0.0000
     19  C         17.8890  -22.4600   -3.3400 C.2     1  UNL1        0.0010
     20  C         17.5430  -23.0850   -4.5400 C.2     1  UNL1        0.0100
     21  N         23.1650  -21.8970  -12.4840 N.am    1  UNL1       -0.3210
     22  C         23.4350  -21.2520  -13.6780 C.2     1  UNL1        0.2790
     23  O         22.6180  -20.6340  -14.3550 O.2     1  UNL1       -0.2650
     24  H         23.9670  -22.3620  -12.0700 H       1  UNL1        0.1690
     25  C         24.8260  -21.3800  -14.0770 C.2     1  UNL1        0.1420
     26  C         25.5460  -20.7610  -15.0830 C.2     1  UNL1        0.0450
     27  C         26.8650  -21.2680  -15.0110 C.2     1  UNL1        0.0270
     28  C         26.8750  -22.1650  -13.9710 C.2     1  UNL1        0.1430
     29  O         25.6480  -22.2440  -13.3950 O.2     1  UNL1       -0.3170
@<TRIPOS>BOND
     1    26    27    1
     2    26    25    2
     3    27    28    2
     4    23    22    2
     5    25    22    1
     6    25    29    1
     7    28    29    1
     8    22    21   am
     9    21    24    1
    10    21     4    1
    11     5     4    2
    12     5     6    1
    13     4     3    1
    14     6     1    2
    15     3     2    2
    16     1     2    1
    17     1     7    1
    18     8     7    2
    19     7     9   am
    20     9    10    1
    21     9    11    1
    22    13    14    1
    23    13    12    1
    24    14    11    1
    25    11    12    1
    26    11    15    1
    27    15    16    2
    28    15    20    1
    29    16    17    1
    30    17    18    2
    31    20    19    2
    32    18    19    1
