@<TRIPOS>MOLECULE
46797_out_ligand_01.pdbqt
 26 28 0 0 0
SMALL
GASTEIGER

@<TRIPOS>ATOM
      1  N         20.3560  -23.2870   -8.3280 N.3     1  UNL1        0.0960
      2  H         20.5840  -22.7030   -7.5300 H       1  UNL1        0.3170
      3  C         19.4120  -24.3400   -7.9770 C.3     1  UNL1        0.3090
      4  C         18.3370  -23.8040   -7.0580 C.2     1  UNL1       -0.0300
      5  C         18.5980  -22.7220   -6.2050 C.2     1  UNL1        0.0100
      6  C         17.6040  -22.2310   -5.3520 C.2     1  UNL1        0.0170
      7  C         16.3370  -22.8270   -5.3360 C.2     1  UNL1        0.0310
      8  C         16.0690  -23.9020   -6.1910 C.2     1  UNL1        0.0170
      9  C         17.0630  -24.3900   -7.0410 C.2     1  UNL1        0.0100
     10  C         15.2470  -22.3420   -4.4490 C.2     1  UNL1        0.2490
     11  N         14.1350  -21.8120   -5.0470 N.am    1  UNL1       -0.3660
     12  H         14.1470  -21.4950   -6.0040 H       1  UNL1        0.1590
     13  H         13.4750  -21.3690   -4.4200 H       1  UNL1        0.1590
     14  O         15.3430  -22.3760   -3.2290 O.2     1  UNL1       -0.2680
     15  C         19.9250  -22.4760   -9.4760 C.3     1  UNL1        0.2540
     16  C         18.6580  -23.1440  -10.0530 C.3     1  UNL1        0.0400
     17  C         17.7000  -22.1620  -10.7360 C.3     1  UNL1        0.0030
     18  C         18.2480  -21.4510  -11.9720 C.3     1  UNL1        0.0050
     19  C         19.4510  -20.5520  -11.6890 C.3     1  UNL1        0.0390
     20  C         20.7380  -21.3410  -11.6080 C.2     1  UNL1       -0.0480
     21  C         21.7020  -21.1490  -12.6170 C.2     1  UNL1        0.0260
     22  C         20.9710  -22.2820  -10.5770 C.2     1  UNL1       -0.0190
     23  C         22.8790  -21.8890  -12.6230 C.2     1  UNL1        0.0110
     24 BR         24.1570  -21.6190  -13.9890 Br      1  UNL1       -0.0510
     25  C         23.1120  -22.8360  -11.6360 C.2     1  UNL1        0.0190
     26  C         22.1650  -23.0320  -10.6280 C.2     1  UNL1        0.0110
@<TRIPOS>BOND
     1    24    23    1
     2    23    21    1
     3    23    25    2
     4    21    20    2
     5    18    19    1
     6    18    17    1
     7    19    20    1
     8    25    26    1
     9    20    22    1
    10    17    16    1
    11    26    22    2
    12    22    15    1
    13    16    15    1
    14    15     1    1
    15     1     3    1
    16     1     2    1
    17     3     4    1
    18     4     9    2
    19     4     5    1
    20     9     8    1
    21     5     6    2
    22     8     7    2
    23    12    11    1
    24     6     7    1
    25     7    10    1
    26    11    10   am
    27    11    13    1
    28    10    14    2
