@<TRIPOS>MOLECULE
46806_out_ligand_01.pdbqt
 32 36 0 0 0
SMALL
GASTEIGER

@<TRIPOS>ATOM
      1  O         21.9390  -23.9060   -9.5180 O.2     1  UNL1       -0.2670
      2  C         22.1260  -23.0860  -10.4070 C.2     1  UNL1        0.2560
      3  N         21.1870  -22.2810  -11.0230 N.am    1  UNL1       -0.3230
      4  H         21.4980  -21.7620  -11.8340 H       1  UNL1        0.1690
      5  C         19.8120  -22.1820  -10.7230 C.2     1  UNL1        0.0350
      6  C         19.0140  -21.4790  -11.6330 C.2     1  UNL1        0.0290
      7  C         17.6460  -21.3270  -11.4110 C.2     1  UNL1        0.0030
      8  C         17.0590  -21.8730  -10.2680 C.2     1  UNL1        0.0150
      9  C         17.8380  -22.5750   -9.3370 C.2     1  UNL1        0.0130
     10  C         19.2150  -22.7280   -9.5830 C.2     1  UNL1        0.0440
     11  C         17.2570  -23.1590   -8.1270 C.3     1  UNL1        0.1560
     12  N         16.1810  -22.7510   -7.4830 N.2     1  UNL1       -0.2110
     13  C         16.0600  -23.6330   -6.4450 C.2     1  UNL1        0.1520
     14  N         16.9950  -24.5860   -6.4070 N.pl3   1  UNL1       -0.1570
     15  N         17.7380  -24.2640   -7.4770 N.3     1  UNL1       -0.2590
     16  H         18.5350  -24.8390   -7.7140 H       1  UNL1        0.1910
     17  C         14.9100  -23.5120   -5.4060 C.3     1  UNL1        0.0590
     18  C         15.0160  -22.4510   -4.3400 C.3     1  UNL1        0.0130
     19  C         15.1220  -23.9020   -3.9650 C.3     1  UNL1        0.0130
     20  C         23.5070  -22.9330  -10.9340 C.2     1  UNL1        0.0340
     21  C         24.6250  -23.1700  -10.1260 C.2     1  UNL1        0.0170
     22  C         25.9060  -23.0410  -10.6630 C.2     1  UNL1        0.0030
     23  C         26.0690  -22.6730  -12.0010 C.2     1  UNL1        0.0300
     24  C         24.9550  -22.4120  -12.8030 C.2     1  UNL1        0.0450
     25  C         23.6740  -22.5790  -12.2780 C.2     1  UNL1        0.0470
     26  N         25.0660  -22.1170  -14.1940 N.pl3   1  UNL1       -0.2760
     27  C         26.2590  -22.5940  -14.9310 C.3     1  UNL1        0.1420
     28  C         26.6110  -21.5250  -15.9730 C.3     1  UNL1        0.0380
     29  C         25.3070  -20.8370  -16.3550 C.3     1  UNL1        0.1650
     30  S         24.4920  -20.6230  -14.7870 S.O2    1  UNL1        0.2330
     31  O         23.0580  -20.6910  -14.9500 O.2     1  UNL1       -0.2050
     32  O         25.1490  -19.5350  -14.0940 O.2     1  UNL1       -0.2050
@<TRIPOS>BOND
     1    29    28    1
     2    29    30    1
     3    28    27    1
     4    31    30    2
     5    27    26    1
     6    30    26    1
     7    30    32    2
     8    26    24    1
     9    24    25    1
    10    24    23    2
    11    25    20    2
    12    23    22    1
    13     4     3    1
    14     6     7    1
    15     6     5    2
    16     7     8    2
    17     3     5    1
    18     3     2   am
    19    20     2    1
    20    20    21    1
    21     5    10    1
    22    22    21    2
    23     2     1    2
    24     8     9    1
    25    10     9    2
    26     9    11    1
    27    11    12    1
    28    11    15    1
    29    16    15    1
    30    12    13    2
    31    15    14    1
    32    13    14    1
    33    13    17    1
    34    17    18    1
    35    17    19    1
    36    18    19    1
