@<TRIPOS>MOLECULE
4682_out_ligand_01.pdbqt
 35 38 0 0 0
SMALL
GASTEIGER

@<TRIPOS>ATOM
      1  C         20.4490  -23.4110   -9.2140 C.2     1  UNL1        0.0290
      2  C         19.5350  -23.8770   -8.3030 C.2     1  UNL1        0.1110
      3  N         18.3140  -23.3250   -8.6130 N.pl3   1  UNL1       -0.3460
      4  C         18.4260  -22.5360   -9.7460 C.2     1  UNL1        0.0460
      5  C         17.4610  -21.8060  -10.4620 C.2     1  UNL1        0.0300
      6  C         17.8760  -21.0790  -11.5790 C.2     1  UNL1        0.0020
      7  C         19.2140  -21.0680  -11.9750 C.2     1  UNL1        0.0010
      8  C         20.1720  -21.8020  -11.2630 C.2     1  UNL1        0.0150
      9  C         19.7760  -22.5550  -10.1320 C.2     1  UNL1        0.0090
     10  S         22.1360  -23.8590   -9.2310 S.3     1  UNL1       -0.1180
     11  C         22.9130  -22.2240   -9.0630 C.3     1  UNL1        0.1820
     12  C         23.7470  -21.8770  -10.2920 C.2     1  UNL1        0.2310
     13  N         23.4250  -22.6640  -11.4000 N.am    1  UNL1       -0.3270
     14  H         22.6290  -23.2960  -11.3090 H       1  UNL1        0.1690
     15  O         24.5890  -20.9770  -10.2550 O.2     1  UNL1       -0.2720
     16  C         24.0530  -22.6610  -12.6610 C.2     1  UNL1        0.0340
     17  C         25.0340  -23.5840  -13.0430 C.2     1  UNL1        0.0300
     18  C         25.6180  -23.5110  -14.3160 C.2     1  UNL1        0.0190
     19  C         25.2380  -22.4990  -15.2130 C.2     1  UNL1        0.0320
     20  C         24.2370  -21.5890  -14.8400 C.2     1  UNL1        0.0190
     21  C         23.6470  -21.6760  -13.5740 C.2     1  UNL1        0.0300
     22  C         25.8390  -22.3440  -16.5670 C.2     1  UNL1        0.2490
     23  N         26.2720  -21.0960  -16.9370 N.am    1  UNL1       -0.3660
     24  H         26.5610  -21.0020  -17.8990 H       1  UNL1        0.1590
     25  H         26.0880  -20.2390  -16.4180 H       1  UNL1        0.1590
     26  O         25.9190  -23.2900  -17.3490 O.2     1  UNL1       -0.2680
     27  C         17.0870  -23.5920   -7.8630 C.3     1  UNL1        0.2310
     28  C         17.3250  -24.0240   -6.4250 C.2     1  UNL1        0.2380
     29  O         17.2120  -25.2170   -6.1220 O.2     1  UNL1       -0.2720
     30  N         17.7080  -23.0740   -5.4830 N.am    1  UNL1       -0.3470
     31  C         17.7820  -23.4630   -4.0690 C.3     1  UNL1        0.1520
     32  C         17.9390  -21.6490   -5.7440 C.3     1  UNL1        0.1520
     33  C         17.4380  -22.2740   -3.1530 C.3     1  UNL1        0.1870
     34  O         18.3160  -21.1520   -3.3280 O.3     1  UNL1       -0.3880
     35  C         18.8350  -21.0220   -4.6610 C.3     1  UNL1        0.1870
@<TRIPOS>BOND
     1    24    23    1
     2    26    22    2
     3    23    22   am
     4    23    25    1
     5    22    19    1
     6    19    20    2
     7    19    18    1
     8    20    21    1
     9    18    17    2
    10    21    16    2
    11    17    16    1
    12    16    13    1
    13     7     6    2
    14     7     8    1
    15     6     5    1
    16    13    14    1
    17    13    12   am
    18     8     9    2
    19     5     4    2
    20    12    15    2
    21    12    11    1
    22     9     4    1
    23     9     1    1
    24     4     3    1
    25    10     1    1
    26    10    11    1
    27     1     2    2
    28     3     2    1
    29     3    27    1
    30    27    28    1
    31    28    29    2
    32    28    30   am
    33    32    30    1
    34    32    35    1
    35    30    31    1
    36    35    34    1
    37    31    33    1
    38    34    33    1
