@<TRIPOS>MOLECULE
46828_out_ligand_01.pdbqt
 38 42 0 0 0
SMALL
GASTEIGER

@<TRIPOS>ATOM
      1  C         22.3530  -22.9560  -10.6900 C.ar    1  UNL1        0.1920
      2  N         23.1310  -23.6360   -9.8830 N.ar    1  UNL1       -0.1230
      3  N         22.3530  -24.1670   -8.9010 N.ar    1  UNL1       -0.1340
      4  C         21.0990  -23.8150   -9.1230 C.ar    1  UNL1        0.1350
      5  N         21.0470  -23.0380  -10.2700 N.ar    1  UNL1       -0.3060
      6  S         22.9100  -22.0630  -12.0610 S.3     1  UNL1       -0.0810
      7  C         24.3700  -23.0300  -12.5550 C.3     1  UNL1        0.1790
      8  C         24.7900  -22.6830  -13.9750 C.2     1  UNL1        0.2150
      9  O         25.0540  -23.5460  -14.8120 O.2     1  UNL1       -0.2790
     10  N         24.7890  -21.3360  -14.2610 N.am    1  UNL1       -0.1790
     11  C         25.9830  -20.6710  -14.1550 C.2     1  UNL1        0.3010
     12  H         24.0840  -20.8150  -13.7420 H       1  UNL1        0.1410
     13  O         27.0720  -21.2070  -13.9920 O.2     1  UNL1       -0.2540
     14  N         25.8030  -19.3120  -14.2490 N.am    1  UNL1       -0.3410
     15  H         24.9160  -18.9690  -14.5970 H       1  UNL1        0.1640
     16  C         26.9080  -18.3800  -14.1850 C.3     1  UNL1        0.1890
     17  C         26.8470  -17.4590  -15.3520 C.2     1  UNL1        0.0700
     18  C         27.1200  -16.1180  -15.5420 C.2     1  UNL1        0.0360
     19  C         26.8490  -15.8430  -16.9050 C.2     1  UNL1        0.0270
     20  C         26.4190  -17.0270  -17.4570 C.2     1  UNL1        0.1420
     21  O         26.4120  -18.0120  -16.5240 O.2     1  UNL1       -0.3250
     22  C         19.8820  -22.4570  -10.9270 C.3     1  UNL1        0.0930
     23  C         19.8380  -20.9250  -10.8920 C.3     1  UNL1        0.0260
     24  C         18.7170  -20.3730  -11.7770 C.3     1  UNL1        0.0020
     25  C         17.4780  -21.2700  -11.8300 C.3     1  UNL1        0.0000
     26  C         17.3570  -22.1610  -10.6010 C.3     1  UNL1        0.0020
     27  C         18.5580  -23.0990  -10.4670 C.3     1  UNL1        0.0260
     28  C         19.9420  -24.2430   -8.2710 C.3     1  UNL1        0.1200
     29  C         19.3740  -23.1930   -7.3200 C.2     1  UNL1       -0.0400
     30  C         20.1650  -22.1000   -6.9130 C.2     1  UNL1        0.0080
     31  C         19.6740  -21.1450   -6.0280 C.2     1  UNL1        0.0010
     32  C         18.3870  -21.2680   -5.5200 C.2     1  UNL1        0.0120
     33  C         17.5740  -22.3510   -5.8790 C.2     1  UNL1       -0.0250
     34  C         16.2830  -22.4580   -5.3330 C.2     1  UNL1        0.0120
     35  C         18.0570  -23.3370   -6.7790 C.2     1  UNL1       -0.0190
     36  C         15.4510  -23.5260   -5.6590 C.2     1  UNL1        0.0010
     37  C         15.9030  -24.5070   -6.5290 C.2     1  UNL1        0.0010
     38  C         17.1870  -24.4160   -7.0770 C.2     1  UNL1        0.0130
@<TRIPOS>BOND
     1    20    19    2
     2    20    21    1
     3    19    18    1
     4    21    17    1
     5    18    17    2
     6    17    16    1
     7     9     8    2
     8    15    14    1
     9    10    11   am
    10    10     8   am
    11    10    12    1
    12    14    16    1
    13    14    11   am
    14    11    13    2
    15     8     7    1
    16     7     6    1
    17     6     1    1
    18    25    24    1
    19    25    26    1
    20    24    23    1
    21    22    23    1
    22    22    27    1
    23    22     5    1
    24     1     5   ar
    25     1     2   ar
    26    26    27    1
    27     5     4   ar
    28     2     3   ar
    29     4     3   ar
    30     4    28    1
    31    28    29    1
    32    29    30    2
    33    29    35    1
    34    38    35    1
    35    38    37    2
    36    30    31    1
    37    35    33    2
    38    37    36    1
    39    31    32    2
    40    33    32    1
    41    33    34    1
    42    36    34    2
