@<TRIPOS>MOLECULE
46836_out_ligand_01.pdbqt
 35 38 0 0 0
SMALL
GASTEIGER

@<TRIPOS>ATOM
      1  C         19.7820  -22.2880  -10.2440 C.2     1  UNL1        0.0540
      2  C         18.9290  -21.3580  -10.8540 C.2     1  UNL1        0.0190
      3  C         19.3390  -20.6940  -12.0110 C.2     1  UNL1        0.0010
      4  C         20.5980  -20.9500  -12.5560 C.2     1  UNL1        0.0020
      5  C         21.4550  -21.8680  -11.9460 C.2     1  UNL1        0.0250
      6  C         21.0580  -22.5300  -10.7820 C.2     1  UNL1        0.0380
      7  N         21.9300  -23.5260  -10.2280 N.pl3   1  UNL1       -0.1800
      8  H         22.1740  -24.2750  -10.8950 H       1  UNL1        0.1460
      9  S         23.3710  -22.9490   -9.5350 S.O2    1  UNL1        0.2460
     10  O         23.0700  -21.6670   -8.9390 O.2     1  UNL1       -0.2060
     11  O         23.9930  -24.0130   -8.7750 O.2     1  UNL1       -0.2060
     12  C         24.3650  -22.6220  -10.9740 C.2     1  UNL1        0.0770
     13  C         25.0810  -21.4030  -11.0670 C.2     1  UNL1        0.0270
     14  C         25.8660  -21.1250  -12.1910 C.2     1  UNL1        0.0330
     15  C         25.8930  -22.0830  -13.1770 C.ar    1  UNL1        0.0630
     16  N         26.5720  -22.0880  -14.3900 N.ar    1  UNL1       -0.3070
     17  C         25.1770  -23.2780  -13.0820 C.ar    1  UNL1        0.0640
     18  C         26.2840  -23.2840  -15.0640 C.ar    1  UNL1        0.3250
     19  H         27.1700  -21.3690  -14.7620 H       1  UNL1        0.1700
     20  O         26.7060  -23.6240  -16.1550 O.2     1  UNL1       -0.2470
     21  N         25.4170  -24.0130  -14.2370 N.ar    1  UNL1       -0.3060
     22  H         25.0410  -24.9160  -14.4780 H       1  UNL1        0.1700
     23  C         24.3960  -23.5820  -11.9960 C.2     1  UNL1        0.0560
     24  C         19.3610  -22.9890   -9.0020 C.2     1  UNL1        0.2580
     25  O         19.7430  -24.1440   -8.8430 O.2     1  UNL1       -0.2670
     26  N         18.5320  -22.2590   -8.1730 N.am    1  UNL1       -0.3230
     27  H         18.1750  -21.3870   -8.5450 H       1  UNL1        0.1690
     28  C         18.0050  -22.6600   -6.9270 C.2     1  UNL1        0.0360
     29  C         17.1110  -23.7230   -6.7670 C.2     1  UNL1        0.0320
     30  C         16.6370  -24.0660   -5.4960 C.2     1  UNL1        0.0460
     31  C         17.0600  -23.3500   -4.3830 C.2     1  UNL1        0.1380
     32  F         16.5960  -23.6980   -3.1740 F       1  UNL1       -0.2040
     33  C         17.9520  -22.2930   -4.5280 C.2     1  UNL1        0.0740
     34 CL         18.4890  -21.4020   -3.1550 Cl      1  UNL1       -0.0810
     35  C         18.4270  -21.9490   -5.7960 C.2     1  UNL1        0.0560
@<TRIPOS>BOND
     1    20    18    2
     2    18    16   ar
     3    18    21   ar
     4    19    16    1
     5    22    21    1
     6    16    15   ar
     7    21    17   ar
     8    15    17   ar
     9    15    14    1
    10    17    23    1
    11     4     3    2
    12     4     5    1
    13    14    13    2
    14     3     2    1
    15    23    12    2
    16     5     6    2
    17    13    12    1
    18    12     9    1
    19     8     7    1
    20     2     1    2
    21     6     1    1
    22     6     7    1
    23     1    24    1
    24     7     9    1
    25     9    10    2
    26     9    11    2
    27    24    25    2
    28    24    26   am
    29    27    26    1
    30    26    28    1
    31    28    29    2
    32    28    35    1
    33    29    30    1
    34    35    33    2
    35    30    31    2
    36    33    31    1
    37    33    34    1
    38    31    32    1
