@<TRIPOS>MOLECULE
46858_out_ligand_01.pdbqt
 37 41 0 0 0
SMALL
GASTEIGER

@<TRIPOS>ATOM
      1  C         17.7560  -21.7020  -10.2820 C.ar    1  UNL1        0.1920
      2  N         16.4550  -21.8370  -10.2260 N.ar    1  UNL1       -0.1230
      3  N         16.1810  -22.7610   -9.2620 N.ar    1  UNL1       -0.1340
      4  C         17.3200  -23.1900   -8.7460 C.ar    1  UNL1        0.1350
      5  N         18.3700  -22.5580   -9.3950 N.ar    1  UNL1       -0.3060
      6  S         18.5340  -20.5710  -11.3340 S.3     1  UNL1       -0.0810
      7  C         19.6550  -21.6630  -12.2560 C.3     1  UNL1        0.1850
      8  C         21.1340  -21.3220  -12.1390 C.2     1  UNL1        0.2310
      9  N         21.9290  -21.8580  -13.1340 N.am    1  UNL1       -0.3270
     10  H         21.4300  -22.2280  -13.9370 H       1  UNL1        0.1690
     11  O         21.5230  -20.6730  -11.1690 O.2     1  UNL1       -0.2720
     12  C         23.3280  -21.7470  -13.2740 C.2     1  UNL1        0.0350
     13  C         23.9600  -20.7500  -14.0190 C.2     1  UNL1        0.0290
     14  C         25.3540  -20.7100  -14.1130 C.2     1  UNL1        0.0030
     15  C         26.1270  -21.6650  -13.4520 C.2     1  UNL1        0.0150
     16  C         25.5130  -22.6670  -12.6910 C.2     1  UNL1        0.0110
     17  C         24.1140  -22.7030  -12.6060 C.2     1  UNL1        0.0440
     18  C         26.3820  -23.6680  -12.0000 C.2     1  UNL1        0.1550
     19  C         26.8640  -23.3810  -10.6000 C.3     1  UNL1        0.0960
     20  O         26.6960  -24.7070  -12.5770 O.2     1  UNL1       -0.2930
     21  C         19.8080  -22.7430   -9.2450 C.3     1  UNL1        0.0930
     22  C         20.2620  -24.1910   -9.5120 C.3     1  UNL1        0.0260
     23  C         21.6240  -24.5160   -8.8860 C.3     1  UNL1        0.0020
     24  C         22.5430  -23.2970   -8.8750 C.3     1  UNL1        0.0000
     25  C         21.9580  -22.1450   -8.0530 C.3     1  UNL1        0.0020
     26  C         20.4260  -22.1670   -7.9670 C.3     1  UNL1        0.0260
     27  C         17.3840  -24.1820   -7.6210 C.3     1  UNL1        0.1200
     28  C         16.6550  -23.7690   -6.3530 C.2     1  UNL1       -0.0400
     29  C         15.3620  -24.2900   -6.1330 C.2     1  UNL1        0.0080
     30  C         14.6540  -23.9900   -4.9750 C.2     1  UNL1        0.0010
     31  C         15.2160  -23.1510   -4.0190 C.2     1  UNL1        0.0120
     32  C         16.4760  -22.5740   -4.2210 C.2     1  UNL1       -0.0250
     33  C         17.0060  -21.7150   -3.2440 C.2     1  UNL1        0.0120
     34  C         17.2070  -22.8500   -5.4070 C.2     1  UNL1       -0.0190
     35  C         18.2420  -21.1000   -3.4200 C.2     1  UNL1        0.0010
     36  C         18.9580  -21.3260   -4.5850 C.2     1  UNL1        0.0010
     37  C         18.4460  -22.1820   -5.5650 C.2     1  UNL1        0.0130
@<TRIPOS>BOND
     1    14    13    1
     2    14    15    2
     3    13    12    2
     4    10     9    1
     5    15    16    1
     6    12     9    1
     7    12    17    1
     8     9     8   am
     9    16    17    2
    10    16    18    1
    11    20    18    2
    12     7     8    1
    13     7     6    1
    14     8    11    2
    15    18    19    1
    16     6     1    1
    17     1     2   ar
    18     1     5   ar
    19     2     3   ar
    20    22    21    1
    21    22    23    1
    22     5    21    1
    23     5     4   ar
    24     3     4   ar
    25    21    26    1
    26    23    24    1
    27    24    25    1
    28     4    27    1
    29    25    26    1
    30    27    28    1
    31    28    29    2
    32    28    34    1
    33    29    30    1
    34    37    34    1
    35    37    36    2
    36    34    32    2
    37    30    31    2
    38    36    35    1
    39    32    31    1
    40    32    33    1
    41    35    33    2
