@<TRIPOS>MOLECULE
4686_out_ligand_01.pdbqt
 37 41 0 0 0
SMALL
GASTEIGER

@<TRIPOS>ATOM
      1  C         16.6060  -21.6810   -9.9040 C.3     1  UNL1        0.1210
      2  S         16.1240  -23.3650   -9.4190 S.3     1  UNL1       -0.0870
      3  C         16.1810  -23.2440   -7.6910 C.ar    1  UNL1        0.1700
      4  N         17.0880  -23.9170   -6.9120 N.ar    1  UNL1       -0.3190
      5  C         16.8300  -23.5720   -5.6000 C.ar    1  UNL1        0.0830
      6  C         17.4070  -23.9160   -4.3870 C.2     1  UNL1        0.1480
      7  C         15.7470  -22.7030   -5.6730 C.ar    1  UNL1        0.0890
      8  N         16.9020  -23.3790   -3.2510 N.2     1  UNL1       -0.2710
      9  C         15.8470  -22.5340   -3.3290 C.2     1  UNL1        0.1180
     10  C         15.2210  -22.1550   -4.5040 C.2     1  UNL1        0.0530
     11  N         15.3550  -22.5170   -6.9740 N.ar    1  UNL1       -0.2220
     12  C         18.1820  -24.7720   -7.3500 C.3     1  UNL1        0.1700
     13  C         19.4200  -23.9860   -7.7130 C.2     1  UNL1       -0.0400
     14  C         19.5830  -22.6560   -7.3000 C.2     1  UNL1        0.0090
     15  C         20.7360  -21.9430   -7.6360 C.2     1  UNL1        0.0070
     16  C         21.7490  -22.5420   -8.3900 C.2     1  UNL1       -0.0620
     17  C         22.9960  -21.7800   -8.7240 C.3     1  UNL1        0.0480
     18  C         21.6040  -23.8780   -8.7780 C.2     1  UNL1        0.0070
     19  C         20.4500  -24.5930   -8.4440 C.2     1  UNL1        0.0090
     20  C         17.9420  -21.6460  -10.6090 C.2     1  UNL1       -0.0480
     21  C         18.6740  -22.8260  -10.8000 C.2     1  UNL1        0.0090
     22  C         19.9010  -22.8000  -11.4690 C.2     1  UNL1        0.0170
     23  C         20.4170  -21.5910  -11.9470 C.2     1  UNL1        0.0320
     24  C         19.6830  -20.4110  -11.7760 C.2     1  UNL1        0.0170
     25  C         18.4540  -20.4400  -11.1110 C.2     1  UNL1        0.0090
     26  C         21.7290  -21.6090  -12.6510 C.2     1  UNL1        0.2510
     27  O         21.8710  -21.0140  -13.7130 O.2     1  UNL1       -0.2680
     28  N         22.7280  -22.3500  -12.0570 N.am    1  UNL1       -0.3530
     29  H         22.4650  -23.0370  -11.3640 H       1  UNL1        0.1630
     30  C         23.9770  -22.5730  -12.7510 C.3     1  UNL1        0.1640
     31  C         24.9310  -21.4390  -12.5140 C.2     1  UNL1       -0.0020
     32  C         25.4860  -21.2280  -11.2430 C.2     1  UNL1        0.0120
     33  C         26.3840  -20.1790  -11.0280 C.2     1  UNL1        0.0010
     34  C         26.7420  -19.3360  -12.0800 C.2     1  UNL1        0.0030
     35  C         26.2020  -19.5430  -13.3490 C.2     1  UNL1        0.0430
     36  C         25.3070  -20.5890  -13.5550 C.2     1  UNL1        0.1240
     37  F         24.8110  -20.7780  -14.7870 F       1  UNL1       -0.2050
@<TRIPOS>BOND
     1    37    36    1
     2    27    26    2
     3    36    35    1
     4    36    31    2
     5    35    34    2
     6    30    31    1
     7    30    28    1
     8    26    28   am
     9    26    23    1
    10    31    32    1
    11    34    33    1
    12    28    29    1
    13    23    24    2
    14    23    22    1
    15    24    25    1
    16    22    21    2
    17    32    33    2
    18    25    20    2
    19    21    20    1
    20    20     1    1
    21     1     2    1
    22     2     3    1
    23    18    19    1
    24    18    16    2
    25    17    16    1
    26    19    13    2
    27    16    15    1
    28    13    12    1
    29    13    14    1
    30     3    11   ar
    31     3     4   ar
    32    15    14    2
    33    12     4    1
    34    11     7   ar
    35     4     5   ar
    36     7     5   ar
    37     7    10    1
    38     5     6    1
    39    10     9    2
    40     6     8    2
    41     9     8    1
