@<TRIPOS>MOLECULE
46861_out_ligand_01.pdbqt
 36 40 0 0 0
SMALL
GASTEIGER

@<TRIPOS>ATOM
      1  C         22.4470  -22.9190  -10.4620 C.ar    1  UNL1        0.1920
      2  N         23.1640  -23.6480   -9.6400 N.ar    1  UNL1       -0.1230
      3  N         22.3060  -24.2530   -8.7730 N.ar    1  UNL1       -0.1340
      4  C         21.0710  -23.8900   -9.0740 C.ar    1  UNL1        0.1350
      5  N         21.1040  -23.0340  -10.1630 N.ar    1  UNL1       -0.3060
      6  S         23.1120  -21.9620  -11.7410 S.3     1  UNL1       -0.0810
      7  C         24.8280  -21.7850  -11.1720 C.3     1  UNL1        0.1850
      8  C         25.7370  -21.3060  -12.2940 C.2     1  UNL1        0.2310
      9  N         25.0540  -20.6630  -13.3110 N.am    1  UNL1       -0.3260
     10  H         24.0810  -20.4160  -13.1140 H       1  UNL1        0.1690
     11  O         26.9470  -21.5300  -12.2550 O.2     1  UNL1       -0.2720
     12  C         25.5630  -20.2040  -14.5440 C.2     1  UNL1        0.0350
     13  C         25.6170  -20.9790  -15.7040 C.2     1  UNL1        0.0360
     14  C         26.1110  -20.4460  -16.9080 C.2     1  UNL1       -0.0590
     15  C         26.5450  -19.1160  -16.9450 C.2     1  UNL1        0.0130
     16  C         26.1130  -21.2880  -18.1530 C.3     1  UNL1        0.0480
     17  C         26.4880  -18.3210  -15.7940 C.2     1  UNL1       -0.0590
     18  C         26.9760  -16.9010  -15.8180 C.3     1  UNL1        0.0480
     19  C         26.0070  -18.8780  -14.5970 C.2     1  UNL1        0.0360
     20  C         20.0150  -22.3990  -10.9020 C.3     1  UNL1        0.0930
     21  C         20.0350  -20.8660  -10.9280 C.3     1  UNL1        0.0260
     22  C         18.9320  -20.3080  -11.8290 C.3     1  UNL1        0.0020
     23  C         17.5580  -20.8520  -11.4400 C.3     1  UNL1        0.0000
     24  C         17.5370  -22.3780  -11.4170 C.3     1  UNL1        0.0020
     25  C         18.6310  -22.9500  -10.5190 C.3     1  UNL1        0.0260
     26  C         19.8820  -24.3520   -8.2830 C.3     1  UNL1        0.1200
     27  C         19.2760  -23.3210   -7.3440 C.2     1  UNL1       -0.0400
     28  C         20.0730  -22.2180   -6.9650 C.2     1  UNL1        0.0080
     29  C         19.5890  -21.2420   -6.1000 C.2     1  UNL1        0.0010
     30  C         18.2890  -21.3380   -5.6100 C.2     1  UNL1        0.0120
     31  C         17.4500  -22.3950   -5.9950 C.2     1  UNL1       -0.0250
     32  C         16.1340  -22.4510   -5.4980 C.2     1  UNL1        0.0120
     33  C         17.9230  -23.3970   -6.8840 C.2     1  UNL1       -0.0190
     34  C         15.2660  -23.4790   -5.8660 C.2     1  UNL1        0.0010
     35  C         15.7000  -24.4580   -6.7480 C.2     1  UNL1        0.0010
     36  C         17.0020  -24.4100   -7.2570 C.2     1  UNL1        0.0130
@<TRIPOS>BOND
     1    16    14    1
     2    15    14    2
     3    15    17    1
     4    14    13    1
     5    18    17    1
     6    17    19    2
     7    13    12    2
     8    19    12    1
     9    12     9    1
    10     9    10    1
    11     9     8   am
    12     8    11    2
    13     8     7    1
    14    22    23    1
    15    22    21    1
    16     6     7    1
    17     6     1    1
    18    23    24    1
    19    24    25    1
    20    21    20    1
    21    20    25    1
    22    20     5    1
    23     1     5   ar
    24     1     2   ar
    25     5     4   ar
    26     2     3   ar
    27     4     3   ar
    28     4    26    1
    29    26    27    1
    30    27    28    2
    31    27    33    1
    32    36    33    1
    33    36    35    2
    34    28    29    1
    35    33    31    2
    36    35    34    1
    37    29    30    2
    38    31    30    1
    39    31    32    1
    40    34    32    2
