@<TRIPOS>MOLECULE
46867_out_ligand_01.pdbqt
 35 39 0 0 0
SMALL
GASTEIGER

@<TRIPOS>ATOM
      1  C         22.2480  -22.9620  -10.5990 C.ar    1  UNL1        0.1920
      2  N         23.0110  -23.6460   -9.7830 N.ar    1  UNL1       -0.1230
      3  N         22.2160  -24.1690   -8.8080 N.ar    1  UNL1       -0.1340
      4  C         20.9690  -23.8020   -9.0460 C.ar    1  UNL1        0.1350
      5  N         20.9410  -23.0240  -10.1920 N.ar    1  UNL1       -0.3060
      6  S         22.8440  -22.1190  -11.9870 S.3     1  UNL1       -0.0810
      7  C         24.3710  -23.0500  -12.3140 C.3     1  UNL1        0.1850
      8  C         25.3510  -22.2640  -13.1710 C.2     1  UNL1        0.2310
      9  O         26.5610  -22.3430  -12.9640 O.2     1  UNL1       -0.2720
     10  N         24.7340  -21.4410  -14.0940 N.am    1  UNL1       -0.3270
     11  H         23.7330  -21.5930  -14.2400 H       1  UNL1        0.1690
     12  C         25.3210  -20.4660  -14.9250 C.2     1  UNL1        0.0340
     13  C         25.2930  -20.7150  -16.3030 C.2     1  UNL1        0.0310
     14  C         25.8100  -19.7830  -17.2080 C.2     1  UNL1        0.0200
     15  C         26.3650  -18.5970  -16.7320 C.2     1  UNL1        0.0060
     16  I         27.1190  -17.1930  -18.0680 I       1  UNL1       -0.0450
     17  C         26.4100  -18.3420  -15.3630 C.2     1  UNL1        0.0200
     18  C         25.8900  -19.2800  -14.4600 C.2     1  UNL1        0.0310
     19  C         19.7540  -22.4610  -10.8180 C.3     1  UNL1        0.0930
     20  C         18.4350  -23.0590  -10.2910 C.3     1  UNL1        0.0260
     21  C         17.2400  -22.1200  -10.4760 C.3     1  UNL1        0.0020
     22  C         17.3580  -21.2930  -11.7520 C.3     1  UNL1        0.0000
     23  C         18.6150  -20.4200  -11.7710 C.3     1  UNL1        0.0020
     24  C         19.7260  -20.9270  -10.8460 C.3     1  UNL1        0.0260
     25  C         19.7820  -24.2190   -8.2280 C.3     1  UNL1        0.1200
     26  C         19.2940  -23.1710   -7.2410 C.2     1  UNL1       -0.0400
     27  C         20.1720  -22.1070   -6.9390 C.2     1  UNL1        0.0080
     28  C         19.8130  -21.1160   -6.0320 C.2     1  UNL1        0.0010
     29  C         18.5720  -21.1650   -5.4080 C.2     1  UNL1        0.0120
     30  C         17.6740  -22.2090   -5.6720 C.2     1  UNL1       -0.0250
     31  C         16.4300  -22.2340   -5.0150 C.2     1  UNL1        0.0120
     32  C         18.0250  -23.2420   -6.5860 C.2     1  UNL1       -0.0190
     33  C         15.5190  -23.2620   -5.2380 C.2     1  UNL1        0.0010
     34  C         15.8430  -24.2880   -6.1130 C.2     1  UNL1        0.0010
     35  C         17.0750  -24.2780   -6.7750 C.2     1  UNL1        0.0130
@<TRIPOS>BOND
     1    16    15    1
     2    14    15    2
     3    14    13    1
     4    15    17    1
     5    13    12    2
     6    17    18    2
     7    12    18    1
     8    12    10    1
     9    11    10    1
    10    10     8   am
    11     8     9    2
    12     8     7    1
    13     7     6    1
    14     6     1    1
    15    23    22    1
    16    23    24    1
    17    22    21    1
    18    24    19    1
    19    19    20    1
    20    19     5    1
    21     1     5   ar
    22     1     2   ar
    23    21    20    1
    24     5     4   ar
    25     2     3   ar
    26     4     3   ar
    27     4    25    1
    28    25    26    1
    29    26    27    2
    30    26    32    1
    31    27    28    1
    32    35    32    1
    33    35    34    2
    34    32    30    2
    35    34    33    1
    36    28    29    2
    37    30    29    1
    38    30    31    1
    39    33    31    2
