@<TRIPOS>MOLECULE
46889_out_ligand_01.pdbqt
 36 40 0 0 0
SMALL
GASTEIGER

@<TRIPOS>ATOM
      1  C         22.4480  -22.9850  -10.5250 C.ar    1  UNL1        0.1920
      2  N         23.1990  -23.6730   -9.6990 N.ar    1  UNL1       -0.1230
      3  N         22.3820  -24.2590   -8.7760 N.ar    1  UNL1       -0.1340
      4  C         21.1370  -23.9150   -9.0470 C.ar    1  UNL1        0.1350
      5  N         21.1270  -23.0910  -10.1630 N.ar    1  UNL1       -0.3060
      6  S         23.0560  -22.0790  -11.8630 S.3     1  UNL1       -0.0810
      7  C         24.6090  -22.9610  -12.2010 C.3     1  UNL1        0.1850
      8  C         25.5200  -22.1400  -13.0980 C.2     1  UNL1        0.2310
      9  N         24.8570  -21.1390  -13.7890 N.am    1  UNL1       -0.3260
     10  H         23.9000  -20.9530  -13.4910 H       1  UNL1        0.1690
     11  O         26.7190  -22.4020  -13.1680 O.2     1  UNL1       -0.2720
     12  C         25.3690  -20.3070  -14.8150 C.2     1  UNL1        0.0410
     13  C         25.3330  -20.7650  -16.1490 C.2     1  UNL1       -0.0350
     14  C         25.8700  -19.9570  -17.1680 C.2     1  UNL1        0.0090
     15  C         24.7260  -22.0880  -16.5330 C.3     1  UNL1        0.0500
     16  C         26.4360  -18.7170  -16.8790 C.2     1  UNL1        0.0070
     17  C         26.4680  -18.2510  -15.5660 C.2     1  UNL1       -0.0600
     18  C         27.1010  -16.9330  -15.2290 C.3     1  UNL1        0.0480
     19  C         25.9400  -19.0560  -14.5440 C.2     1  UNL1        0.0370
     20  C         19.9440  -22.5470  -10.8120 C.3     1  UNL1        0.0930
     21  C         18.6160  -23.2300  -10.4290 C.3     1  UNL1        0.0260
     22  C         17.3980  -22.3280  -10.6560 C.3     1  UNL1        0.0020
     23  C         17.5940  -21.4020  -11.8490 C.3     1  UNL1        0.0000
     24  C         18.7830  -20.4580  -11.6530 C.3     1  UNL1        0.0020
     25  C         19.8650  -21.0170  -10.7250 C.3     1  UNL1        0.0260
     26  C         19.9390  -24.3520   -8.2550 C.3     1  UNL1        0.1200
     27  C         19.3740  -23.2870   -7.3250 C.2     1  UNL1       -0.0400
     28  C         20.1920  -22.1800   -7.0160 C.2     1  UNL1        0.0080
     29  C         19.7620  -21.1950   -6.1360 C.2     1  UNL1        0.0010
     30  C         18.5010  -21.2870   -5.5580 C.2     1  UNL1        0.0120
     31  C         17.6410  -22.3490   -5.8680 C.2     1  UNL1       -0.0250
     32  C         16.3660  -22.4010   -5.2780 C.2     1  UNL1        0.0120
     33  C         18.0560  -23.3610   -6.7740 C.2     1  UNL1       -0.0190
     34  C         15.4760  -23.4290   -5.5800 C.2     1  UNL1        0.0010
     35  C         15.8510  -24.4170   -6.4770 C.2     1  UNL1        0.0010
     36  C         17.1200  -24.3840   -7.0640 C.2     1  UNL1        0.0130
@<TRIPOS>BOND
     1    14    16    2
     2    14    13    1
     3    16    17    1
     4    15    13    1
     5    13    12    2
     6    17    18    1
     7    17    19    2
     8    12    19    1
     9    12     9    1
    10     9    10    1
    11     9     8   am
    12    11     8    2
    13     8     7    1
    14     7     6    1
    15     6     1    1
    16    23    24    1
    17    23    22    1
    18    24    25    1
    19    20    25    1
    20    20    21    1
    21    20     5    1
    22    22    21    1
    23     1     5   ar
    24     1     2   ar
    25     5     4   ar
    26     2     3   ar
    27     4     3   ar
    28     4    26    1
    29    26    27    1
    30    27    28    2
    31    27    33    1
    32    36    33    1
    33    36    35    2
    34    28    29    1
    35    33    31    2
    36    35    34    1
    37    29    30    2
    38    31    30    1
    39    31    32    1
    40    34    32    2
