@<TRIPOS>MOLECULE
46888_out_ligand_01.pdbqt
 36 40 0 0 0
SMALL
GASTEIGER

@<TRIPOS>ATOM
      1  N         27.1170  -24.9280  -13.7920 N.1     1  UNL1       -0.1910
      2  C         26.4940  -24.1860  -13.1500 C.1     1  UNL1        0.0990
      3  C         25.7340  -23.2540  -12.3680 C.2     1  UNL1        0.0460
      4  C         26.3900  -22.3340  -11.5470 C.2     1  UNL1        0.0230
      5  C         25.6480  -21.4120  -10.8110 C.2     1  UNL1        0.0040
      6  C         24.2510  -21.4120  -10.8860 C.2     1  UNL1        0.0290
      7  C         23.5840  -22.3360  -11.6940 C.2     1  UNL1        0.0360
      8  C         24.3350  -23.2560  -12.4370 C.2     1  UNL1        0.0520
      9  N         22.1830  -22.4150  -11.8140 N.am    1  UNL1       -0.3260
     10  C         21.3340  -21.5460  -12.4820 C.2     1  UNL1        0.2310
     11  O         21.6750  -20.5580  -13.1240 O.2     1  UNL1       -0.2720
     12  H         21.7280  -23.0970  -11.2040 H       1  UNL1        0.1690
     13  C         19.8620  -21.9160  -12.3410 C.3     1  UNL1        0.1850
     14  S         18.9720  -20.6420  -11.3950 S.3     1  UNL1       -0.0810
     15  C         17.9190  -21.6230  -10.4290 C.ar    1  UNL1        0.1920
     16  N         16.6120  -21.5130  -10.4210 N.ar    1  UNL1       -0.1230
     17  N         16.1220  -22.4700   -9.5880 N.ar    1  UNL1       -0.1340
     18  C         17.1400  -23.1190   -9.0480 C.ar    1  UNL1        0.1350
     19  N         18.3210  -22.6390   -9.5910 N.ar    1  UNL1       -0.3060
     20  C         16.9690  -24.1730   -7.9950 C.3     1  UNL1        0.1200
     21  C         16.4270  -23.6610   -6.6680 C.2     1  UNL1       -0.0400
     22  C         15.1530  -24.1110   -6.2520 C.2     1  UNL1        0.0080
     23  C         14.5840  -23.6720   -5.0620 C.2     1  UNL1        0.0010
     24  C         15.2850  -22.7870   -4.2540 C.2     1  UNL1        0.0120
     25  C         16.5680  -22.3530   -4.6060 C.2     1  UNL1       -0.0250
     26  C         17.2560  -21.4870   -3.7410 C.2     1  UNL1        0.0120
     27  C         17.1730  -22.7970   -5.8130 C.2     1  UNL1       -0.0190
     28  C         18.5410  -21.0430   -4.0420 C.2     1  UNL1        0.0010
     29  C         19.1620  -21.4750   -5.2050 C.2     1  UNL1        0.0010
     30  C         18.4910  -22.3430   -6.0720 C.2     1  UNL1        0.0130
     31  C         19.7020  -23.0510   -9.3640 C.3     1  UNL1        0.0930
     32  C         20.5420  -21.9660   -8.6660 C.3     1  UNL1        0.0260
     33  C         21.8390  -22.5060   -8.0540 C.3     1  UNL1        0.0020
     34  C         22.3630  -23.7140   -8.8150 C.3     1  UNL1        0.0000
     35  C         21.3700  -24.8740   -8.7860 C.3     1  UNL1        0.0020
     36  C         19.9050  -24.4250   -8.7170 C.3     1  UNL1        0.0260
@<TRIPOS>BOND
     1     1     2    3
     2     2     3    1
     3    11    10    2
     4    10    13    1
     5    10     9   am
     6     8     3    2
     7     8     7    1
     8     3     4    1
     9    13    14    1
    10     9     7    1
    11     9    12    1
    12     7     6    2
    13     4     5    2
    14    14    15    1
    15     6     5    1
    16    15    16   ar
    17    15    19   ar
    18    16    17   ar
    19    19    31    1
    20    19    18   ar
    21    17    18   ar
    22    31    36    1
    23    31    32    1
    24    18    20    1
    25    34    35    1
    26    34    33    1
    27    35    36    1
    28    32    33    1
    29    20    21    1
    30    21    22    2
    31    21    27    1
    32    22    23    1
    33    30    27    1
    34    30    29    2
    35    27    25    2
    36    29    28    1
    37    23    24    2
    38    25    24    1
    39    25    26    1
    40    28    26    2
