@<TRIPOS>MOLECULE
46894_out_ligand_01.pdbqt
 39 43 0 0 0
SMALL
GASTEIGER

@<TRIPOS>ATOM
      1  C         21.4310  -23.2080  -10.2000 C.ar    1  UNL1        0.1920
      2  N         22.0840  -24.0970   -9.4930 N.ar    1  UNL1       -0.1230
      3  N         21.2650  -24.5110   -8.4870 N.ar    1  UNL1       -0.1340
      4  C         20.0970  -23.9030   -8.6150 C.ar    1  UNL1        0.1350
      5  N         20.1840  -22.9950   -9.6590 N.ar    1  UNL1       -0.3060
      6  S         22.0490  -22.4310  -11.6130 S.3     1  UNL1       -0.0770
      7  C         23.5070  -21.5570  -10.9270 C.3     1  UNL1        0.1270
      8  C         23.3650  -21.4940   -9.4050 C.3     1  UNL1        0.0300
      9  C         24.7830  -22.3200  -11.3020 C.2     1  UNL1        0.1900
     10  O         25.6590  -22.5270  -10.4590 O.2     1  UNL1       -0.2890
     11  C         24.9330  -22.7680  -12.6870 C.ar    1  UNL1        0.0870
     12  N         24.9990  -24.0810  -13.0850 N.ar    1  UNL1       -0.3560
     13  C         25.1930  -24.1760  -14.4400 C.ar    1  UNL1        0.0220
     14  H         24.9710  -24.8860  -12.4620 H       1  UNL1        0.1660
     15  C         25.2600  -22.8860  -14.9590 C.ar    1  UNL1        0.0700
     16  C         25.3090  -25.5150  -15.0820 C.3     1  UNL1        0.0690
     17  C         25.0660  -21.9930  -13.8380 C.ar    1  UNL1       -0.0130
     18  C         25.0370  -20.4990  -13.8960 C.3     1  UNL1        0.0520
     19  C         25.4900  -22.5110  -16.3630 C.2     1  UNL1        0.2950
     20  O         26.6040  -22.3760  -16.8560 O.2     1  UNL1       -0.2590
     21  O         24.3350  -22.3320  -17.0700 O.3     1  UNL1       -0.3220
     22  C         24.1150  -23.2950  -18.0980 C.3     1  UNL1        0.2130
     23  C         19.1980  -22.0210  -10.1120 C.3     1  UNL1        0.0930
     24  C         17.7720  -22.3170   -9.6090 C.3     1  UNL1        0.0260
     25  C         16.6840  -21.7850  -10.5450 C.3     1  UNL1        0.0020
     26  C         17.0830  -20.4650  -11.1850 C.3     1  UNL1        0.0000
     27  C         18.3610  -20.5790  -12.0230 C.3     1  UNL1        0.0020
     28  C         19.2590  -21.7500  -11.6190 C.3     1  UNL1        0.0260
     29  C         18.9020  -24.1810   -7.7420 C.3     1  UNL1        0.1200
     30  C         18.6540  -23.1340   -6.6600 C.2     1  UNL1       -0.0400
     31  C         19.5930  -22.0890   -6.5240 C.2     1  UNL1        0.0080
     32  C         19.4540  -21.1120   -5.5450 C.2     1  UNL1        0.0010
     33  C         18.3580  -21.1460   -4.6920 C.2     1  UNL1        0.0120
     34  C         17.3750  -22.1360   -4.8210 C.2     1  UNL1       -0.0250
     35  C         16.2690  -22.1240   -3.9510 C.2     1  UNL1        0.0120
     36  C         17.4940  -23.1390   -5.8220 C.2     1  UNL1       -0.0190
     37  C         15.2660  -23.0850   -4.0460 C.2     1  UNL1        0.0010
     38  C         15.3450  -24.0610   -5.0280 C.2     1  UNL1        0.0010
     39  C         16.4330  -24.0810   -5.9080 C.2     1  UNL1        0.0130
@<TRIPOS>BOND
     1    22    21    1
     2    21    19    1
     3    20    19    2
     4    19    15    1
     5    16    13    1
     6    15    13   ar
     7    15    17   ar
     8    13    12   ar
     9    18    17    1
    10    17    11   ar
    11    12    11   ar
    12    12    14    1
    13    11     9    1
    14    27    28    1
    15    27    26    1
    16    28    23    1
    17     6     7    1
    18     6     1    1
    19     9     7    1
    20     9    10    2
    21    26    25    1
    22     7     8    1
    23    25    24    1
    24     1     5   ar
    25     1     2   ar
    26    23     5    1
    27    23    24    1
    28     5     4   ar
    29     2     3   ar
    30     4     3   ar
    31     4    29    1
    32    29    30    1
    33    30    31    2
    34    30    36    1
    35    31    32    1
    36    39    36    1
    37    39    38    2
    38    36    34    2
    39    32    33    2
    40    38    37    1
    41    34    33    1
    42    34    35    1
    43    37    35    2
