@<TRIPOS>MOLECULE
468_out_ligand_01.pdbqt
 34 38 0 0 0
SMALL
GASTEIGER

@<TRIPOS>ATOM
      1  C         23.7900  -22.4680  -12.3700 C.2     1  UNL1        0.2590
      2  O         23.9890  -23.6350  -12.0480 O.2     1  UNL1       -0.2670
      3  N         22.8050  -21.6470  -11.8620 N.am    1  UNL1       -0.3230
      4  H         22.7470  -20.7210  -12.2720 H       1  UNL1        0.1690
      5  C         21.8440  -21.9470  -10.8760 C.2     1  UNL1        0.0350
      6  C         22.1490  -22.2990   -9.5670 C.2     1  UNL1        0.0300
      7  C         21.1270  -22.5790   -8.6500 C.2     1  UNL1        0.0100
      8  C         19.7680  -22.5180   -9.0090 C.2     1  UNL1       -0.0490
      9  C         19.4790  -22.1620  -10.3330 C.2     1  UNL1        0.0100
     10  C         20.5000  -21.8810  -11.2510 C.2     1  UNL1        0.0300
     11  C         18.6780  -22.8310   -7.9710 C.3     1  UNL1       -0.0120
     12  C         17.2710  -22.5150   -8.5600 C.3     1  UNL1        0.0190
     13  C         16.1570  -22.8760   -7.5620 C.3     1  UNL1       -0.0130
     14  C         16.2420  -24.3740   -7.2240 C.3     1  UNL1        0.0090
     15  C         16.3370  -22.0550   -6.2770 C.3     1  UNL1        0.0090
     16  C         17.6060  -24.6950   -6.5910 C.3     1  UNL1       -0.0130
     17  C         17.7800  -23.8640   -5.3120 C.3     1  UNL1        0.0090
     18  C         18.7240  -24.3390   -7.5870 C.3     1  UNL1        0.0190
     19  C         17.7010  -22.3690   -5.6470 C.3     1  UNL1       -0.0130
     20  C         18.8150  -22.0150   -6.6480 C.3     1  UNL1        0.0190
     21  C         24.6980  -21.8650  -13.4090 C.2     1  UNL1        0.0670
     22  C         24.4580  -22.2590  -14.7390 C.2     1  UNL1        0.0440
     23  C         25.2190  -21.7280  -15.7810 C.2     1  UNL1        0.0750
     24  C         26.2400  -20.8180  -15.5180 C.2     1  UNL1        0.0270
     25  C         26.4930  -20.4290  -14.2010 C.2     1  UNL1        0.0390
     26  C         25.7280  -20.9360  -13.1370 C.2     1  UNL1        0.0840
     27  S         24.8850  -22.2410  -17.4440 S.O2    1  UNL1        0.2390
     28  O         26.0420  -22.9520  -17.9300 O.2     1  UNL1       -0.2060
     29  O         24.2980  -21.1270  -18.1530 O.2     1  UNL1       -0.2060
     30  N         23.6300  -23.3410  -17.2330 N.3     1  UNL1       -0.2250
     31  H         23.6410  -24.1230  -17.8860 H       1  UNL1        0.1360
     32  H         23.6110  -23.6480  -16.2590 H       1  UNL1        0.1360
     33  O         25.9380  -20.5810  -11.8280 O.2     1  UNL1       -0.3550
     34  C         26.7560  -19.4430  -11.5660 C.3     1  UNL1        0.2100
@<TRIPOS>BOND
     1    29    27    2
     2    28    27    2
     3    31    30    1
     4    27    30    1
     5    27    23    1
     6    30    32    1
     7    23    24    2
     8    23    22    1
     9    24    25    1
    10    22    21    2
    11    25    26    2
    12    21    26    1
    13    21     1    1
    14    26    33    1
    15     1     2    2
    16     1     3   am
    17     4     3    1
    18     3     5    1
    19    33    34    1
    20    10     5    2
    21    10     9    1
    22     5     6    1
    23     9     8    2
    24     6     7    2
    25     8     7    1
    26     8    11    1
    27    12    11    1
    28    12    13    1
    29    11    18    1
    30    11    20    1
    31    18    16    1
    32    13    14    1
    33    13    15    1
    34    14    16    1
    35    20    19    1
    36    16    17    1
    37    15    19    1
    38    19    17    1
