@<TRIPOS>MOLECULE
46910_out_ligand_01.pdbqt
 36 40 0 0 0
SMALL
GASTEIGER

@<TRIPOS>ATOM
      1  N         24.1590  -22.5510  -16.4740 N.1     1  UNL1       -0.1910
      2  C         24.8110  -21.5910  -16.4030 C.1     1  UNL1        0.1020
      3  C         25.5680  -20.3750  -16.3150 C.2     1  UNL1        0.0710
      4  C         26.1130  -19.8570  -17.5020 C.2     1  UNL1        0.0250
      5  C         26.8010  -18.6480  -17.4910 C.2     1  UNL1        0.0020
      6  C         26.9400  -17.9480  -16.2970 C.2     1  UNL1        0.0020
      7  C         26.4040  -18.4590  -15.1100 C.2     1  UNL1        0.0310
      8  C         25.7240  -19.6830  -15.0940 C.2     1  UNL1        0.0550
      9  N         25.2100  -20.2500  -13.9010 N.am    1  UNL1       -0.3250
     10  C         25.8750  -20.9750  -12.9320 C.2     1  UNL1        0.2310
     11  O         27.0780  -21.2430  -12.9390 O.2     1  UNL1       -0.2720
     12  H         24.2050  -20.1670  -13.7560 H       1  UNL1        0.1690
     13  C         24.9980  -21.5260  -11.8090 C.3     1  UNL1        0.1850
     14  S         23.3230  -22.0150  -12.3280 S.3     1  UNL1       -0.0810
     15  C         22.7390  -22.7580  -10.8770 C.ar    1  UNL1        0.1920
     16  N         23.5250  -23.2280   -9.9410 N.ar    1  UNL1       -0.1230
     17  N         22.7350  -23.7490   -8.9620 N.ar    1  UNL1       -0.1340
     18  C         21.4710  -23.6200   -9.3240 C.ar    1  UNL1        0.1350
     19  N         21.4170  -22.9800  -10.5500 N.ar    1  UNL1       -0.3060
     20  C         20.3260  -24.0620   -8.4740 C.3     1  UNL1        0.1200
     21  C         19.7800  -23.0640   -7.4650 C.2     1  UNL1       -0.0400
     22  C         20.5360  -21.9410   -7.0810 C.2     1  UNL1        0.0080
     23  C         20.0640  -21.0480   -6.1240 C.2     1  UNL1        0.0010
     24  C         18.8150  -21.2440   -5.5460 C.2     1  UNL1        0.0120
     25  C         18.0080  -22.3210   -5.9350 C.2     1  UNL1       -0.0250
     26  C         16.7360  -22.4850   -5.3580 C.2     1  UNL1        0.0120
     27  C         18.4730  -23.2390   -6.9140 C.2     1  UNL1       -0.0190
     28  C         15.9040  -23.5330   -5.7420 C.2     1  UNL1        0.0010
     29  C         16.3300  -24.4310   -6.7110 C.2     1  UNL1        0.0010
     30  C         17.5960  -24.2850   -7.2860 C.2     1  UNL1        0.0130
     31  C         20.2530  -22.5990  -11.3530 C.3     1  UNL1        0.0930
     32  C         18.9280  -23.1990  -10.8390 C.3     1  UNL1        0.0260
     33  C         17.8550  -22.2040  -10.4230 C.3     1  UNL1        0.0020
     34  C         17.7580  -21.0390  -11.3910 C.3     1  UNL1        0.0000
     35  C         19.0670  -20.2700  -11.3890 C.3     1  UNL1        0.0020
     36  C         20.2510  -21.1280  -11.8200 C.3     1  UNL1        0.0260
@<TRIPOS>BOND
     1     4     5    1
     2     4     3    2
     3     5     6    2
     4     1     2    3
     5     2     3    1
     6     3     8    1
     7     6     7    1
     8     7     8    2
     9     8     9    1
    10     9    12    1
    11     9    10   am
    12    11    10    2
    13    10    13    1
    14    14    13    1
    15    14    15    1
    16    36    35    1
    17    36    31    1
    18    34    35    1
    19    34    33    1
    20    31    32    1
    21    31    19    1
    22    15    19   ar
    23    15    16   ar
    24    32    33    1
    25    19    18   ar
    26    16    17   ar
    27    18    17   ar
    28    18    20    1
    29    20    21    1
    30    21    22    2
    31    21    27    1
    32    30    27    1
    33    30    29    2
    34    22    23    1
    35    27    25    2
    36    29    28    1
    37    23    24    2
    38    25    24    1
    39    25    26    1
    40    28    26    2
