@<TRIPOS>MOLECULE
46911_out_ligand_01.pdbqt
 35 38 0 0 0
SMALL
GASTEIGER

@<TRIPOS>ATOM
      1  C         20.0980  -23.2730   -7.8070 C.2     1  UNL1        0.0320
      2  C         20.7980  -22.1070   -7.4870 C.2     1  UNL1        0.0190
      3  C         22.0530  -21.8690   -8.0550 C.2     1  UNL1        0.0300
      4  C         22.6200  -22.7890   -8.9490 C.2     1  UNL1        0.0340
      5  C         21.9060  -23.9440   -9.2770 C.2     1  UNL1        0.0300
      6  C         20.6460  -24.1810   -8.7150 C.2     1  UNL1        0.0190
      7  N         23.8960  -22.4780   -9.4560 N.am    1  UNL1       -0.3270
      8  C         24.2250  -22.0350  -10.7250 C.2     1  UNL1        0.2310
      9  O         23.4390  -21.8150  -11.6450 O.2     1  UNL1       -0.2720
     10  H         24.6550  -22.4960   -8.7740 H       1  UNL1        0.1690
     11  C         25.7190  -21.8160  -10.9170 C.3     1  UNL1        0.1850
     12  S         26.5380  -23.3680  -11.4060 S.3     1  UNL1       -0.0810
     13  C         25.9080  -23.5870  -13.0020 C.ar    1  UNL1        0.1960
     14  N         25.4650  -24.7200  -13.5030 N.ar    1  UNL1       -0.1220
     15  N         25.1120  -24.4910  -14.8090 N.ar    1  UNL1       -0.1270
     16  C         25.3310  -23.2180  -15.0770 C.ar    1  UNL1        0.1800
     17  C         25.1610  -22.4200  -16.2440 C.2     1  UNL1        0.0840
     18  N         25.8380  -22.5880  -13.9430 N.ar    1  UNL1       -0.2800
     19 CL         24.5570  -23.1630  -17.6730 Cl      1  UNL1       -0.0800
     20  C         25.4690  -21.1070  -16.2130 C.2     1  UNL1        0.0530
     21  C         25.9800  -20.4850  -15.0030 C.2     1  UNL1        0.0510
     22 CL         26.3380  -18.8080  -15.0180 Cl      1  UNL1       -0.0830
     23  C         26.1650  -21.2320  -13.9010 C.2     1  UNL1        0.1250
     24  C         18.7650  -23.5590   -7.2140 C.2     1  UNL1        0.2560
     25  N         18.1840  -22.4740   -6.5900 N.am    1  UNL1       -0.3210
     26  H         18.7400  -21.6330   -6.4730 H       1  UNL1        0.1690
     27  O         18.3210  -24.6980   -7.2910 O.2     1  UNL1       -0.2670
     28  C         16.9200  -22.3990   -5.9660 C.2     1  UNL1        0.0680
     29  C         15.7170  -22.3050   -6.6670 C.2     1  UNL1        0.0320
     30  C         14.5060  -22.2250   -5.9750 C.2     1  UNL1        0.0020
     31  C         14.4920  -22.2340   -4.5810 C.2     1  UNL1        0.0030
     32  C         15.6900  -22.3280   -3.8700 C.2     1  UNL1        0.0390
     33  C         16.9060  -22.4170   -4.5550 C.2     1  UNL1        0.0950
     34  O         18.1400  -22.5060   -3.9460 O.2     1  UNL1       -0.3540
     35  C         18.5470  -21.3760   -3.1830 C.3     1  UNL1        0.2100
@<TRIPOS>BOND
     1    19    17    1
     2    17    20    2
     3    17    16    1
     4    20    21    1
     5    16    15   ar
     6    16    18   ar
     7    22    21    1
     8    21    23    2
     9    15    14   ar
    10    18    23    1
    11    18    13   ar
    12    14    13   ar
    13    13    12    1
    14     9     8    2
    15    12    11    1
    16    11     8    1
    17     8     7   am
    18     7     4    1
    19     7    10    1
    20     5     4    2
    21     5     6    1
    22     4     3    1
    23     6     1    2
    24     3     2    2
    25     1     2    1
    26     1    24    1
    27    27    24    2
    28    24    25   am
    29    29    30    1
    30    29    28    2
    31    25    26    1
    32    25    28    1
    33    30    31    2
    34    28    33    1
    35    31    32    1
    36    33    34    1
    37    33    32    2
    38    34    35    1
