@<TRIPOS>MOLECULE
46913_out_ligand_01.pdbqt
 35 39 0 0 0
SMALL
GASTEIGER

@<TRIPOS>ATOM
      1  C         22.5240  -22.9990  -10.6200 C.ar    1  UNL1        0.1920
      2  N         23.2600  -23.5350   -9.6770 N.ar    1  UNL1       -0.1230
      3  N         22.4170  -23.9760   -8.7000 N.ar    1  UNL1       -0.1340
      4  C         21.1710  -23.7350   -9.0770 C.ar    1  UNL1        0.1350
      5  N         21.1960  -23.0230  -10.2650 N.ar    1  UNL1       -0.3060
      6  S         23.1510  -22.4530  -12.1330 S.3     1  UNL1       -0.0810
      7  C         24.6300  -21.5770  -11.5410 C.3     1  UNL1        0.1850
      8  C         25.6200  -21.3010  -12.6560 C.2     1  UNL1        0.2270
      9  O         26.0250  -20.1630  -12.8870 O.2     1  UNL1       -0.2730
     10  N         25.9650  -22.3910  -13.4230 N.am    1  UNL1       -0.3600
     11  H         25.6800  -23.3210  -13.1140 H       1  UNL1        0.1620
     12  C         26.8860  -22.2920  -14.5350 C.3     1  UNL1        0.1270
     13  C         26.2120  -22.5200  -15.8950 C.3     1  UNL1        0.0030
     14  C         25.2430  -23.7190  -15.8640 C.3     1  UNL1        0.0060
     15  C         24.1510  -23.6530  -16.9380 C.3     1  UNL1        0.0000
     16  C         24.5900  -22.8470  -18.1530 C.3     1  UNL1        0.0000
     17  C         24.9330  -21.4040  -17.7800 C.3     1  UNL1        0.0000
     18  C         25.4880  -21.2530  -16.3610 C.3     1  UNL1        0.0060
     19  C         20.0870  -22.4440  -11.0160 C.3     1  UNL1        0.0930
     20  C         18.7310  -23.1260  -10.7480 C.3     1  UNL1        0.0260
     21  C         17.6170  -22.1350  -10.4270 C.3     1  UNL1        0.0020
     22  C         17.5310  -21.0200  -11.4650 C.3     1  UNL1        0.0000
     23  C         18.8770  -20.3620  -11.7770 C.3     1  UNL1        0.0020
     24  C         20.0340  -20.9080  -10.9400 C.3     1  UNL1        0.0260
     25  C         19.9670  -24.2230   -8.3280 C.3     1  UNL1        0.1200
     26  C         19.3390  -23.2230   -7.3610 C.2     1  UNL1       -0.0400
     27  C         20.0820  -22.1140   -6.9080 C.2     1  UNL1        0.0080
     28  C         19.5460  -21.2080   -5.9990 C.2     1  UNL1        0.0010
     29  C         18.2460  -21.3780   -5.5390 C.2     1  UNL1        0.0120
     30  C         17.4540  -22.4370   -6.0010 C.2     1  UNL1       -0.0250
     31  C         16.1340  -22.5660   -5.5400 C.2     1  UNL1        0.0120
     32  C         17.9820  -23.3680   -6.9360 C.2     1  UNL1       -0.0190
     33  C         15.3090  -23.5920   -5.9960 C.2     1  UNL1        0.0010
     34  C         15.7950  -24.4980   -6.9280 C.2     1  UNL1        0.0010
     35  C         17.1090  -24.3880   -7.3900 C.2     1  UNL1        0.0130
@<TRIPOS>BOND
     1    16    17    1
     2    16    15    1
     3    17    18    1
     4    15    14    1
     5    18    13    1
     6    13    14    1
     7    13    12    1
     8    12    10    1
     9    10    11    1
    10    10     8   am
    11     9     8    2
    12     8     7    1
    13     6     7    1
    14     6     1    1
    15    23    22    1
    16    23    24    1
    17    22    21    1
    18    19    24    1
    19    19    20    1
    20    19     5    1
    21    20    21    1
    22     1     5   ar
    23     1     2   ar
    24     5     4   ar
    25     2     3   ar
    26     4     3   ar
    27     4    25    1
    28    25    26    1
    29    35    32    1
    30    35    34    2
    31    26    32    2
    32    26    27    1
    33    32    30    1
    34    34    33    1
    35    27    28    2
    36    30    31    1
    37    30    29    2
    38    28    29    1
    39    33    31    2
