@<TRIPOS>MOLECULE
46971_out_ligand_01.pdbqt
 34 37 0 0 0
SMALL
GASTEIGER

@<TRIPOS>ATOM
      1  O         22.2760  -23.3840   -8.7890 O.3     1  UNL1       -0.3070
      2  C         21.7600  -22.3290   -8.0910 C.2     1  UNL1        0.3180
      3  O         22.4330  -21.4460   -7.5770 O.2     1  UNL1       -0.2570
      4  C         20.3160  -22.3970   -8.0890 C.ar    1  UNL1        0.1580
      5  C         19.4070  -22.5250   -9.1320 C.ar    1  UNL1       -0.0090
      6  C         19.7320  -22.6090  -10.5800 C.3     1  UNL1        0.0520
      7  C         18.1110  -22.5640   -8.5290 C.ar    1  UNL1        0.0070
      8  C         18.3170  -22.4570   -7.1590 C.ar    1  UNL1        0.0980
      9  C         16.7900  -22.6810   -9.0000 C.2     1  UNL1        0.0160
     10  O         19.6490  -22.3590   -6.8940 O.2     1  UNL1       -0.3020
     11  C         17.2770  -22.4570   -6.2060 C.2     1  UNL1        0.0090
     12  C         17.5360  -22.3440   -4.8280 C.2     1  UNL1        0.0150
     13  C         15.9560  -22.5770   -6.6950 C.2     1  UNL1       -0.0230
     14  C         16.4730  -22.3520   -3.9270 C.2     1  UNL1        0.0010
     15  C         15.1630  -22.4710   -4.3940 C.2     1  UNL1        0.0010
     16  C         14.9060  -22.5830   -5.7650 C.2     1  UNL1        0.0120
     17  C         15.7300  -22.6870   -8.0770 C.2     1  UNL1        0.0130
     18  C         23.6820  -23.3160   -9.0410 C.3     1  UNL1        0.2820
     19  C         24.0050  -22.4990  -10.2950 C.2     1  UNL1        0.2460
     20  O         24.3760  -21.3330  -10.2120 O.2     1  UNL1       -0.2710
     21  N         23.8770  -23.2440  -11.4580 N.am    1  UNL1       -0.3250
     22  H         23.5780  -24.2060  -11.3280 H       1  UNL1        0.1690
     23  C         24.0980  -22.8280  -12.7830 C.2     1  UNL1        0.0340
     24  C         25.0280  -23.5610  -13.5340 C.2     1  UNL1        0.0310
     25  C         25.3040  -23.2190  -14.8610 C.2     1  UNL1        0.0270
     26  C         24.6420  -22.1370  -15.4420 C.2     1  UNL1        0.0740
     27  C         23.7250  -21.3870  -14.7030 C.2     1  UNL1        0.0270
     28  C         23.4520  -21.7400  -13.3770 C.2     1  UNL1        0.0310
     29  S         24.9940  -21.6940  -17.1220 S.O2    1  UNL1        0.2390
     30  O         26.4270  -21.6180  -17.2870 O.2     1  UNL1       -0.2060
     31  O         24.1510  -22.4810  -17.9900 O.2     1  UNL1       -0.2060
     32  N         24.4430  -20.1030  -17.1700 N.3     1  UNL1       -0.2250
     33  H         25.1810  -19.4890  -16.8190 H       1  UNL1        0.1360
     34  H         23.5660  -19.9650  -16.6700 H       1  UNL1        0.1360
@<TRIPOS>BOND
     1    31    29    2
     2    30    29    2
     3    32    29    1
     4    32    33    1
     5    32    34    1
     6    29    26    1
     7    26    25    2
     8    26    27    1
     9    25    24    1
    10    27    28    2
    11    24    23    2
    12    28    23    1
    13    23    21    1
    14    21    22    1
    15    21    19   am
    16     6     5    1
    17    19    20    2
    18    19    18    1
    19     5     7   ar
    20     5     4   ar
    21    18     1    1
    22     9     7    2
    23     9    17    1
    24     1     2    1
    25     7     8   ar
    26     2     4    1
    27     2     3    2
    28     4    10   ar
    29    17    13    2
    30     8    10   ar
    31     8    11    2
    32    13    11    1
    33    13    16    1
    34    11    12    1
    35    16    15    2
    36    12    14    2
    37    15    14    1
