@<TRIPOS>MOLECULE
46_out_ligand_01.pdbqt
 30 33 0 0 0
SMALL
GASTEIGER

@<TRIPOS>ATOM
      1  C         18.5030  -21.4160   -3.4800 C.3     1  UNL1        0.0490
      2  C         18.1110  -22.0510   -4.7900 C.2     1  UNL1       -0.0530
      3  C         18.8280  -21.7210   -5.9490 C.2     1  UNL1        0.0440
      4  C         18.4870  -22.2700   -7.1870 C.2     1  UNL1        0.0790
      5  C         17.3860  -23.1180   -7.3090 C.2     1  UNL1        0.0040
      6  C         16.6810  -23.4740   -6.1460 C.2     1  UNL1        0.0190
      7  C         17.0320  -22.9520   -4.8890 C.2     1  UNL1       -0.0550
      8  C         16.2350  -23.3470   -3.6820 C.3     1  UNL1        0.0490
      9  C         17.0180  -23.6900   -8.6560 C.3     1  UNL1        0.1560
     10  C         17.7750  -22.9970   -9.7860 C.3     1  UNL1        0.0750
     11  C         19.2440  -22.7550   -9.4130 C.3     1  UNL1        0.0730
     12  C         19.9310  -21.9520  -10.5470 C.3     1  UNL1        0.0690
     13  C         21.3030  -22.5090  -10.9540 C.3     1  UNL1        0.2750
     14  N         22.1330  -22.8000   -9.7850 N.3     1  UNL1        0.0910
     15  C         21.5040  -23.7740   -8.8770 C.3     1  UNL1        0.2750
     16  C         20.0260  -24.0600   -9.1680 C.3     1  UNL1        0.0690
     17  O         19.2980  -21.9190   -8.2340 O.2     1  UNL1       -0.3390
     18  O         15.6230  -23.5680   -8.9490 O.3     1  UNL1       -0.3910
     19  H         15.5130  -22.9700   -9.7190 H       1  UNL1        0.2100
     20  C         23.5090  -23.1900  -10.1710 C.3     1  UNL1        0.3080
     21  C         24.3540  -22.1480  -10.9620 C.3     1  UNL1        0.1790
     22  O         25.6380  -21.9870  -10.3430 O.3     1  UNL1       -0.3890
     23  H         25.9460  -21.0820  -10.5410 H       1  UNL1        0.2100
     24  C         24.4890  -22.3680  -12.4570 C.2     1  UNL1       -0.0280
     25  C         23.9330  -21.4470  -13.3630 C.2     1  UNL1        0.0110
     26  C         24.0400  -21.6520  -14.7430 C.2     1  UNL1        0.0190
     27  C         24.7010  -22.7820  -15.2270 C.2     1  UNL1        0.0110
     28 BR         24.8420  -23.0650  -17.0930 Br      1  UNL1       -0.0510
     29  C         25.2560  -23.7090  -14.3450 C.2     1  UNL1        0.0190
     30  C         25.1490  -23.5020  -12.9670 C.2     1  UNL1        0.0110
@<TRIPOS>BOND
     1    28    27    1
     2    27    26    2
     3    27    29    1
     4    26    25    1
     5    29    30    2
     6    25    24    2
     7    30    24    1
     8    24    21    1
     9    21    22    1
    10    21    20    1
    11    13    12    1
    12    13    14    1
    13    12    11    1
    14    23    22    1
    15    20    14    1
    16    10    11    1
    17    10     9    1
    18    14    15    1
    19    19    18    1
    20    11    16    1
    21    11    17    1
    22    16    15    1
    23    18     9    1
    24     9     5    1
    25    17     4    1
    26     5     4    2
    27     5     6    1
    28     4     3    1
    29     6     7    2
    30     3     2    2
    31     7     2    1
    32     7     8    1
    33     2     1    1
