@<TRIPOS>MOLECULE
47026_out_ligand_01.pdbqt
 38 41 0 0 0
SMALL
GASTEIGER

@<TRIPOS>ATOM
      1  C         19.9550  -23.5510   -9.4720 C.2     1  UNL1        0.2940
      2  O         19.8460  -24.7600   -9.6350 O.2     1  UNL1       -0.2590
      3  O         20.6820  -22.9290   -8.5150 O.3     1  UNL1       -0.3080
      4  C         22.0480  -23.3400   -8.4500 C.3     1  UNL1        0.2820
      5  C         22.9950  -22.5440   -9.3590 C.2     1  UNL1        0.2460
      6  N         23.4590  -23.2820  -10.4330 N.am    1  UNL1       -0.3250
      7  H         23.1180  -24.2390  -10.5180 H       1  UNL1        0.1690
      8  O         23.3340  -21.3950   -9.0740 O.2     1  UNL1       -0.2710
      9  C         24.3330  -22.8470  -11.4490 C.2     1  UNL1        0.0360
     10  C         25.6890  -23.1710  -11.3160 C.2     1  UNL1        0.0290
     11  C         26.6290  -22.7250  -12.2500 C.2     1  UNL1        0.0040
     12  C         26.2100  -21.9630  -13.3420 C.2     1  UNL1        0.0250
     13  C         24.8520  -21.6650  -13.4900 C.2     1  UNL1        0.0760
     14  C         23.9130  -22.1090  -12.5560 C.2     1  UNL1        0.0540
     15  S         24.3220  -20.6760  -14.8580 S.O2    1  UNL1        0.2390
     16  O         24.2320  -21.5230  -16.0220 O.2     1  UNL1       -0.2060
     17  O         25.0800  -19.4410  -14.8470 O.2     1  UNL1       -0.2060
     18  N         22.7600  -20.2160  -14.4160 N.3     1  UNL1       -0.2250
     19  H         22.6160  -19.2080  -14.3650 H       1  UNL1        0.1360
     20  H         22.0870  -20.6780  -15.0310 H       1  UNL1        0.1360
     21  C         19.3350  -22.5470  -10.3550 C.2     1  UNL1        0.0530
     22  C         20.1270  -21.8080  -11.2420 C.2     1  UNL1        0.0180
     23  C         19.5380  -20.8260  -12.0430 C.2     1  UNL1        0.0010
     24  C         18.1640  -20.5810  -11.9630 C.2     1  UNL1        0.0010
     25  C         17.3710  -21.3190  -11.0800 C.2     1  UNL1        0.0160
     26  C         17.9600  -22.2950  -10.2670 C.2     1  UNL1        0.0310
     27  C         17.1050  -23.1390   -9.4110 C.2     1  UNL1        0.1930
     28  O         16.2440  -23.8140   -9.9650 O.2     1  UNL1       -0.2870
     29  C         17.2580  -23.1640   -7.9330 C.2     1  UNL1        0.0180
     30  C         16.9590  -24.3530   -7.2540 C.2     1  UNL1        0.0180
     31  C         17.0720  -24.4180   -5.8650 C.2     1  UNL1        0.0400
     32  C         17.4920  -23.2980   -5.1510 C.2     1  UNL1        0.1020
     33  C         17.8340  -22.1240   -5.8290 C.2     1  UNL1        0.1030
     34  O         17.5490  -23.4200   -3.7860 O.2     1  UNL1       -0.3460
     35  C         17.7120  -22.0510   -7.2160 C.2     1  UNL1        0.0550
     36  O         18.2840  -20.9950   -5.1960 O.2     1  UNL1       -0.3460
     37  C         18.6560  -21.2620   -3.8370 C.3     1  UNL1        0.2020
     38  C         17.6200  -22.1380   -3.1540 C.3     1  UNL1        0.2020
@<TRIPOS>BOND
     1    16    15    2
     2    20    18    1
     3    15    17    2
     4    15    18    1
     5    15    13    1
     6    18    19    1
     7    13    12    2
     8    13    14    1
     9    12    11    1
    10    14     9    2
    11    11    10    2
    12    23    24    2
    13    23    22    1
    14    24    25    1
    15     9    10    1
    16     9     6    1
    17    22    21    2
    18    25    26    2
    19     7     6    1
    20     6     5   am
    21    21    26    1
    22    21     1    1
    23    26    27    1
    24    28    27    2
    25     2     1    2
    26     1     3    1
    27    27    29    1
    28     5     8    2
    29     5     4    1
    30     3     4    1
    31    29    30    2
    32    29    35    1
    33    30    31    1
    34    35    33    2
    35    31    32    2
    36    33    36    1
    37    33    32    1
    38    36    37    1
    39    32    34    1
    40    37    38    1
    41    34    38    1
