@<TRIPOS>MOLECULE
47022_out_ligand_01.pdbqt
 32 36 0 0 0
SMALL
GASTEIGER

@<TRIPOS>ATOM
      1  C         19.2460  -20.6020  -11.7740 C.3     1  UNL1        0.1600
      2  N         19.3870  -21.6530  -10.7980 N.ar    1  UNL1       -0.3140
      3  C         18.3940  -22.3010  -10.1170 C.ar    1  UNL1        0.1910
      4  N         18.9040  -23.2160   -9.3330 N.ar    1  UNL1       -0.1220
      5  N         20.2670  -23.1590   -9.4680 N.ar    1  UNL1       -0.1310
      6  C         20.5640  -22.2070  -10.3350 C.ar    1  UNL1        0.1620
      7  S         16.7040  -21.9840  -10.2570 S.3     1  UNL1       -0.0810
      8  C         16.0220  -23.6220   -9.8920 C.3     1  UNL1        0.1850
      9  C         15.8390  -23.9820   -8.4220 C.2     1  UNL1        0.2310
     10  O         15.6040  -25.1610   -8.1470 O.2     1  UNL1       -0.2720
     11  N         15.9750  -22.9560   -7.5130 N.am    1  UNL1       -0.3260
     12  H         15.9910  -22.0250   -7.9140 H       1  UNL1        0.1690
     13  C         15.9740  -23.0270   -6.0920 C.2     1  UNL1        0.0450
     14  C         14.9960  -23.7620   -5.4080 C.2     1  UNL1        0.0300
     15  C         15.0060  -23.8560   -4.0180 C.2     1  UNL1        0.0030
     16  C         16.0000  -23.2170   -3.2860 C.2     1  UNL1        0.0120
     17  C         16.9960  -22.4740   -3.9290 C.2     1  UNL1       -0.0240
     18  C         17.9840  -21.8410   -3.1550 C.2     1  UNL1        0.0120
     19  C         17.0050  -22.3630   -5.3480 C.2     1  UNL1        0.0010
     20  C         18.9880  -21.0840   -3.7480 C.2     1  UNL1        0.0010
     21  C         19.0190  -20.9540   -5.1280 C.2     1  UNL1        0.0010
     22  C         18.0490  -21.5830   -5.9130 C.2     1  UNL1        0.0140
     23  C         21.9540  -21.8310  -10.7410 C.3     1  UNL1        0.2240
     24  C         22.8190  -21.4980   -9.5270 C.3     1  UNL1        0.2160
     25  O         24.1380  -21.0980   -9.9200 O.2     1  UNL1       -0.3450
     26  C         24.6420  -21.9110  -10.9020 C.2     1  UNL1        0.1020
     27  C         26.0110  -21.8170  -11.1440 C.2     1  UNL1        0.0390
     28  C         23.8600  -22.7940  -11.6500 C.2     1  UNL1        0.1030
     29  C         26.6030  -22.6260  -12.1140 C.2     1  UNL1        0.0030
     30  C         25.8260  -23.5250  -12.8440 C.2     1  UNL1        0.0030
     31  C         24.4530  -23.6110  -12.6100 C.2     1  UNL1        0.0400
     32  O         22.5050  -22.9260  -11.4860 O.2     1  UNL1       -0.3330
@<TRIPOS>BOND
     1    30    31    2
     2    30    29    1
     3    31    28    1
     4    29    27    2
     5     1     2    1
     6    28    32    1
     7    28    26    2
     8    32    23    1
     9    27    26    1
    10    26    25    1
    11     2     6   ar
    12     2     3   ar
    13    23     6    1
    14    23    24    1
    15     6     5   ar
    16     7     3    1
    17     7     8    1
    18     3     4   ar
    19    25    24    1
    20     8     9    1
    21     5     4   ar
    22     9    10    2
    23     9    11   am
    24    12    11    1
    25    11    13    1
    26    13    14    2
    27    13    19    1
    28    22    19    1
    29    22    21    2
    30    14    15    1
    31    19    17    2
    32    21    20    1
    33    15    16    2
    34    17    16    1
    35    17    18    1
    36    20    18    2
