@<TRIPOS>MOLECULE
47076_out_ligand_01.pdbqt
 35 37 0 0 0
SMALL
GASTEIGER

@<TRIPOS>ATOM
      1  C         21.9950  -22.4000  -11.4560 C.2     1  UNL1        0.0430
      2  C         21.3250  -21.4510  -12.2250 C.2     1  UNL1        0.0300
      3  C         20.0220  -21.0820  -11.8920 C.2     1  UNL1        0.0030
      4  C         19.3990  -21.6540  -10.7820 C.2     1  UNL1        0.0170
      5  C         20.0790  -22.5990  -10.0030 C.2     1  UNL1        0.0340
      6  C         21.3710  -22.9980  -10.3620 C.2     1  UNL1        0.0470
      7  C         19.3990  -23.1690   -8.8080 C.2     1  UNL1        0.2560
      8  O         20.0150  -23.9700   -8.1200 O.2     1  UNL1       -0.2670
      9  N         18.0920  -22.7480   -8.6290 N.am    1  UNL1       -0.3230
     10  H         17.6860  -22.1890   -9.3710 H       1  UNL1        0.1690
     11  C         17.2210  -23.0830   -7.5710 C.2     1  UNL1        0.0360
     12  C         16.2590  -24.0670   -7.8350 C.2     1  UNL1        0.0320
     13  C         15.3540  -24.4580   -6.8480 C.2     1  UNL1        0.0450
     14  C         15.4010  -23.8630   -5.5920 C.2     1  UNL1        0.1320
     15  F         14.5100  -24.2680   -4.6740 F       1  UNL1       -0.2050
     16  C         16.3450  -22.8750   -5.3040 C.2     1  UNL1        0.0720
     17  C         17.2550  -22.4890   -6.3060 C.2     1  UNL1        0.0490
     18  C         16.4240  -22.2060   -3.9780 C.2     1  UNL1        0.2520
     19  N         17.5790  -21.5580   -3.6460 N.am    1  UNL1       -0.3660
     20  H         18.3880  -21.5170   -4.2550 H       1  UNL1        0.1590
     21  H         17.6250  -21.1100   -2.7410 H       1  UNL1        0.1590
     22  O         15.4870  -22.2270   -3.1890 O.2     1  UNL1       -0.2680
     23  N         23.3180  -22.7630  -11.8120 N.pl3   1  UNL1       -0.2810
     24  H         23.5110  -23.7320  -12.0660 H       1  UNL1        0.1790
     25  S         24.6020  -22.0160  -11.0150 S.O2    1  UNL1        0.2630
     26  O         25.5810  -23.0520  -10.7660 O.2     1  UNL1       -0.2000
     27  O         24.0880  -21.2000   -9.9340 O.2     1  UNL1       -0.2000
     28  C         25.2520  -20.9530  -12.2750 C.2     1  UNL1        0.0820
     29  C         26.2510  -20.0270  -11.9570 C.2     1  UNL1        0.0260
     30  C         26.7670  -19.1980  -12.9560 C.2     1  UNL1        0.0110
     31  C         26.3010  -19.3040  -14.2730 C.2     1  UNL1       -0.0230
     32  C         26.8240  -18.4050  -15.3510 C.3     1  UNL1        0.0510
     33  C         25.3000  -20.2390  -14.5630 C.2     1  UNL1        0.1230
     34  C         24.7770  -21.0710  -13.5810 C.2     1  UNL1        0.0680
     35  F         24.8290  -20.3410  -15.8130 F       1  UNL1       -0.2060
@<TRIPOS>BOND
     1    35    33    1
     2    32    31    1
     3    33    31    2
     4    33    34    1
     5    31    30    1
     6    34    28    2
     7    30    29    2
     8    28    29    1
     9    28    25    1
    10     2     3    1
    11     2     1    2
    12    24    23    1
    13     3     4    2
    14    23     1    1
    15    23    25    1
    16     1     6    1
    17    25    26    2
    18    25    27    2
    19     4     5    1
    20     6     5    2
    21     5     7    1
    22    10     9    1
    23     7     9   am
    24     7     8    2
    25     9    11    1
    26    12    11    2
    27    12    13    1
    28    11    17    1
    29    13    14    2
    30    17    16    2
    31    14    16    1
    32    14    15    1
    33    16    18    1
    34    20    19    1
    35    18    19   am
    36    18    22    2
    37    19    21    1
