@<TRIPOS>MOLECULE
47077_out_ligand_01.pdbqt
 30 33 0 0 0
SMALL
GASTEIGER

@<TRIPOS>ATOM
      1  C         21.5540  -22.4800  -10.9500 C.2     1  UNL1        0.0350
      2  C         21.0740  -21.6050  -11.9300 C.2     1  UNL1        0.0300
      3  C         21.8750  -21.2460  -13.0210 C.2     1  UNL1        0.0160
      4  C         23.1740  -21.7510  -13.1590 C.2     1  UNL1       -0.0060
      5  C         23.6490  -22.6240  -12.1730 C.2     1  UNL1        0.0160
      6  C         22.8480  -22.9850  -11.0800 C.2     1  UNL1        0.0300
      7  N         20.6890  -22.7870   -9.8800 N.am    1  UNL1       -0.3230
      8  C         20.8860  -22.5170   -8.5380 C.2     1  UNL1        0.2560
      9  O         21.8780  -22.0150   -8.0240 O.2     1  UNL1       -0.2670
     10  H         19.8670  -23.3210  -10.1270 H       1  UNL1        0.1690
     11  C         19.7620  -22.9250   -7.6500 C.2     1  UNL1        0.0330
     12  C         18.9880  -24.0600   -7.9270 C.2     1  UNL1        0.0170
     13  C         17.9340  -24.4080   -7.0810 C.2     1  UNL1        0.0020
     14  C         17.6500  -23.6280   -5.9560 C.2     1  UNL1        0.0170
     15  C         18.4190  -22.4900   -5.6760 C.2     1  UNL1        0.0320
     16  C         19.4650  -22.1310   -6.5350 C.2     1  UNL1        0.0340
     17  C         18.1450  -21.6260   -4.4970 C.2     1  UNL1        0.2490
     18  N         18.9000  -20.4950   -4.3530 N.am    1  UNL1       -0.3660
     19  H         19.4210  -20.0930   -5.1190 H       1  UNL1        0.1590
     20  H         18.6020  -19.8660   -3.6170 H       1  UNL1        0.1590
     21  O         17.2560  -21.8890   -3.6970 O.2     1  UNL1       -0.2680
     22  C         23.9770  -21.3570  -14.3060 C.2     1  UNL1        0.0840
     23  C         24.8160  -20.2650  -14.3950 C.2     1  UNL1        0.1240
     24  N         25.3410  -20.3240  -15.6520 N.pl3   1  UNL1       -0.3430
     25  C         24.8250  -21.4240  -16.2860 C.2     1  UNL1        0.1060
     26  C         26.3250  -19.4290  -16.2270 C.3     1  UNL1        0.1300
     27  N         23.9950  -22.0660  -15.4920 N.2     1  UNL1       -0.2330
     28  C         25.1710  -21.7590  -17.6950 C.3     1  UNL1        0.0790
     29  C         26.4450  -21.0460  -18.1530 C.3     1  UNL1        0.0090
     30  C         26.4240  -19.5710  -17.7450 C.3     1  UNL1        0.0210
@<TRIPOS>BOND
     1    29    30    1
     2    29    28    1
     3    30    26    1
     4    28    25    1
     5    25    24    1
     6    25    27    2
     7    26    24    1
     8    24    23    1
     9    27    22    1
    10    23    22    2
    11    22     4    1
    12     4     3    2
    13     4     5    1
    14     3     2    1
    15     5     6    2
    16     2     1    2
    17     6     1    1
    18     1     7    1
    19    10     7    1
    20     7     8   am
    21     8     9    2
    22     8    11    1
    23    12    11    2
    24    12    13    1
    25    11    16    1
    26    13    14    2
    27    16    15    2
    28    14    15    1
    29    15    17    1
    30    19    18    1
    31    17    18   am
    32    17    21    2
    33    18    20    1
