@<TRIPOS>MOLECULE
47083_out_ligand_01.pdbqt
 36 40 0 0 0
SMALL
GASTEIGER

@<TRIPOS>ATOM
      1  C         19.0210  -22.2560  -10.5430 C.2     1  UNL1        0.0330
      2  C         18.2920  -21.3370  -11.3110 C.2     1  UNL1        0.0170
      3  C         16.9460  -21.0970  -11.0250 C.2     1  UNL1        0.0030
      4  C         16.3290  -21.7620   -9.9630 C.2     1  UNL1        0.0250
      5  C         17.0680  -22.6570   -9.1840 C.2     1  UNL1        0.0750
      6  C         18.4090  -22.9200   -9.4770 C.2     1  UNL1        0.0410
      7  C         20.4630  -22.5110  -10.8040 C.2     1  UNL1        0.2560
      8  O         21.0340  -23.3320  -10.0980 O.2     1  UNL1       -0.2670
      9  N         20.9970  -21.7850  -11.8510 N.am    1  UNL1       -0.3230
     10  H         20.3530  -21.2310  -12.4030 H       1  UNL1        0.1690
     11  C         22.3340  -21.7890  -12.3080 C.2     1  UNL1        0.0370
     12  C         23.4190  -22.2030  -11.5270 C.2     1  UNL1        0.0320
     13  C         24.7340  -22.1870  -12.0190 C.2     1  UNL1        0.0340
     14  C         24.9100  -21.7330  -13.3250 C.ar    1  UNL1        0.0620
     15  N         26.0210  -21.5840  -14.1130 N.ar    1  UNL1       -0.3420
     16  C         23.8600  -21.3100  -14.1280 C.ar    1  UNL1        0.0870
     17  C         25.6180  -21.0890  -15.3270 C.ar    1  UNL1        0.1090
     18  H         26.9700  -21.8020  -13.8480 H       1  UNL1        0.1670
     19  N         24.3140  -20.9130  -15.3620 N.ar    1  UNL1       -0.2330
     20  C         22.5530  -21.3350  -13.6190 C.2     1  UNL1        0.0630
     21  C         26.5500  -20.7670  -16.5310 C.3     1  UNL1        0.0550
     22  C         25.8370  -20.5230  -17.8840 C.3     1  UNL1        0.0120
     23  C         26.8920  -19.4270  -18.1530 C.3     1  UNL1        0.0020
     24  C         27.0490  -19.3050  -16.6220 C.3     1  UNL1        0.0120
     25  S         16.2770  -23.5100   -7.8420 S.O2    1  UNL1        0.2460
     26  O         15.4620  -22.5370   -7.1450 O.2     1  UNL1       -0.2060
     27  O         15.7060  -24.7370   -8.3510 O.2     1  UNL1       -0.2060
     28  N         17.5830  -23.8490   -6.8130 N.pl3   1  UNL1       -0.1780
     29  H         18.3830  -24.1160   -7.3920 H       1  UNL1        0.1460
     30  C         17.8720  -22.8670   -5.8120 C.2     1  UNL1        0.0610
     31  C         18.7100  -21.7930   -6.0990 C.2     1  UNL1        0.0270
     32  C         19.0460  -20.8850   -5.0900 C.2     1  UNL1        0.0020
     33  C         18.5450  -21.0530   -3.7960 C.2     1  UNL1        0.0030
     34  C         17.7070  -22.1310   -3.5070 C.2     1  UNL1        0.0440
     35  C         17.3810  -23.0330   -4.5130 C.2     1  UNL1        0.1380
     36  F         16.5740  -24.0670   -4.2330 F       1  UNL1       -0.2040
@<TRIPOS>BOND
     1    23    22    1
     2    23    24    1
     3    22    21    1
     4    24    21    1
     5    21    17    1
     6    19    17   ar
     7    19    16   ar
     8    17    15   ar
     9    16    20    1
    10    16    14   ar
    11    15    18    1
    12    15    14   ar
    13    20    11    2
    14    14    13    1
    15    10     9    1
    16    11     9    1
    17    11    12    1
    18    13    12    2
    19     9     7   am
    20     2     3    1
    21     2     1    2
    22     3     4    2
    23     7     1    1
    24     7     8    2
    25     1     6    1
    26     4     5    1
    27     6     5    2
    28     5    25    1
    29    27    25    2
    30    25    26    2
    31    25    28    1
    32    29    28    1
    33    28    30    1
    34    31    30    2
    35    31    32    1
    36    30    35    1
    37    32    33    2
    38    35    36    1
    39    35    34    2
    40    33    34    1
