@<TRIPOS>MOLECULE
47104_out_ligand_01.pdbqt
 34 37 0 0 0
SMALL
GASTEIGER

@<TRIPOS>ATOM
      1  C         17.0970  -22.8780   -9.0110 C.2     1  UNL1        0.0800
      2  C         16.4020  -22.0550   -9.9040 C.2     1  UNL1        0.0250
      3  C         17.0840  -21.4510  -10.9600 C.2     1  UNL1        0.0030
      4  C         18.4560  -21.6630  -11.1180 C.2     1  UNL1        0.0170
      5  C         19.1520  -22.4690  -10.2050 C.2     1  UNL1        0.0330
      6  C         18.4740  -23.0760   -9.1440 C.2     1  UNL1        0.0420
      7  C         20.6040  -22.7420  -10.3740 C.2     1  UNL1        0.2560
      8  O         21.0640  -23.7390   -9.8350 O.2     1  UNL1       -0.2670
      9  N         21.2780  -21.8010  -11.1270 N.am    1  UNL1       -0.3230
     10  H         20.7550  -20.9810  -11.4040 H       1  UNL1        0.1690
     11  C         22.6440  -21.8120  -11.4900 C.2     1  UNL1        0.0370
     12  C         23.6860  -21.6570  -10.5780 C.2     1  UNL1        0.0290
     13  C         25.0100  -21.6960  -11.0130 C.2     1  UNL1        0.0050
     14  C         25.2990  -21.8880  -12.3630 C.2     1  UNL1        0.0320
     15  C         24.2690  -22.0450  -13.3060 C.2     1  UNL1        0.0600
     16  C         22.9440  -22.0130  -12.8500 C.2     1  UNL1        0.0610
     17  N         24.6260  -22.2540  -14.6790 N.pl3   1  UNL1       -0.2390
     18  N         24.4200  -21.2320  -15.5630 N.2     1  UNL1       -0.1800
     19  C         24.8930  -21.6580  -16.7270 C.2     1  UNL1        0.1410
     20  C         25.3740  -22.9640  -16.6530 C.2     1  UNL1        0.0480
     21  C         25.1810  -23.3550  -15.3410 C.2     1  UNL1        0.0340
     22  C         25.4760  -24.6920  -14.7660 C.3     1  UNL1        0.0700
     23  S         16.2320  -23.6360   -7.6570 S.O2    1  UNL1        0.2630
     24  O         15.6320  -24.8550   -8.1610 O.2     1  UNL1       -0.2000
     25  O         15.4200  -22.6320   -7.0080 O.2     1  UNL1       -0.2000
     26  N         17.4850  -24.1310   -6.6340 N.pl3   1  UNL1       -0.2810
     27  H         17.3870  -25.1220   -6.4160 H       1  UNL1        0.1790
     28  C         17.8380  -23.2690   -5.5580 C.2     1  UNL1        0.0430
     29  C         17.4660  -23.5970   -4.2560 C.2     1  UNL1        0.0300
     30  C         17.7600  -22.7200   -3.2130 C.2     1  UNL1        0.0030
     31  C         18.4080  -21.5110   -3.4750 C.2     1  UNL1        0.0070
     32  C         18.7640  -21.1670   -4.7840 C.2     1  UNL1       -0.0600
     33  C         19.4690  -19.8730   -5.0660 C.3     1  UNL1        0.0480
     34  C         18.4900  -22.0650   -5.8230 C.2     1  UNL1        0.0370
@<TRIPOS>BOND
     1    19    20    1
     2    19    18    2
     3    20    21    2
     4    18    17    1
     5    21    22    1
     6    21    17    1
     7    17    15    1
     8    15    16    1
     9    15    14    2
    10    16    11    2
    11    14    13    1
    12    11     9    1
    13    11    12    1
    14    10     9    1
    15     9     7   am
    16     4     3    2
    17     4     5    1
    18    13    12    2
    19     3     2    1
    20     7     5    1
    21     7     8    2
    22     5     6    2
    23     2     1    2
    24     6     1    1
    25     1    23    1
    26    24    23    2
    27    23    25    2
    28    23    26    1
    29    26    27    1
    30    26    28    1
    31    34    28    2
    32    34    32    1
    33    28    29    1
    34    33    32    1
    35    32    31    2
    36    29    30    2
    37    31    30    1
