@<TRIPOS>MOLECULE
47115_out_ligand_01.pdbqt
 35 39 0 0 0
SMALL
GASTEIGER

@<TRIPOS>ATOM
      1  C         25.4590  -20.3920  -16.8230 C.ar    1  UNL1        0.0990
      2  N         24.4330  -20.5980  -16.0530 N.ar    1  UNL1       -0.1610
      3  N         24.8350  -21.4010  -14.9950 N.ar    1  UNL1       -0.1890
      4  C         23.9680  -21.8040  -13.9980 C.ar    1  UNL1        0.1620
      5  N         22.7090  -21.4830  -14.0420 N.pl3   1  UNL1       -0.2810
      6  C         24.5810  -22.6390  -12.9070 C.ar    1  UNL1        0.0820
      7  C         23.9760  -23.0600  -11.7780 C.3     1  UNL1        0.0340
      8  C         26.0270  -23.0720  -13.0830 C.ar    1  UNL1        0.2830
      9  O         26.5460  -23.8570  -12.2970 O.2     1  UNL1       -0.2650
     10  N         26.7470  -22.5560  -14.1410 N.ar    1  UNL1       -0.1820
     11  C         26.1460  -21.7990  -14.9870 C.ar    1  UNL1        0.2010
     12  S         26.9870  -21.1230  -16.3620 S.2     1  UNL1       -0.0330
     13  H         22.5810  -20.9230  -14.8980 H       1  UNL1        0.1880
     14  C         22.6660  -22.7950  -11.2800 C.2     1  UNL1       -0.0110
     15  C         21.6200  -22.1120  -11.9260 C.2     1  UNL1        0.0380
     16  C         20.5540  -22.0300  -11.0490 C.2     1  UNL1        0.0140
     17  C         19.2620  -21.3230  -11.2760 C.3     1  UNL1        0.0680
     18  N         20.9260  -22.6520   -9.8600 N.pl3   1  UNL1       -0.3190
     19  C         22.2350  -23.1180  -10.0020 C.2     1  UNL1        0.0230
     20  C         22.9510  -23.9150   -8.9590 C.3     1  UNL1        0.0690
     21  C         20.1120  -22.7740   -8.6940 C.2     1  UNL1        0.0400
     22  C         19.2640  -23.8740   -8.5450 C.2     1  UNL1        0.0310
     23  C         18.4700  -23.9920   -7.4020 C.2     1  UNL1        0.0140
     24  C         18.5080  -23.0140   -6.3950 C.2     1  UNL1       -0.0260
     25  C         17.7140  -23.1210   -5.2410 C.2     1  UNL1        0.0120
     26  C         19.3630  -21.8990   -6.5460 C.2     1  UNL1       -0.0240
     27  C         17.7590  -22.1390   -4.2510 C.2     1  UNL1        0.0010
     28  C         18.5980  -21.0380   -4.4010 C.2     1  UNL1        0.0010
     29  C         19.3940  -20.9180   -5.5400 C.2     1  UNL1        0.0120
     30  C         20.1600  -21.7910   -7.6980 C.2     1  UNL1        0.0420
     31  C         25.4020  -19.5640  -18.0740 C.3     1  UNL1        0.0690
     32  C         26.5520  -18.5580  -18.1510 C.3     1  UNL1        0.0070
     33  C         26.0750  -17.1080  -18.0240 C.3     1  UNL1        0.0000
     34  C         26.7400  -16.3520  -16.8720 C.3     1  UNL1       -0.0050
     35  C         26.7540  -17.1260  -15.5630 C.3     1  UNL1        0.0050
@<TRIPOS>BOND
     1    32    31    1
     2    32    33    1
     3    31     1    1
     4    33    34    1
     5    34    35    1
     6     1    12   ar
     7     1     2   ar
     8    12    11   ar
     9     2     3   ar
    10     3    11   ar
    11     3     4   ar
    12    11    10   ar
    13    13     5    1
    14    10     8   ar
    15     5     4    1
    16     4     6   ar
    17     8     6   ar
    18     8     9    2
    19     6     7    1
    20    15    14    1
    21    15    16    2
    22     7    14    1
    23    14    19    2
    24    17    16    1
    25    16    18    1
    26    19    18    1
    27    19    20    1
    28    18    21    1
    29    21    22    2
    30    21    30    1
    31    22    23    1
    32    30    26    2
    33    23    24    2
    34    26    24    1
    35    26    29    1
    36    24    25    1
    37    29    28    2
    38    25    27    2
    39    28    27    1
