@<TRIPOS>MOLECULE
4712_out_ligand_01.pdbqt
 35 38 0 0 0
SMALL
GASTEIGER

@<TRIPOS>ATOM
      1  N         20.5110  -23.4510   -9.4900 N.pl3   1  UNL1       -0.3310
      2  C         21.8590  -23.2540   -9.7400 C.2     1  UNL1        0.1210
      3  C         22.3580  -22.3750  -10.6210 C.2     1  UNL1        0.1300
      4  C         21.4130  -21.5080  -11.3440 C.2     1  UNL1        0.2090
      5  O         21.7780  -20.6490  -12.1360 O.2     1  UNL1       -0.2860
      6  C         19.9700  -21.7070  -11.0870 C.2     1  UNL1        0.0620
      7  C         19.0270  -20.9260  -11.7570 C.2     1  UNL1        0.0210
      8  C         17.6770  -21.1360  -11.5090 C.2     1  UNL1        0.0280
      9  C         17.3140  -22.1160  -10.5940 C.2     1  UNL1        0.0330
     10  C         15.8660  -22.3600  -10.3010 C.3     1  UNL1        0.0700
     11  N         18.2220  -22.8650   -9.9120 N.2     1  UNL1       -0.2350
     12  C         19.5460  -22.6720  -10.1660 C.2     1  UNL1        0.1440
     13  C         20.0140  -24.3230   -8.4130 C.3     1  UNL1        0.2330
     14  C         19.3530  -23.4960   -7.3020 C.2     1  UNL1        0.2400
     15  N         18.1700  -24.0580   -6.8580 N.am    1  UNL1       -0.3260
     16  H         17.8650  -24.8860   -7.3700 H       1  UNL1        0.1690
     17  O         19.8710  -22.4550   -6.8970 O.2     1  UNL1       -0.2710
     18  C         17.3010  -23.5790   -5.8630 C.2     1  UNL1        0.0350
     19  C         17.5260  -23.7140   -4.4940 C.2     1  UNL1        0.0290
     20  C         16.6010  -23.2140   -3.5750 C.2     1  UNL1        0.0030
     21  C         15.4390  -22.5900   -4.0150 C.2     1  UNL1        0.0070
     22  C         15.2050  -22.4210   -5.3830 C.2     1  UNL1       -0.0600
     23  C         13.9370  -21.7820   -5.8710 C.3     1  UNL1        0.0480
     24  C         16.1420  -22.9210   -6.2980 C.2     1  UNL1        0.0360
     25  S         24.0570  -22.2440  -10.8420 S.O2    1  UNL1        0.2120
     26  O         24.7210  -23.3770  -10.2180 O.2     1  UNL1       -0.2170
     27  O         24.4910  -20.9020  -10.5050 O.2     1  UNL1       -0.2170
     28  C         24.2930  -22.4790  -12.5940 C.2     1  UNL1        0.0650
     29  C         24.0950  -21.4190  -13.4730 C.2     1  UNL1        0.0240
     30  C         24.2970  -21.6180  -14.8360 C.2     1  UNL1        0.0090
     31  C         24.7090  -22.8640  -15.3330 C.2     1  UNL1       -0.0560
     32  C         24.8950  -23.0330  -16.8190 C.3     1  UNL1        0.0490
     33  C         24.9100  -23.9360  -14.4380 C.2     1  UNL1       -0.0550
     34  C         25.3510  -25.2920  -14.9210 C.3     1  UNL1        0.0490
     35  C         24.7130  -23.7260  -13.0660 C.2     1  UNL1        0.0310
@<TRIPOS>BOND
     1    32    31    1
     2    31    30    2
     3    31    33    1
     4    34    33    1
     5    30    29    1
     6    33    35    2
     7    29    28    2
     8    35    28    1
     9    28    25    1
    10     5     4    2
    11     7     8    1
    12     7     6    2
    13     8     9    2
    14     4     6    1
    15     4     3    1
    16     6    12    1
    17    25     3    1
    18    25    27    2
    19    25    26    2
    20     3     2    2
    21     9    10    1
    22     9    11    1
    23    12    11    2
    24    12     1    1
    25     2     1    1
    26     1    13    1
    27    13    14    1
    28    16    15    1
    29    14    17    2
    30    14    15   am
    31    15    18    1
    32    24    18    2
    33    24    22    1
    34    23    22    1
    35    18    19    1
    36    22    21    2
    37    19    20    2
    38    21    20    1
