@<TRIPOS>MOLECULE
4713_out_ligand_01.pdbqt
 33 36 0 0 0
SMALL
GASTEIGER

@<TRIPOS>ATOM
      1  C         21.9250  -23.0420   -8.8590 C.2     1  UNL1        0.0320
      2  C         21.5430  -24.3630   -9.1390 C.2     1  UNL1        0.0200
      3  C         20.3510  -24.8710   -8.6160 C.2     1  UNL1        0.0380
      4  C         19.5300  -24.0560   -7.8380 C.2     1  UNL1        0.0780
      5  C         19.9060  -22.7440   -7.5440 C.2     1  UNL1        0.0380
      6  C         21.0960  -22.2350   -8.0660 C.2     1  UNL1        0.0200
      7  O         18.3910  -24.6050   -7.3040 O.2     1  UNL1       -0.2900
      8  C         17.5090  -23.7330   -6.6740 C.2     1  UNL1        0.2060
      9  N         17.8040  -23.2750   -5.4260 N.2     1  UNL1       -0.2330
     10  C         16.9090  -22.4170   -4.8940 C.2     1  UNL1        0.1380
     11  C         15.7700  -22.0210   -5.5710 C.2     1  UNL1        0.1370
     12  N         15.4740  -22.4560   -6.8170 N.2     1  UNL1       -0.2480
     13  C         16.3660  -23.3210   -7.3720 C.2     1  UNL1        0.1510
     14  S         15.9710  -23.8840   -9.0150 S.3     1  UNL1       -0.0660
     15  C         16.9530  -22.7580   -9.9890 C.2     1  UNL1        0.0070
     16  C         18.1630  -23.1990  -10.5390 C.2     1  UNL1        0.0220
     17  C         18.9440  -22.3320  -11.3070 C.2     1  UNL1        0.0430
     18  C         18.5100  -21.0300  -11.5240 C.2     1  UNL1        0.1160
     19  F         19.2610  -20.1990  -12.2570 F       1  UNL1       -0.2060
     20  C         17.3070  -20.5790  -10.9950 C.2     1  UNL1        0.0430
     21  C         16.5240  -21.4460  -10.2280 C.2     1  UNL1        0.0220
     22  C         23.1810  -22.4440   -9.3950 C.2     1  UNL1        0.2510
     23  N         24.0610  -23.3070  -10.0140 N.am    1  UNL1       -0.3530
     24  H         23.9360  -24.3020   -9.8980 H       1  UNL1        0.1630
     25  O         23.3990  -21.2470   -9.2490 O.2     1  UNL1       -0.2680
     26  C         25.3780  -22.8700  -10.4280 C.3     1  UNL1        0.1620
     27  C         25.3610  -22.4430  -11.8780 C.2     1  UNL1       -0.0350
     28  C         24.8630  -23.3520  -12.8300 C.2     1  UNL1        0.0090
     29  C         24.7850  -23.0080  -14.1780 C.2     1  UNL1        0.0010
     30  C         25.2040  -21.7510  -14.5960 C.2     1  UNL1        0.0010
     31  C         25.6990  -20.8360  -13.6660 C.2     1  UNL1        0.0070
     32  C         25.7770  -21.1630  -12.3020 C.2     1  UNL1       -0.0540
     33  C         26.3110  -20.1380  -11.3390 C.3     1  UNL1        0.0490
@<TRIPOS>BOND
     1    30    29    2
     2    30    31    1
     3    29    28    1
     4    31    32    2
     5    28    27    2
     6    32    27    1
     7    32    33    1
     8    19    18    1
     9    27    26    1
    10    18    17    2
    11    18    20    1
    12    17    16    1
    13    20    21    2
    14    16    15    2
    15    26    23    1
    16    21    15    1
    17    23    24    1
    18    23    22   am
    19    15    14    1
    20    22    25    2
    21    22     1    1
    22     2     1    2
    23     2     3    1
    24    14    13    1
    25     1     6    1
    26     3     4    2
    27     6     5    2
    28     4     5    1
    29     4     7    1
    30    13    12    2
    31    13     8    1
    32     7     8    1
    33    12    11    1
    34     8     9    2
    35    11    10    2
    36     9    10    1
