@<TRIPOS>MOLECULE
47142_out_ligand_01.pdbqt
 33 37 0 0 0
SMALL
GASTEIGER

@<TRIPOS>ATOM
      1  C         20.7900  -23.1610   -9.1330 C.3     1  UNL1       -0.0050
      2  C         20.9660  -22.1240   -8.0020 C.3     1  UNL1        0.0210
      3  C         19.2870  -23.5490   -9.2650 C.3     1  UNL1        0.0530
      4  C         18.4400  -22.5170   -9.9590 C.2     1  UNL1       -0.0450
      5  C         17.0830  -22.3860   -9.6210 C.2     1  UNL1        0.0080
      6  C         16.2860  -21.4410  -10.2610 C.2     1  UNL1        0.0010
      7  C         16.8390  -20.6240  -11.2410 C.2     1  UNL1        0.0010
      8  C         18.1850  -20.7640  -11.5920 C.2     1  UNL1        0.0140
      9  C         19.0010  -21.7270  -10.9740 C.2     1  UNL1       -0.0020
     10  C         20.4330  -21.9060  -11.3270 C.ar    1  UNL1        0.0720
     11  N         20.8710  -21.4130  -12.5390 N.ar    1  UNL1       -0.1860
     12  C         22.1550  -21.4900  -12.9250 C.ar    1  UNL1        0.7350
     13  N         22.7360  -21.1310  -14.0430 N.ar    1  UNL1        0.0450
     14  N         24.0780  -21.4010  -13.9130 N.ar    1  UNL1       -0.1070
     15  C         24.2680  -21.9160  -12.7170 C.ar    1  UNL1        0.2140
     16  N         23.0710  -22.0170  -12.0480 N.ar    1  UNL1       -0.0820
     17  C         22.7400  -22.5060  -10.7870 C.ar    1  UNL1        0.2780
     18  O         23.6290  -22.8700  -10.0320 O.2     1  UNL1       -0.2660
     19  C         21.2690  -22.5150  -10.4480 C.ar    1  UNL1        0.0480
     20  H         20.1770  -21.1120  -13.2140 H       1  UNL1        0.1840
     21  S         25.8210  -22.4100  -12.1410 S.3     1  UNL1       -0.0800
     22  C         26.3150  -20.9490  -11.1830 C.3     1  UNL1        0.1850
     23  C         26.5210  -19.6850  -12.0070 C.2     1  UNL1        0.2330
     24  O         26.7490  -18.6260  -11.4260 O.2     1  UNL1       -0.2720
     25  N         26.4900  -19.8760  -13.3680 N.am    1  UNL1       -0.3050
     26  C         26.6830  -18.8640  -14.2630 C.2     1  UNL1        0.1720
     27  H         26.1490  -20.7500  -13.7470 H       1  UNL1        0.1710
     28  N         27.0610  -17.6280  -14.0570 N.2     1  UNL1       -0.2360
     29  S         26.4040  -19.3130  -15.8880 S.3     1  UNL1       -0.0620
     30  C         27.1210  -16.9640  -15.2660 C.2     1  UNL1        0.1260
     31  C         26.7970  -17.7160  -16.3750 C.2     1  UNL1        0.0720
     32  C         21.5820  -24.4640   -8.7790 C.3     1  UNL1        0.0100
     33  C         20.7440  -25.6840   -8.4000 C.3     1  UNL1        0.0060
@<TRIPOS>BOND
     1    31    29    1
     2    31    30    2
     3    29    26    1
     4    30    28    1
     5    26    28    2
     6    26    25    1
     7    13    14   ar
     8    13    12   ar
     9    14    15   ar
    10    27    25    1
    11    25    23   am
    12    20    11    1
    13    12    11   ar
    14    12    16   ar
    15    15    21    1
    16    15    16   ar
    17    11    10   ar
    18    21    22    1
    19    16    17   ar
    20    23    24    2
    21    23    22    1
    22     8     7    2
    23     8     9    1
    24    10     9    1
    25    10    19   ar
    26     7     6    1
    27     9     4    2
    28    17    19   ar
    29    17    18    2
    30    19     1    1
    31     6     5    2
    32     4     5    1
    33     4     3    1
    34     3     1    1
    35     1    32    1
    36     1     2    1
    37    32    33    1
