@<TRIPOS>MOLECULE
47156_out_ligand_01.pdbqt
 29 33 0 0 0
SMALL
GASTEIGER

@<TRIPOS>ATOM
      1  C         24.4020  -22.3270  -12.3930 C.2     1  UNL1        0.1440
      2  N         24.2000  -21.8030  -13.6200 N.2     1  UNL1       -0.2230
      3  C         22.9670  -21.4090  -13.9650 C.2     1  UNL1        0.2360
      4  N         21.8610  -21.4570  -13.2200 N.2     1  UNL1       -0.2400
      5  C         22.0490  -21.9780  -11.9790 C.ar    1  UNL1        0.0920
      6  C         23.2930  -22.4190  -11.5400 C.ar    1  UNL1        0.0820
      7  S         23.2040  -23.0250   -9.9320 S.2     1  UNL1       -0.0630
      8  C         21.5370  -22.7070   -9.8280 C.ar    1  UNL1        0.1120
      9  N         20.8590  -23.0140   -8.7020 N.ar    1  UNL1       -0.2390
     10  C         19.5360  -22.7220   -8.7140 C.ar    1  UNL1        0.0750
     11  C         18.9120  -22.1470   -9.8090 C.ar    1  UNL1       -0.0210
     12  C         19.6520  -21.8520  -10.9630 C.ar    1  UNL1       -0.0340
     13  C         21.0250  -22.1380  -10.9870 C.ar    1  UNL1        0.0370
     14  C         18.7610  -21.3030  -12.0440 C.3     1  UNL1        0.0400
     15  C         17.5300  -20.8900  -11.2320 C.3     1  UNL1        0.0090
     16  C         17.4630  -21.8380  -10.0290 C.3     1  UNL1        0.0420
     17  N         25.6680  -22.7670  -12.0090 N.pl3   1  UNL1       -0.3720
     18  H         25.6440  -23.3000  -11.1460 H       1  UNL1        0.1610
     19  C         26.7720  -21.8180  -12.1270 C.3     1  UNL1        0.1510
     20  C         26.5000  -20.5280  -11.3170 C.3     1  UNL1        0.2900
     21  N         26.4220  -19.2560  -12.0650 N.3     1  UNL1        0.0810
     22  C         26.8720  -19.3820  -13.4470 C.3     1  UNL1        0.3090
     23  C         27.1190  -18.1710  -11.3800 C.3     1  UNL1        0.3090
     24  C         18.8210  -23.0880   -7.4830 C.2     1  UNL1       -0.0070
     25  C         18.1620  -24.3220   -7.3530 C.2     1  UNL1        0.0140
     26  C         17.4870  -24.6580   -6.1760 C.2     1  UNL1        0.0010
     27  C         17.4550  -23.7610   -5.1110 C.2     1  UNL1        0.0000
     28  C         18.0880  -22.5260   -5.2250 C.2     1  UNL1        0.0010
     29  C         18.7610  -22.1920   -6.4030 C.2     1  UNL1        0.0140
@<TRIPOS>BOND
     1     3     2    1
     2     3     4    2
     3     2     1    2
     4    22    21    1
     5     4     5    1
     6     1    17    1
     7     1     6    1
     8    19    17    1
     9    19    20    1
    10    21    23    1
    11    21    20    1
    12    14    15    1
    13    14    12    1
    14    17    18    1
    15     5     6   ar
    16     5    13   ar
    17     6     7   ar
    18    15    16    1
    19    13    12   ar
    20    13     8   ar
    21    12    11   ar
    22    16    11    1
    23     7     8   ar
    24     8     9   ar
    25    11    10   ar
    26    10     9   ar
    27    10    24    1
    28    24    25    2
    29    24    29    1
    30    25    26    1
    31    29    28    2
    32    26    27    2
    33    28    27    1
