@<TRIPOS>MOLECULE
47171_out_ligand_01.pdbqt
 30 34 0 0 0
SMALL
GASTEIGER

@<TRIPOS>ATOM
      1  C         24.1050  -22.7810  -12.2340 C.2     1  UNL1        0.1440
      2  N         24.0110  -22.1150  -13.4020 N.2     1  UNL1       -0.2230
      3  C         22.8580  -21.5070  -13.7160 C.2     1  UNL1        0.2360
      4  N         21.7380  -21.4660  -12.9940 N.2     1  UNL1       -0.2400
      5  C         21.8140  -22.1380  -11.8140 C.ar    1  UNL1        0.0920
      6  C         22.9700  -22.7980  -11.4090 C.ar    1  UNL1        0.0820
      7  S         22.7540  -23.5410   -9.8730 S.2     1  UNL1       -0.0630
      8  C         21.1500  -22.9900   -9.7520 C.ar    1  UNL1        0.1120
      9  N         20.4170  -23.2770   -8.6560 N.ar    1  UNL1       -0.2390
     10  C         19.1500  -22.7970   -8.6520 C.ar    1  UNL1        0.0750
     11  C         18.6350  -22.0540   -9.7030 C.ar    1  UNL1       -0.0210
     12  C         19.4350  -21.7680  -10.8180 C.ar    1  UNL1       -0.0340
     13  C         20.7510  -22.2520  -10.8590 C.ar    1  UNL1        0.0370
     14  C         18.6960  -20.8950  -11.7950 C.3     1  UNL1        0.0400
     15  C         17.2480  -21.0950  -11.3370 C.3     1  UNL1        0.0090
     16  C         17.3030  -21.3810   -9.8320 C.3     1  UNL1        0.0420
     17  N         25.2770  -23.4370  -11.8800 N.pl3   1  UNL1       -0.3670
     18  H         25.1380  -24.4390  -11.7820 H       1  UNL1        0.1610
     19  CA        26.2060  -22.8580  -10.9030 C.3     1  UNL1        0.1060
     20  C         27.0960  -21.7540  -11.5030 C.3     1  UNL1        0.0230
     21  C         26.5110  -20.3570  -11.3350 C.3     1  UNL1        0.0070
     22  C         27.0370  -23.9240  -10.1570 C.3     1  UNL1        0.1890
     23  O         26.2200  -24.6440   -9.2270 O.3     1  UNL1       -0.3990
     24  H         26.5470  -24.4240   -8.3380 H       1  UNL1        0.2090
     25  C         18.3840  -23.1090   -7.4380 C.2     1  UNL1       -0.0070
     26  C         18.5590  -22.3480   -6.2700 C.2     1  UNL1        0.0140
     27  C         17.8360  -22.6310   -5.1090 C.2     1  UNL1        0.0010
     28  C         16.9300  -23.6880   -5.0940 C.2     1  UNL1        0.0000
     29  C         16.7520  -24.4660   -6.2350 C.2     1  UNL1        0.0010
     30  C         17.4750  -24.1810   -7.3960 C.2     1  UNL1        0.0140
@<TRIPOS>BOND
     1     3     2    1
     2     3     4    2
     3     2     1    2
     4     4     5    1
     5     1    17    1
     6     1     6    1
     7    17    18    1
     8    17    19    1
     9     5     6   ar
    10     5    13   ar
    11    14    15    1
    12    14    12    1
    13    20    21    1
    14    20    19    1
    15     6     7   ar
    16    15    16    1
    17    19    22    1
    18    13    12   ar
    19    13     8   ar
    20    12    11   ar
    21    22    23    1
    22     7     8   ar
    23    16    11    1
    24     8     9   ar
    25    11    10   ar
    26    23    24    1
    27     9    10   ar
    28    10    25    1
    29    25    30    2
    30    25    26    1
    31    30    29    1
    32    26    27    2
    33    29    28    2
    34    27    28    1
