@<TRIPOS>MOLECULE
471_out_ligand_01.pdbqt
 37 40 0 0 0
SMALL
GASTEIGER

@<TRIPOS>ATOM
      1  O         20.7340  -21.8600  -11.9020 O.2     1  UNL1       -0.2670
      2  C         21.0580  -22.5420  -10.9360 C.2     1  UNL1        0.2560
      3  N         22.3440  -22.8930  -10.5600 N.am    1  UNL1       -0.3230
      4  H         22.4470  -23.3700   -9.6740 H       1  UNL1        0.1690
      5  C         19.9860  -23.0090  -10.0160 C.2     1  UNL1        0.0320
      6  C         18.6760  -22.5740  -10.2570 C.2     1  UNL1        0.0180
      7  C         17.6390  -22.9720   -9.4130 C.2     1  UNL1        0.0260
      8  C         17.9160  -23.8060   -8.3270 C.2     1  UNL1        0.0790
      9  C         19.2150  -24.2790   -8.1020 C.2     1  UNL1        0.0260
     10  C         20.2530  -23.8780   -8.9480 C.2     1  UNL1        0.0180
     11  S         16.5920  -24.3250   -7.2530 S.O2    1  UNL1        0.2630
     12  O         17.1770  -25.1620   -6.2260 O.2     1  UNL1       -0.2000
     13  O         15.5030  -24.8010   -8.0790 O.2     1  UNL1       -0.2000
     14  N         16.1420  -22.8910   -6.4860 N.pl3   1  UNL1       -0.2810
     15  H         15.1330  -22.8010   -6.3910 H       1  UNL1        0.1790
     16  C         16.9690  -22.3270   -5.4750 C.2     1  UNL1        0.0420
     17  C         18.0870  -21.5830   -5.8630 C.2     1  UNL1        0.0300
     18  C         18.9060  -20.9940   -4.8960 C.2     1  UNL1        0.0020
     19  C         18.6080  -21.1500   -3.5420 C.2     1  UNL1        0.0000
     20  C         17.4990  -21.9030   -3.1530 C.2     1  UNL1        0.0020
     21  C         16.6810  -22.4960   -4.1190 C.2     1  UNL1        0.0300
     22  C         23.5430  -22.5630  -11.2260 C.2     1  UNL1        0.0360
     23  C         24.3430  -21.5650  -10.6490 C.2     1  UNL1        0.0320
     24  C         25.5470  -21.1820  -11.2490 C.2     1  UNL1        0.0460
     25  C         25.9640  -21.7950  -12.4260 C.2     1  UNL1        0.1390
     26  F         27.1210  -21.3940  -12.9690 F       1  UNL1       -0.2040
     27  C         25.1840  -22.7850  -13.0000 C.2     1  UNL1        0.1150
     28  C         23.9710  -23.1700  -12.4080 C.2     1  UNL1        0.0570
     29  S         25.7020  -23.5930  -14.4770 S.O2    1  UNL1        0.2460
     30  O         25.1920  -24.9500  -14.5120 O.2     1  UNL1       -0.2060
     31  O         27.1130  -23.3050  -14.6410 O.2     1  UNL1       -0.2060
     32  N         24.8450  -22.7390  -15.6900 N.3     1  UNL1       -0.2020
     33  C         24.9160  -23.3290  -17.0690 C.3     1  UNL1        0.1340
     34  C         25.8900  -22.5420  -17.9540 C.3     1  UNL1        0.1830
     35  O         25.5040  -21.1710  -18.1350 O.3     1  UNL1       -0.3890
     36  C         24.7460  -20.6430  -17.0370 C.3     1  UNL1        0.1830
     37  C         25.1330  -21.2660  -15.6900 C.3     1  UNL1        0.1340
@<TRIPOS>BOND
     1    35    34    1
     2    35    36    1
     3    34    33    1
     4    33    32    1
     5    36    37    1
     6    37    32    1
     7    32    29    1
     8    31    29    2
     9    30    29    2
    10    29    27    1
    11    27    25    2
    12    27    28    1
    13    26    25    1
    14    25    24    1
    15    28    22    2
    16     1     2    2
    17    24    23    2
    18    22    23    1
    19    22     3    1
    20     2     3   am
    21     2     5    1
    22     3     4    1
    23     6     5    2
    24     6     7    1
    25     5    10    1
    26     7     8    2
    27    10     9    2
    28     8     9    1
    29     8    11    1
    30    13    11    2
    31    11    14    1
    32    11    12    2
    33    14    15    1
    34    14    16    1
    35    17    16    2
    36    17    18    1
    37    16    21    1
    38    18    19    2
    39    21    20    2
    40    19    20    1
