@<TRIPOS>MOLECULE
4724_out_ligand_01.pdbqt
 34 38 0 0 0
SMALL
GASTEIGER

@<TRIPOS>ATOM
      1  C         17.8980  -21.8480  -10.7000 C.ar    1  UNL1        0.0960
      2  N         17.9190  -21.0930  -11.8550 N.ar    1  UNL1       -0.1610
      3  N         19.1720  -20.7180  -12.0850 N.ar    1  UNL1        0.0050
      4  N         19.9160  -21.2130  -11.0890 N.ar    1  UNL1       -0.2710
      5  C         19.1840  -21.9430  -10.2060 C.ar    1  UNL1        0.0780
      6  C         19.8070  -22.6270   -9.0560 C.3     1  UNL1        0.2290
      7  O         21.1530  -22.1570   -8.8760 O.3     1  UNL1       -0.3710
      8  C         21.9420  -22.0620  -10.0750 C.3     1  UNL1        0.0970
      9  C         22.1440  -23.4260  -10.7490 C.3     1  UNL1        0.0620
     10  C         23.4310  -23.2510  -11.5450 C.3     1  UNL1        0.1380
     11  N         24.2470  -22.3650  -10.7010 N.3     1  UNL1       -0.3040
     12  C         23.3910  -21.6940   -9.6960 C.3     1  UNL1        0.1750
     13  C         21.3390  -20.9910  -10.9950 C.3     1  UNL1        0.1860
     14  S         25.5810  -21.5690  -11.3500 S.O2    1  UNL1        0.2620
     15  O         25.5020  -20.1780  -10.9580 O.2     1  UNL1       -0.2000
     16  O         26.7530  -22.3700  -11.0680 O.2     1  UNL1       -0.2000
     17  C         25.2980  -21.6460  -13.0870 C.2     1  UNL1        0.0970
     18  C         26.0550  -22.4810  -13.9080 C.2     1  UNL1        0.0280
     19  C         25.7760  -22.5150  -15.2720 C.2     1  UNL1        0.0210
     20  C         24.7600  -21.7050  -15.7550 C.2     1  UNL1        0.1160
     21  N         24.0330  -20.8690  -14.9780 N.2     1  UNL1       -0.2720
     22  C         24.3370  -20.8350  -13.6580 C.2     1  UNL1        0.1410
     23  C         16.6240  -22.4020  -10.1780 C.3     1  UNL1        0.1850
     24  N         16.5840  -22.2040   -8.7460 N.am    1  UNL1       -0.3510
     25  C         16.1900  -23.2180   -7.9010 C.2     1  UNL1        0.2510
     26  O         15.7410  -24.2900   -8.2940 O.2     1  UNL1       -0.2680
     27  H         17.1950  -21.4850   -8.3840 H       1  UNL1        0.1630
     28  C         16.3840  -22.9730   -6.4450 C.2     1  UNL1        0.0320
     29  C         15.5540  -23.5580   -5.4800 C.2     1  UNL1        0.0170
     30  C         15.7740  -23.3020   -4.1260 C.2     1  UNL1        0.0020
     31  C         16.8170  -22.4650   -3.7290 C.2     1  UNL1        0.0070
     32  C         17.6530  -21.8720   -4.6840 C.2     1  UNL1       -0.0610
     33  C         18.8010  -21.0030   -4.2560 C.3     1  UNL1        0.0480
     34  C         17.4400  -22.1470   -6.0420 C.2     1  UNL1        0.0230
@<TRIPOS>BOND
     1    20    19    2
     2    20    21    1
     3    19    18    1
     4    21    22    2
     5    18    17    2
     6    22    17    1
     7    17    14    1
     8     3     2   ar
     9     3     4   ar
    10     2     1   ar
    11    10     9    1
    12    10    11    1
    13    14    16    2
    14    14    15    2
    15    14    11    1
    16     4    13    1
    17     4     5   ar
    18    13     8    1
    19     9     8    1
    20    11    12    1
    21     1     5   ar
    22     1    23    1
    23     5     6    1
    24    23    24    1
    25     8    12    1
    26     8     7    1
    27     6     7    1
    28    24    27    1
    29    24    25   am
    30    26    25    2
    31    25    28    1
    32    28    34    2
    33    28    29    1
    34    34    32    1
    35    29    30    2
    36    32    33    1
    37    32    31    2
    38    30    31    1
