@<TRIPOS>MOLECULE
472_out_ligand_01.pdbqt
 35 38 0 0 0
SMALL
GASTEIGER

@<TRIPOS>ATOM
      1  C         17.5110  -21.4280  -10.8010 C.3     1  UNL1        0.0500
      2  C         18.9810  -21.6110  -11.0510 C.2     1  UNL1       -0.0390
      3  C         19.5590  -20.9180  -12.1260 C.2     1  UNL1        0.0100
      4  C         20.9200  -21.0440  -12.4170 C.2     1  UNL1        0.0300
      5  C         21.7450  -21.8620  -11.6410 C.2     1  UNL1        0.0360
      6  C         21.1940  -22.5310  -10.5520 C.2     1  UNL1        0.0550
      7  C         19.8210  -22.4140  -10.2570 C.2     1  UNL1        0.0870
      8  N         23.0980  -21.9460  -12.0160 N.am    1  UNL1       -0.3250
      9  C         23.6510  -21.7730  -13.2740 C.2     1  UNL1        0.2450
     10  O         23.0490  -21.4360  -14.2890 O.2     1  UNL1       -0.2710
     11  H         23.7640  -22.1660  -11.2820 H       1  UNL1        0.1690
     12  C         25.1900  -21.9230  -13.2890 C.3     1  UNL1        0.1800
     13  C         25.7790  -21.3350  -12.0030 C.3     1  UNL1        0.0370
     14  C         25.8700  -22.5340  -11.0650 C.3     1  UNL1        0.0220
     15  C         26.2650  -23.6630  -12.0010 C.3     1  UNL1        0.1270
     16  N         25.6350  -23.3290  -13.2690 N.am    1  UNL1       -0.3340
     17  C         25.8820  -24.1310  -14.3830 C.2     1  UNL1        0.2610
     18  O         26.4460  -25.2160  -14.2460 O.2     1  UNL1       -0.2670
     19  C         25.4540  -23.6330  -15.6750 C.2     1  UNL1        0.0720
     20  C         24.3100  -23.9130  -16.3970 C.2     1  UNL1        0.0250
     21  C         24.2650  -23.2010  -17.6320 C.2     1  UNL1        0.0090
     22  C         25.3850  -22.4250  -17.8210 C.2     1  UNL1        0.0500
     23  S         26.4870  -22.5600  -16.5200 S.3     1  UNL1       -0.0970
     24  S         19.2140  -23.3160   -8.8320 S.O2    1  UNL1        0.2630
     25  O         20.0280  -24.4990   -8.6580 O.2     1  UNL1       -0.2000
     26  O         17.7750  -23.4330   -8.9460 O.2     1  UNL1       -0.2000
     27  N         19.5750  -22.2870   -7.5390 N.pl3   1  UNL1       -0.2780
     28  H         19.7050  -21.3250   -7.8590 H       1  UNL1        0.1790
     29  C         18.8390  -22.4400   -6.3220 C.2     1  UNL1        0.0810
     30  C         18.0890  -23.5860   -6.0670 C.2     1  UNL1        0.0330
     31  C         17.3420  -23.6790   -4.8890 C.2     1  UNL1        0.0020
     32  C         17.3490  -22.6320   -3.9640 C.2     1  UNL1        0.0030
     33  C         18.1040  -21.4860   -4.2140 C.2     1  UNL1        0.0440
     34  C         18.8410  -21.3990   -5.3900 C.2     1  UNL1        0.1430
     35  F         19.5550  -20.2880   -5.6350 F       1  UNL1       -0.2040
@<TRIPOS>BOND
     1    22    21    2
     2    22    23    1
     3    21    20    1
     4    23    19    1
     5    20    19    2
     6    19    17    1
     7    17    18    2
     8    17    16   am
     9    10     9    2
    10    12     9    1
    11    12    16    1
    12    12    13    1
    13     9     8   am
    14    16    15    1
    15     4     3    1
    16     4     5    2
    17     3     2    2
    18     8     5    1
    19     8    11    1
    20    13    14    1
    21    15    14    1
    22     5     6    1
    23     2     1    1
    24     2     7    1
    25     6     7    2
    26     7    24    1
    27    26    24    2
    28    24    25    2
    29    24    27    1
    30    28    27    1
    31    27    29    1
    32    29    30    2
    33    29    34    1
    34    30    31    1
    35    35    34    1
    36    34    33    2
    37    31    32    2
    38    33    32    1
