@<TRIPOS>MOLECULE
4732_out_ligand_01.pdbqt
 30 33 0 0 0
SMALL
GASTEIGER

@<TRIPOS>ATOM
      1  C         17.7420  -21.5450  -10.6810 C.ar    1  UNL1        0.1580
      2  N         17.4580  -20.6100  -11.5960 N.ar    1  UNL1       -0.1110
      3  O         18.6560  -20.4840  -12.3000 O.2     1  UNL1       -0.1890
      4  C         19.5490  -21.3590  -11.7320 C.ar    1  UNL1        0.2230
      5  C         20.8890  -21.5280  -12.1880 C.2     1  UNL1        0.0890
      6  C         21.8670  -22.4010  -11.7580 C.2     1  UNL1        0.0480
      7  C         23.0330  -22.1760  -12.5410 C.2     1  UNL1       -0.0050
      8  C         24.3190  -22.7470  -12.5660 C.2     1  UNL1        0.0370
      9  C         25.2510  -22.2700  -13.4920 C.2     1  UNL1        0.0350
     10 CL         26.8310  -22.9590  -13.5310 Cl      1  UNL1       -0.0840
     11  C         24.9280  -21.2480  -14.3810 C.2     1  UNL1        0.0260
     12  C         23.6550  -20.6680  -14.3740 C.2     1  UNL1        0.0320
     13  C         22.7310  -21.1540  -13.4420 C.2     1  UNL1        0.0430
     14  N         21.4250  -20.7830  -13.2070 N.pl3   1  UNL1       -0.3520
     15  N         19.0230  -22.0270  -10.7280 N.ar    1  UNL1       -0.2030
     16  H         20.9370  -20.0570  -13.7160 H       1  UNL1        0.1660
     17  C         16.7520  -22.0050   -9.6770 C.3     1  UNL1        0.1030
     18  C         16.7460  -23.5250   -9.4790 C.3     1  UNL1        0.1330
     19  N         16.5790  -23.9570   -8.0810 N.am    1  UNL1       -0.3520
     20  C         17.6490  -24.2100   -7.2170 C.2     1  UNL1        0.2530
     21  O         17.5650  -24.8990   -6.2040 O.2     1  UNL1       -0.2670
     22  C         15.3080  -24.5720   -7.7280 C.3     1  UNL1        0.1520
     23  C         18.9670  -23.6200   -7.5230 C.2     1  UNL1        0.0350
     24  C         19.3090  -22.3610   -7.0180 C.2     1  UNL1        0.0180
     25  C         20.5660  -21.8210   -7.3010 C.2     1  UNL1        0.0110
     26  C         21.4900  -22.5470   -8.0640 C.2     1  UNL1       -0.0230
     27  C         22.8270  -21.9570   -8.3990 C.3     1  UNL1        0.0510
     28  C         21.1270  -23.8100   -8.5460 C.2     1  UNL1        0.1230
     29  C         19.8810  -24.3600   -8.2710 C.2     1  UNL1        0.0590
     30  F         21.9880  -24.5110   -9.2970 F       1  UNL1       -0.2060
@<TRIPOS>BOND
     1    11    12    2
     2    11     9    1
     3    12    13    1
     4    16    14    1
     5    10     9    1
     6     9     8    2
     7    13    14    1
     8    13     7    2
     9    14     5    1
    10     8     7    1
    11     7     6    1
    12     3     4   ar
    13     3     2   ar
    14     5     6    2
    15     5     4    1
    16     4    15   ar
    17     2     1   ar
    18    15     1   ar
    19     1    17    1
    20    17    18    1
    21    18    19    1
    22    30    28    1
    23    28    29    1
    24    28    26    2
    25    27    26    1
    26    29    23    2
    27    19    22    1
    28    19    20   am
    29    26    25    1
    30    23    20    1
    31    23    24    1
    32    25    24    2
    33    20    21    2
