@<TRIPOS>MOLECULE
47350_out_ligand_01.pdbqt
 29 33 0 0 0
SMALL
GASTEIGER

@<TRIPOS>ATOM
      1  C         24.7330  -22.3290  -12.2420 C.2     1  UNL1        0.1240
      2  N         24.5940  -21.7670  -13.4620 N.2     1  UNL1       -0.2290
      3  C         23.3850  -21.3330  -13.8440 C.2     1  UNL1        0.2350
      4  N         22.2480  -21.3760  -13.1450 N.2     1  UNL1       -0.2400
      5  C         22.3730  -21.9380  -11.9160 C.ar    1  UNL1        0.0920
      6  C         23.5880  -22.4200  -11.4380 C.ar    1  UNL1        0.0770
      7  S         23.4190  -23.0670   -9.8540 S.2     1  UNL1       -0.0640
      8  C         21.7590  -22.7060   -9.8050 C.ar    1  UNL1        0.1120
      9  N         21.0340  -23.0030   -8.7040 N.ar    1  UNL1       -0.2390
     10  C         19.7240  -22.6620   -8.7520 C.ar    1  UNL1        0.0750
     11  C         19.1520  -22.0810   -9.8730 C.ar    1  UNL1       -0.0210
     12  C         19.9380  -21.7950  -10.9960 C.ar    1  UNL1       -0.0340
     13  C         21.3050  -22.1060  -10.9720 C.ar    1  UNL1        0.0370
     14  C         19.1120  -21.1440  -12.0730 C.3     1  UNL1        0.0400
     15  C         17.6980  -21.5440  -11.6390 C.3     1  UNL1        0.0090
     16  C         17.7320  -21.6630  -10.1100 C.3     1  UNL1        0.0420
     17  N         25.9730  -22.8100  -11.8210 N.pl3   1  UNL1       -0.2760
     18  H         26.2720  -22.3730  -10.9540 H       1  UNL1        0.1290
     19  C         26.9970  -22.9180  -12.8530 C.3     1  UNL1        0.0940
     20  C         27.0530  -24.3670  -13.3520 C.3     1  UNL1        0.0180
     21  C         26.7230  -24.5650  -14.8430 C.3     1  UNL1       -0.0220
     22  C         25.2770  -25.0040  -15.0670 C.3     1  UNL1        0.0090
     23  C         27.0410  -23.3240  -15.6780 C.3     1  UNL1        0.0090
     24  C         18.9650  -22.9780   -7.5300 C.2     1  UNL1       -0.0070
     25  C         18.2710  -24.1910   -7.3820 C.2     1  UNL1        0.0140
     26  C         17.5570  -24.4770   -6.2140 C.2     1  UNL1        0.0010
     27  C         17.5190  -23.5500   -5.1760 C.2     1  UNL1        0.0000
     28  C         18.1870  -22.3360   -5.3060 C.2     1  UNL1        0.0010
     29  C         18.8990  -22.0520   -6.4740 C.2     1  UNL1        0.0140
@<TRIPOS>BOND
     1    23    21    1
     2    22    21    1
     3    21    20    1
     4     3     2    1
     5     3     4    2
     6     2     1    2
     7    20    19    1
     8     4     5    1
     9    19    17    1
    10     1    17    1
    11     1     6    1
    12    14    15    1
    13    14    12    1
    14     5     6   ar
    15     5    13   ar
    16    17    18    1
    17    15    16    1
    18     6     7   ar
    19    12    13   ar
    20    12    11   ar
    21    13     8   ar
    22    16    11    1
    23    11    10   ar
    24     7     8   ar
    25     8     9   ar
    26    10     9   ar
    27    10    24    1
    28    24    25    2
    29    24    29    1
    30    25    26    1
    31    29    28    2
    32    26    27    2
    33    28    27    1
