@<TRIPOS>MOLECULE
47353_out_ligand_01.pdbqt
 31 36 0 0 0
SMALL
GASTEIGER

@<TRIPOS>ATOM
      1  C         19.1060  -22.4920   -7.4760 C.ar    1  UNL1        0.0750
      2  N         20.4590  -22.4550   -7.4720 N.ar    1  UNL1       -0.2390
      3  C         21.0460  -22.2830   -8.6770 C.ar    1  UNL1        0.1120
      4  S         22.7400  -22.2210   -8.8020 S.2     1  UNL1       -0.0640
      5  C         22.6800  -21.9800  -10.5030 C.ar    1  UNL1        0.0770
      6  C         23.7330  -21.8260  -11.4150 C.2     1  UNL1        0.1240
      7  N         23.4110  -21.6490  -12.7160 N.2     1  UNL1       -0.2290
      8  C         22.1180  -21.6270  -13.0660 C.2     1  UNL1        0.2350
      9  N         21.0560  -21.7730  -12.2720 N.2     1  UNL1       -0.2400
     10  C         21.3660  -21.9530  -10.9600 C.ar    1  UNL1        0.0920
     11  C         20.4120  -22.1350   -9.9040 C.ar    1  UNL1        0.0370
     12  C         19.0100  -22.1760   -9.8680 C.ar    1  UNL1       -0.0340
     13  C         18.3620  -22.3620   -8.6390 C.ar    1  UNL1       -0.0210
     14  C         16.8760  -22.2930   -8.8180 C.3     1  UNL1        0.0420
     15  C         16.7380  -22.5410  -10.3260 C.3     1  UNL1        0.0090
     16  C         18.0100  -21.9890  -10.9760 C.3     1  UNL1        0.0400
     17  N         25.0730  -21.8290  -11.0130 N.pl3   1  UNL1       -0.2700
     18  H         25.1430  -21.5600  -10.0310 H       1  UNL1        0.1290
     19  C         25.7720  -23.0940  -11.2330 C.3     1  UNL1        0.1530
     20  C         26.0530  -23.3070  -12.7100 C.2     1  UNL1        0.0470
     21  C         26.9010  -22.4450  -13.4000 C.2     1  UNL1        0.0280
     22  C         27.1210  -22.6630  -14.7570 C.2     1  UNL1        0.0030
     23  C         26.4910  -23.7310  -15.3860 C.2     1  UNL1        0.0190
     24  C         25.6620  -24.5410  -14.6310 C.2     1  UNL1        0.1170
     25  N         25.4290  -24.3570  -13.3130 N.2     1  UNL1       -0.2640
     26  C         18.4970  -22.6580   -6.1480 C.2     1  UNL1       -0.0070
     27  C         18.5560  -21.6180   -5.2050 C.2     1  UNL1        0.0140
     28  C         17.9820  -21.7580   -3.9390 C.2     1  UNL1        0.0010
     29  C         17.3440  -22.9470   -3.5930 C.2     1  UNL1        0.0000
     30  C         17.2880  -23.9960   -4.5070 C.2     1  UNL1        0.0010
     31  C         17.8640  -23.8530   -5.7720 C.2     1  UNL1        0.0140
@<TRIPOS>BOND
     1    23    22    2
     2    23    24    1
     3    22    21    1
     4    24    25    2
     5    21    20    2
     6    25    20    1
     7     8     7    2
     8     8     9    1
     9     7     6    1
    10    20    19    1
    11     9    10    2
    12     6    17    1
    13     6     5    2
    14    19    17    1
    15    17    18    1
    16    16    15    1
    17    16    12    1
    18    10     5   ar
    19    10    11   ar
    20     5     4   ar
    21    15    14    1
    22    11    12   ar
    23    11     3   ar
    24    12    13   ar
    25    14    13    1
    26     4     3   ar
    27     3     2   ar
    28    13     1   ar
    29     1     2   ar
    30     1    26    1
    31    26    31    2
    32    26    27    1
    33    31    30    1
    34    27    28    2
    35    30    29    2
    36    28    29    1
