@<TRIPOS>MOLECULE
47367_out_ligand_01.pdbqt
 33 36 0 0 0
SMALL
GASTEIGER

@<TRIPOS>ATOM
      1  C         21.3560  -24.0010   -9.2470 C.3     1  UNL1        0.0510
      2  C         20.8490  -22.9320  -10.1530 C.ar    1  UNL1       -0.0220
      3  C         21.5950  -22.1150  -11.0000 C.ar    1  UNL1        0.0520
      4  N         20.7060  -21.2390  -11.5850 N.ar    1  UNL1       -0.3540
      5  C         19.4160  -21.4980  -11.1950 C.ar    1  UNL1        0.0430
      6  C         18.2220  -20.8690  -11.5620 C.2     1  UNL1        0.0310
      7  C         17.0380  -21.3450  -10.9900 C.2     1  UNL1        0.0110
      8  C         17.0420  -22.4130  -10.0860 C.2     1  UNL1       -0.0400
      9  C         18.2620  -23.0160   -9.7280 C.2     1  UNL1        0.0230
     10  C         19.4700  -22.5560  -10.2950 C.ar    1  UNL1       -0.0010
     11  H         20.9700  -20.5030  -12.2240 H       1  UNL1        0.1660
     12  C         15.7500  -22.8800   -9.4650 C.3     1  UNL1        0.1610
     13  N         16.0070  -23.6310   -8.2560 N.am    1  UNL1       -0.3560
     14  C         15.5300  -23.2150   -7.0310 C.2     1  UNL1        0.2220
     15  O         14.7670  -22.2640   -6.8980 O.2     1  UNL1       -0.2730
     16  H         16.8000  -24.2580   -8.2720 H       1  UNL1        0.1620
     17  C         16.0460  -24.0530   -5.8600 C.3     1  UNL1        0.0810
     18  C         17.5660  -24.2270   -5.8990 C.3     1  UNL1        0.0440
     19  C         18.3240  -22.9680   -5.4650 C.3     1  UNL1        0.2730
     20  N         17.8660  -22.4780   -4.1540 N.3     1  UNL1        0.0900
     21  C         16.4220  -22.2020   -4.1760 C.3     1  UNL1        0.2730
     22  C         15.6220  -23.4600   -4.5140 C.3     1  UNL1        0.0440
     23  C         18.5950  -21.2600   -3.7320 C.3     1  UNL1        0.2980
     24  C         18.8400  -20.2200   -4.8420 C.3     1  UNL1        0.1940
     25  O         20.1980  -20.1830   -5.2730 O.3     1  UNL1       -0.3990
     26  H         20.5890  -19.3530   -4.9520 H       1  UNL1        0.2090
     27  C         23.0320  -22.0610  -11.3040 C.2     1  UNL1        0.0300
     28  C         23.5090  -22.4130  -12.5750 C.2     1  UNL1        0.0170
     29  C         24.8770  -22.3580  -12.8690 C.2     1  UNL1        0.0010
     30  C         25.7880  -21.9440  -11.9000 C.2     1  UNL1        0.0030
     31  C         25.3320  -21.5770  -10.6370 C.2     1  UNL1        0.0430
     32  C         23.9680  -21.6330  -10.3500 C.2     1  UNL1        0.1280
     33  F         23.5660  -21.2530   -9.1270 F       1  UNL1       -0.2050
@<TRIPOS>BOND
     1    29    28    1
     2    29    30    2
     3    28    27    2
     4    11     4    1
     5    30    31    1
     6     4     5   ar
     7     4     3   ar
     8     6     5    2
     9     6     7    1
    10    27     3    1
    11    27    32    1
    12     5    10   ar
    13     3     2   ar
    14     7     8    2
    15    31    32    2
    16    32    33    1
    17    10     2   ar
    18    10     9    2
    19     2     1    1
    20     8     9    1
    21     8    12    1
    22    12    13    1
    23    16    13    1
    24    13    14   am
    25    14    15    2
    26    14    17    1
    27    18    17    1
    28    18    19    1
    29    17    22    1
    30    19    20    1
    31    25    26    1
    32    25    24    1
    33    24    23    1
    34    22    21    1
    35    21    20    1
    36    20    23    1
