@<TRIPOS>MOLECULE
4737_out_ligand_01.pdbqt
 29 32 0 0 0
SMALL
GASTEIGER

@<TRIPOS>ATOM
      1  C         18.9630  -22.8270   -9.5620 C.2     1  UNL1        0.0340
      2  C         18.0420  -22.0610  -10.2820 C.2     1  UNL1        0.0170
      3  C         18.4670  -21.3360  -11.3950 C.2     1  UNL1        0.0030
      4  C         19.8060  -21.3790  -11.7950 C.2     1  UNL1        0.0290
      5  C         20.7340  -22.1470  -11.0900 C.2     1  UNL1        0.0370
      6  C         20.3020  -22.8780   -9.9770 C.2     1  UNL1        0.0460
      7  N         22.0910  -22.2640  -11.4490 N.am    1  UNL1       -0.3090
      8  C         23.1850  -21.6960  -10.8290 C.2     1  UNL1        0.3270
      9  O         23.1450  -21.1280   -9.7390 O.2     1  UNL1       -0.2460
     10  N         24.3990  -21.9180  -11.4960 N.am    1  UNL1       -0.2960
     11  C         25.6220  -21.8750  -10.6910 C.3     1  UNL1        0.1440
     12  C         24.5790  -22.0210  -12.9190 C.2     1  UNL1        0.0740
     13  C         26.4550  -23.1290  -10.8810 C.3     1  UNL1        0.1010
     14  S         27.1210  -23.2150  -12.5620 S.3     1  UNL1       -0.1060
     15  C         25.7410  -22.5710  -13.4930 C.2     1  UNL1        0.1200
     16  N         25.9300  -22.6700  -14.8350 N.2     1  UNL1       -0.2520
     17  C         24.9680  -22.1950  -15.6490 C.2     1  UNL1        0.1180
     18  C         23.8100  -21.6050  -15.1890 C.2     1  UNL1        0.0220
     19  C         23.6230  -21.5100  -13.8110 C.2     1  UNL1        0.0340
     20  H         22.3130  -22.9660  -12.1420 H       1  UNL1        0.1700
     21  C         18.5650  -23.6320   -8.3750 C.2     1  UNL1        0.2520
     22  O         19.2820  -24.5490   -7.9900 O.2     1  UNL1       -0.2680
     23  N         17.3960  -23.2570   -7.7450 N.am    1  UNL1       -0.3520
     24  H         17.0140  -22.3450   -7.9560 H       1  UNL1        0.1630
     25  C         16.9770  -23.8940   -6.5030 C.3     1  UNL1        0.0840
     26  C         15.4560  -23.8790   -6.3710 C.3     1  UNL1        0.0250
     27  C         15.1650  -22.5380   -5.7160 C.3     1  UNL1        0.0020
     28  C         16.2710  -22.4060   -4.6800 C.3     1  UNL1        0.0020
     29  C         17.4860  -23.1190   -5.2790 C.3     1  UNL1        0.0250
@<TRIPOS>BOND
     1    17    18    2
     2    17    16    1
     3    18    19    1
     4    16    15    2
     5    19    12    2
     6    15    12    1
     7    15    14    1
     8    12    10    1
     9    14    13    1
    10    20     7    1
    11     4     3    2
    12     4     5    1
    13    10     8   am
    14    10    11    1
    15     7     5    1
    16     7     8   am
    17     3     2    1
    18     5     6    2
    19    13    11    1
    20     8     9    2
    21     2     1    2
    22     6     1    1
    23     1    21    1
    24    21    22    2
    25    21    23   am
    26    24    23    1
    27    23    25    1
    28    25    26    1
    29    25    29    1
    30    26    27    1
    31    27    28    1
    32    29    28    1
