@<TRIPOS>MOLECULE
47405_out_ligand_01.pdbqt
 34 37 0 0 0
SMALL
GASTEIGER

@<TRIPOS>ATOM
      1  C         21.4700  -23.9820   -9.2480 C.3     1  UNL1        0.0510
      2  C         20.9630  -22.9170  -10.1550 C.ar    1  UNL1       -0.0220
      3  C         21.7160  -22.1290  -11.0210 C.ar    1  UNL1        0.0520
      4  N         20.8350  -21.2750  -11.6480 N.ar    1  UNL1       -0.3540
      5  C         19.5420  -21.4990  -11.2370 C.ar    1  UNL1        0.0430
      6  C         18.3490  -20.8800  -11.6370 C.2     1  UNL1        0.0310
      7  C         17.1600  -21.3350  -11.0590 C.2     1  UNL1        0.0110
      8  C         17.1550  -22.3620  -10.1030 C.2     1  UNL1       -0.0400
      9  C         18.3710  -22.9620   -9.7230 C.2     1  UNL1        0.0230
     10  C         19.5870  -22.5260  -10.2990 C.ar    1  UNL1       -0.0010
     11  H         21.0960  -20.5990  -12.3520 H       1  UNL1        0.1660
     12  C         15.8500  -22.8380   -9.5200 C.3     1  UNL1        0.1610
     13  N         15.8490  -22.7030   -8.0780 N.am    1  UNL1       -0.3570
     14  C         15.8410  -23.8030   -7.2480 C.2     1  UNL1        0.2180
     15  O         15.8580  -24.9600   -7.6540 O.2     1  UNL1       -0.2740
     16  H         15.9700  -21.7770   -7.6880 H       1  UNL1        0.1620
     17  C         15.8170  -23.4340   -5.7810 C.3     1  UNL1        0.1100
     18  C         17.1570  -23.7360   -5.1220 C.3     1  UNL1        0.0920
     19  C         17.8310  -22.4940   -4.6750 C.ar    1  UNL1        0.1660
     20  N         17.8530  -22.1000   -3.3940 N.ar    1  UNL1       -0.1440
     21  N         18.5710  -20.9680   -3.4840 N.ar    1  UNL1       -0.1060
     22  C         18.9540  -20.7200   -4.7740 C.ar    1  UNL1        0.7160
     23  H         18.7760  -20.4340   -2.6470 H       1  UNL1        0.2080
     24  N         18.5120  -21.6790   -5.5460 N.ar    1  UNL1       -0.0460
     25  N         19.6840  -19.6480   -5.1220 N.pl3   1  UNL1       -0.2310
     26  H         20.6860  -19.7390   -5.2730 H       1  UNL1        0.1740
     27  H         19.4490  -18.7960   -4.6120 H       1  UNL1        0.1740
     28  C         23.1480  -22.1090  -11.3320 C.2     1  UNL1        0.0300
     29  C         23.6010  -22.5780  -12.5750 C.2     1  UNL1        0.0170
     30  C         24.9690  -22.5960  -12.8740 C.2     1  UNL1        0.0010
     31  C         25.8990  -22.1430  -11.9360 C.2     1  UNL1        0.0030
     32  C         25.4610  -21.6690  -10.7020 C.2     1  UNL1        0.0430
     33  C         24.0980  -21.6520  -10.4070 C.2     1  UNL1        0.1280
     34  F         23.7210  -21.2070   -9.1980 F       1  UNL1       -0.2050
@<TRIPOS>BOND
     1    30    29    1
     2    30    31    2
     3    29    28    2
     4    11     4    1
     5    31    32    1
     6     4     5   ar
     7     4     3   ar
     8     6     5    2
     9     6     7    1
    10    28     3    1
    11    28    33    1
    12     5    10   ar
    13     7     8    2
    14     3     2   ar
    15    32    33    2
    16    33    34    1
    17    10     2   ar
    18    10     9    2
    19     2     1    1
    20     8     9    1
    21     8    12    1
    22    12    13    1
    23    13    16    1
    24    13    14   am
    25    15    14    2
    26    14    17    1
    27    17    18    1
    28    24    22   ar
    29    24    19   ar
    30    26    25    1
    31    25    22    1
    32    25    27    1
    33    18    19    1
    34    22    21   ar
    35    19    20   ar
    36    21    20   ar
    37    21    23    1
