@<TRIPOS>MOLECULE
47413_out_ligand_01.pdbqt
 30 32 0 0 0
SMALL
GASTEIGER

@<TRIPOS>ATOM
      1  C         17.0940  -22.3640   -9.9600 C.2     1  UNL1       -0.0400
      2  C         17.1220  -21.3630  -10.9380 C.2     1  UNL1        0.0110
      3  C         18.3180  -20.9710  -11.5480 C.2     1  UNL1        0.0310
      4  C         19.4920  -21.6150  -11.1440 C.ar    1  UNL1        0.0430
      5  N         20.7860  -21.4340  -11.5630 N.ar    1  UNL1       -0.3540
      6  C         21.6440  -22.2910  -10.9090 C.ar    1  UNL1        0.0500
      7  C         20.8750  -23.0390  -10.0250 C.ar    1  UNL1       -0.0220
      8  C         21.3630  -24.0880   -9.0860 C.3     1  UNL1        0.0510
      9  C         19.5130  -22.6140  -10.1760 C.ar    1  UNL1       -0.0010
     10  C         18.2930  -22.9910   -9.5740 C.2     1  UNL1        0.0230
     11  H         21.0670  -20.7780  -12.2780 H       1  UNL1        0.1660
     12  C         15.7900  -22.7440   -9.3060 C.3     1  UNL1        0.1610
     13  N         15.9250  -22.7330   -7.8660 N.am    1  UNL1       -0.3550
     14  C         15.9530  -23.8940   -7.1270 C.2     1  UNL1        0.2400
     15  O         16.0040  -25.0170   -7.6310 O.2     1  UNL1       -0.2710
     16  H         15.7200  -21.8600   -7.3960 H       1  UNL1        0.1620
     17  C         15.9930  -23.6780   -5.6010 C.3     1  UNL1        0.1720
     18  C         14.5750  -23.5770   -5.0570 C.3     1  UNL1        0.0420
     19  N         16.7310  -22.4480   -5.3330 N.am    1  UNL1       -0.3480
     20  C         17.6940  -22.4250   -4.3480 C.2     1  UNL1        0.2140
     21  C         18.5510  -21.1880   -4.3590 C.3     1  UNL1        0.1170
     22  O         17.8530  -23.3240   -3.5290 O.2     1  UNL1       -0.2740
     23  H         16.9370  -21.8950   -6.1580 H       1  UNL1        0.1630
     24  C         23.0750  -22.3120  -11.2000 C.2     1  UNL1       -0.0090
     25  C         23.9660  -21.5460  -10.4350 C.2     1  UNL1        0.0170
     26  C         25.3340  -21.5640  -10.7160 C.2     1  UNL1        0.0430
     27  C         25.8090  -22.3480  -11.7610 C.2     1  UNL1        0.1160
     28  F         27.1210  -22.3650  -12.0290 F       1  UNL1       -0.2060
     29  C         24.9410  -23.1130  -12.5300 C.2     1  UNL1        0.0430
     30  C         23.5730  -23.0960  -12.2490 C.2     1  UNL1        0.0170
@<TRIPOS>BOND
     1    29    30    1
     2    29    27    2
     3    11     5    1
     4    30    24    2
     5    28    27    1
     6    27    26    1
     7     5     4   ar
     8     5     6   ar
     9     3     4    2
    10     3     2    1
    11    24     6    1
    12    24    25    1
    13     4     9   ar
    14     2     1    2
    15     6     7   ar
    16    26    25    2
    17     9     7   ar
    18     9    10    2
    19     7     8    1
    20     1    10    1
    21     1    12    1
    22    12    13    1
    23    13    16    1
    24    13    14   am
    25    15    14    2
    26    14    17    1
    27    23    19    1
    28    17    19    1
    29    17    18    1
    30    19    20   am
    31    21    20    1
    32    20    22    2
