@<TRIPOS>MOLECULE
4742_out_ligand_01.pdbqt
 29 32 0 0 0
SMALL
GASTEIGER

@<TRIPOS>ATOM
      1  C         20.1090  -21.8020  -11.6060 C.2     1  UNL1        0.0350
      2  C         19.8780  -22.7760  -10.6330 C.2     1  UNL1        0.0300
      3  C         18.6190  -22.8960  -10.0320 C.2     1  UNL1        0.0090
      4  C         17.5710  -22.0430  -10.3950 C.2     1  UNL1       -0.0580
      5  C         17.8070  -21.0610  -11.3630 C.2     1  UNL1        0.0090
      6  C         19.0650  -20.9400  -11.9600 C.2     1  UNL1        0.0300
      7  C         16.1990  -22.2020   -9.7820 C.3     1  UNL1        0.0460
      8  C         16.0070  -23.5480   -9.0770 C.3     1  UNL1        0.0830
      9  C         16.1870  -23.4460   -7.5990 C.ar    1  UNL1        0.1050
     10  N         17.1520  -23.9850   -6.8830 N.ar    1  UNL1       -0.2330
     11  C         16.9060  -23.6040   -5.5870 C.ar    1  UNL1        0.0850
     12  C         17.6210  -23.8930   -4.4150 C.2     1  UNL1        0.0340
     13  C         15.7650  -22.8140   -5.5090 C.ar    1  UNL1        0.0620
     14  C         17.1570  -23.3710   -3.2000 C.2     1  UNL1        0.0020
     15  C         16.0070  -22.5800   -3.1530 C.2     1  UNL1        0.0020
     16  C         15.2810  -22.2810   -4.3120 C.2     1  UNL1        0.0320
     17  N         15.3230  -22.7330   -6.8020 N.ar    1  UNL1       -0.3430
     18  H         14.5240  -22.2070   -7.1280 H       1  UNL1        0.1670
     19  N         21.3490  -21.6150  -12.2540 N.am    1  UNL1       -0.3230
     20  C         22.5650  -22.1740  -11.9080 C.2     1  UNL1        0.2560
     21  O         22.7700  -23.0040  -11.0310 O.2     1  UNL1       -0.2670
     22  H         21.3170  -21.0680  -13.1040 H       1  UNL1        0.1690
     23  C         23.7190  -21.7320  -12.7430 C.2     1  UNL1        0.0320
     24  C         23.4570  -21.1770  -14.0050 C.2     1  UNL1        0.0200
     25  C         24.5110  -20.7550  -14.8180 C.2     1  UNL1        0.0430
     26  C         25.8200  -20.9000  -14.3710 C.2     1  UNL1        0.1160
     27  F         26.8310  -20.4960  -15.1500 F       1  UNL1       -0.2060
     28  C         26.0970  -21.4650  -13.1300 C.2     1  UNL1        0.0430
     29  C         25.0460  -21.8890  -12.3120 C.2     1  UNL1        0.0200
@<TRIPOS>BOND
     1    27    26    1
     2    25    26    2
     3    25    24    1
     4    26    28    1
     5    24    23    2
     6    28    29    2
     7    22    19    1
     8    23    29    1
     9    23    20    1
    10    19    20   am
    11    19     1    1
    12     6     1    2
    13     6     5    1
    14    20    21    2
    15     1     2    1
    16     5     4    2
    17     2     3    2
    18     4     3    1
    19     4     7    1
    20     7     8    1
    21     8     9    1
    22     9    10   ar
    23     9    17   ar
    24    18    17    1
    25    10    11   ar
    26    17    13   ar
    27    11    13   ar
    28    11    12    1
    29    13    16    1
    30    12    14    2
    31    16    15    2
    32    14    15    1
