@<TRIPOS>MOLECULE
47422_out_ligand_01.pdbqt
 31 34 0 0 0
SMALL
GASTEIGER

@<TRIPOS>ATOM
      1  C         17.0440  -22.3800  -10.1190 C.2     1  UNL1       -0.0400
      2  C         17.0770  -21.4110  -11.1300 C.2     1  UNL1        0.0110
      3  C         18.2780  -21.0290  -11.7370 C.2     1  UNL1        0.0310
      4  C         19.4500  -21.6550  -11.3010 C.ar    1  UNL1        0.0430
      5  N         20.7500  -21.4800  -11.7100 N.ar    1  UNL1       -0.3540
      6  C         21.6040  -22.3000  -11.0090 C.ar    1  UNL1        0.0500
      7  C         20.8280  -23.0370  -10.1230 C.ar    1  UNL1       -0.0220
      8  C         21.3090  -24.0690   -9.1620 C.3     1  UNL1        0.0510
      9  C         19.4660  -22.6250  -10.3030 C.ar    1  UNL1       -0.0010
     10  C         18.2400  -22.9940   -9.7070 C.2     1  UNL1        0.0230
     11  H         21.0400  -20.8180  -12.4150 H       1  UNL1        0.1660
     12  C         15.7270  -22.7900   -9.5100 C.3     1  UNL1        0.1610
     13  N         15.7550  -22.6160   -8.0760 N.am    1  UNL1       -0.3510
     14  C         15.8960  -23.7010   -7.2270 C.2     1  UNL1        0.2710
     15  O         15.8720  -24.8590   -7.6360 O.2     1  UNL1       -0.2660
     16  H         16.0290  -21.7060   -7.7410 H       1  UNL1        0.1630
     17  C         16.0920  -23.3690   -5.8060 C.2     1  UNL1        0.1330
     18  N         17.0360  -22.4140   -5.4250 N.2     1  UNL1       -0.2190
     19  C         17.0720  -22.2610   -4.1250 C.2     1  UNL1        0.1660
     20  S         15.9690  -23.2620   -3.2610 S.3     1  UNL1       -0.0620
     21  C         15.4260  -23.9390   -4.7360 C.2     1  UNL1        0.0900
     22  N         17.9110  -21.3620   -3.5540 N.pl3   1  UNL1       -0.3730
     23  C         18.8760  -20.6350   -4.3460 C.3     1  UNL1        0.1480
     24  H         17.4360  -20.7930   -2.8580 H       1  UNL1        0.1610
     25  C         23.0470  -22.2820  -11.2430 C.2     1  UNL1       -0.0090
     26  C         23.6050  -23.0270  -12.2910 C.2     1  UNL1        0.0170
     27  C         24.9840  -23.0050  -12.5150 C.2     1  UNL1        0.0430
     28  C         25.8000  -22.2360  -11.6930 C.2     1  UNL1        0.1160
     29  F         27.1210  -22.2150  -11.9090 F       1  UNL1       -0.2060
     30  C         25.2640  -21.4900  -10.6510 C.2     1  UNL1        0.0430
     31  C         23.8860  -21.5130  -10.4250 C.2     1  UNL1        0.0170
@<TRIPOS>BOND
     1    27    26    1
     2    27    28    2
     3    11     5    1
     4    26    25    2
     5    29    28    1
     6     3     4    2
     7     3     2    1
     8     5     4   ar
     9     5     6   ar
    10    28    30    1
    11     4     9   ar
    12    25     6    1
    13    25    31    1
    14     2     1    2
    15     6     7   ar
    16    30    31    2
    17     9     7   ar
    18     9    10    2
    19     7     8    1
    20     1    10    1
    21     1    12    1
    22    12    13    1
    23    13    16    1
    24    13    14   am
    25    15    14    2
    26    14    17    1
    27    17    18    1
    28    17    21    2
    29    18    19    2
    30    21    20    1
    31    23    22    1
    32    19    22    1
    33    19    20    1
    34    22    24    1
