@<TRIPOS>MOLECULE
47430_out_ligand_01.pdbqt
 30 33 0 0 0
SMALL
GASTEIGER

@<TRIPOS>ATOM
      1  C         21.4070  -24.1440   -9.1150 C.3     1  UNL1        0.0510
      2  C         20.9970  -23.1030  -10.1010 C.ar    1  UNL1       -0.0220
      3  C         21.8130  -22.4020  -10.9860 C.ar    1  UNL1        0.0520
      4  N         20.9980  -21.5040  -11.6430 N.ar    1  UNL1       -0.3540
      5  C         19.6870  -21.6430  -11.2620 C.ar    1  UNL1        0.0430
      6  C         18.5440  -20.9620  -11.6960 C.2     1  UNL1        0.0310
      7  C         17.3200  -21.3180  -11.1200 C.2     1  UNL1        0.0110
      8  C         17.2380  -22.3100  -10.1360 C.2     1  UNL1       -0.0400
      9  C         18.4070  -22.9750   -9.7230 C.2     1  UNL1        0.0230
     10  C         19.6530  -22.6390  -10.2930 C.ar    1  UNL1       -0.0010
     11  H         21.3260  -20.8320  -12.3220 H       1  UNL1        0.1660
     12  C         15.9070  -22.7050   -9.5480 C.3     1  UNL1        0.1610
     13  N         15.9940  -22.7550   -8.1050 N.am    1  UNL1       -0.3540
     14  C         15.6920  -23.9060   -7.4000 C.2     1  UNL1        0.2520
     15  O         15.4990  -24.9830   -7.9620 O.2     1  UNL1       -0.2700
     16  H         15.9810  -21.8670   -7.6230 H       1  UNL1        0.1620
     17  C         15.6380  -23.7370   -5.8490 C.3     1  UNL1        0.1370
     18  C         14.3090  -24.3090   -5.3370 C.3     1  UNL1        0.0560
     19  C         15.7680  -22.2390   -5.4790 C.3     1  UNL1        0.0480
     20  C         16.4740  -22.0470   -4.1420 C.3     1  UNL1        0.0060
     21  C         17.8480  -22.7130   -4.1510 C.3     1  UNL1        0.0260
     22  C         17.9150  -23.8800   -5.1300 C.3     1  UNL1        0.1690
     23  O         16.6480  -24.5240   -5.1960 O.3     1  UNL1       -0.3710
     24  C         23.2550  -22.4720  -11.2680 C.2     1  UNL1        0.0300
     25  C         23.7330  -23.1690  -12.3880 C.2     1  UNL1        0.0170
     26  C         25.1040  -23.2360  -12.6610 C.2     1  UNL1        0.0010
     27  C         26.0190  -22.6000  -11.8240 C.2     1  UNL1        0.0030
     28  C         25.5630  -21.8910  -10.7170 C.2     1  UNL1        0.0430
     29  C         24.1950  -21.8280  -10.4500 C.2     1  UNL1        0.1280
     30  F         23.7950  -21.1190   -9.3810 F       1  UNL1       -0.2050
@<TRIPOS>BOND
     1    26    25    1
     2    26    27    2
     3    25    24    2
     4    11     4    1
     5    27    28    1
     6     6     5    2
     7     6     7    1
     8     4     5   ar
     9     4     3   ar
    10    24     3    1
    11    24    29    1
    12     5    10   ar
    13     7     8    2
    14     3     2   ar
    15    28    29    2
    16    29    30    1
    17    10     2   ar
    18    10     9    2
    19     8     9    1
    20     8    12    1
    21     2     1    1
    22    12    13    1
    23    13    16    1
    24    13    14   am
    25    15    14    2
    26    14    17    1
    27    17    19    1
    28    17    18    1
    29    17    23    1
    30    19    20    1
    31    23    22    1
    32    22    21    1
    33    21    20    1
