@<TRIPOS>MOLECULE
47480_out_ligand_01.pdbqt
 34 37 0 0 0
SMALL
GASTEIGER

@<TRIPOS>ATOM
      1  C         22.3470  -23.0390   -9.7400 C.2     1  UNL1        0.0970
      2  C         22.3220  -24.2030   -8.9260 C.2     1  UNL1        0.1600
      3  N         21.0890  -24.6210   -8.6180 N.2     1  UNL1       -0.1810
      4  N         20.3010  -23.7010   -9.2190 N.pl3   1  UNL1       -0.2410
      5  C         21.0080  -22.7670   -9.9330 C.2     1  UNL1        0.1430
      6  N         20.3310  -21.8350  -10.6410 N.pl3   1  UNL1       -0.3350
      7  CA        18.9510  -21.8370  -10.7550 C.3     1  UNL1        0.1060
      8  C         18.1930  -22.7260  -10.0850 C.2     1  UNL1        0.0410
      9  C         18.8240  -23.7490   -9.1540 C.2     1  UNL1        0.1600
     10  H         20.8130  -21.1460  -11.2300 H       1  UNL1        0.1680
     11  C         23.4570  -22.2780  -10.3040 C.2     1  UNL1        0.2610
     12  N         23.9090  -22.7530  -11.5240 N.am    1  UNL1       -0.3230
     13  H         23.4840  -23.5980  -11.8750 H       1  UNL1        0.1690
     14  O         23.9200  -21.3160   -9.7010 O.2     1  UNL1       -0.2670
     15  C         24.9410  -22.2260  -12.3300 C.2     1  UNL1        0.0360
     16  C         25.4500  -20.9320  -12.2080 C.2     1  UNL1        0.0360
     17  C         26.4760  -20.4780  -13.0520 C.2     1  UNL1       -0.0590
     18  C         27.0070  -21.3440  -14.0160 C.2     1  UNL1        0.0130
     19  C         27.0400  -19.0980  -12.8780 C.3     1  UNL1        0.0480
     20  C         26.5000  -22.6380  -14.1660 C.2     1  UNL1       -0.0590
     21  C         27.0870  -23.5700  -15.1830 C.3     1  UNL1        0.0480
     22  C         25.4740  -23.0710  -13.3140 C.2     1  UNL1        0.0360
     23  C         18.3480  -23.6460   -7.7160 C.2     1  UNL1        0.0050
     24  C         17.1250  -23.3070   -7.2690 C.2     1  UNL1        0.0100
     25  C         16.7650  -23.2210   -5.8470 C.2     1  UNL1       -0.0360
     26  C         15.5410  -22.6370   -5.4930 C.2     1  UNL1        0.0110
     27  C         15.1480  -22.5620   -4.1550 C.2     1  UNL1        0.0010
     28  C         15.9680  -23.0820   -3.1560 C.2     1  UNL1        0.0000
     29  C         17.1800  -23.6800   -3.4960 C.2     1  UNL1        0.0010
     30  C         17.5740  -23.7540   -4.8350 C.2     1  UNL1        0.0110
     31  C         18.2820  -20.8470  -11.6480 C.2     1  UNL1        0.1930
     32  O         17.0960  -20.5790  -11.6900 O.2     1  UNL1       -0.6450
     33  OXT       19.1770  -20.2400  -12.4530 O.3     1  UNL1       -0.7720
     34  HXT       18.6530  -19.9930  -13.2430 H       1  UNL1        0.1670
@<TRIPOS>BOND
     1    21    20    1
     2    20    18    2
     3    20    22    1
     4    18    17    1
     5    22    15    2
     6    34    33    1
     7    17    19    1
     8    17    16    2
     9    33    31    1
    10    15    16    1
    11    15    12    1
    12    13    12    1
    13    32    31    2
    14    31     7    1
    15    12    11   am
    16    10     6    1
    17     7     6    1
    18     7     8    1
    19     6     5    1
    20    11     1    1
    21    11    14    2
    22     8     9    2
    23     5     1    2
    24     5     4    1
    25     1     2    1
    26     4     9    1
    27     4     3    1
    28     9    23    1
    29     2     3    2
    30    23    24    2
    31    24    25    1
    32    25    26    2
    33    25    30    1
    34    26    27    1
    35    30    29    2
    36    27    28    2
    37    29    28    1
