@<TRIPOS>MOLECULE
474_out_ligand_01.pdbqt
 34 36 0 0 0
SMALL
GASTEIGER

@<TRIPOS>ATOM
      1  C         21.1910  -22.1180  -10.4770 C.2     1  UNL1        0.0800
      2  C         21.0890  -21.0500  -11.3710 C.2     1  UNL1        0.0260
      3  C         19.8270  -20.6130  -11.7780 C.2     1  UNL1        0.0090
      4  C         18.6620  -21.2470  -11.3160 C.2     1  UNL1       -0.0460
      5  C         17.3210  -20.7440  -11.7750 C.3     1  UNL1        0.0490
      6  C         18.7870  -22.3300  -10.4230 C.2     1  UNL1        0.0390
      7  C         20.0510  -22.7690  -10.0060 C.2     1  UNL1        0.0420
      8  C         17.5890  -23.0280   -9.8920 C.2     1  UNL1        0.2520
      9  O         17.2900  -24.1460  -10.2900 O.2     1  UNL1       -0.2680
     10  N         16.8940  -22.3310   -8.9280 N.am    1  UNL1       -0.3530
     11  H         17.3220  -21.5070   -8.5260 H       1  UNL1        0.1630
     12  C         15.8310  -22.9540   -8.1740 C.3     1  UNL1        0.1610
     13  C         16.0440  -22.7620   -6.6940 C.2     1  UNL1       -0.0400
     14  C         15.0780  -23.1800   -5.7690 C.2     1  UNL1        0.0090
     15  C         15.2640  -22.9610   -4.4040 C.2     1  UNL1        0.0010
     16  C         16.4170  -22.3200   -3.9500 C.2     1  UNL1        0.0160
     17  C         17.4010  -21.8940   -4.8550 C.2     1  UNL1        0.0480
     18  C         17.1980  -22.1150   -6.2260 C.2     1  UNL1        0.0250
     19  C         18.6340  -21.1850   -4.3560 C.3     1  UNL1        0.4170
     20  F         19.0850  -21.6460   -3.1570 F       1  UNL1       -0.1660
     21  F         19.6840  -21.2960   -5.2180 F       1  UNL1       -0.1660
     22  F         18.4370  -19.8460   -4.1860 F       1  UNL1       -0.1660
     23  S         22.7900  -22.6830   -9.9540 S.O2    1  UNL1        0.2630
     24  O         22.6260  -23.8510   -9.1170 O.2     1  UNL1       -0.2000
     25  O         23.5110  -21.5220   -9.4730 O.2     1  UNL1       -0.2000
     26  N         23.5230  -23.1210  -11.4120 N.pl3   1  UNL1       -0.2810
     27  H         22.8870  -23.6740  -11.9850 H       1  UNL1        0.1790
     28  C         24.3060  -22.1420  -12.0810 C.2     1  UNL1        0.0420
     29  C         25.4310  -21.6180  -11.4490 C.2     1  UNL1        0.0300
     30  C         26.1870  -20.6290  -12.0810 C.2     1  UNL1        0.0090
     31  C         25.8260  -20.1640  -13.3510 C.2     1  UNL1       -0.0620
     32  C         26.6190  -19.0770  -14.0150 C.3     1  UNL1        0.0480
     33  C         24.6830  -20.6860  -13.9680 C.2     1  UNL1        0.0090
     34  C         23.9240  -21.6740  -13.3360 C.2     1  UNL1        0.0300
@<TRIPOS>BOND
     1    32    31    1
     2    33    31    2
     3    33    34    1
     4    31    30    1
     5    34    28    2
     6    30    29    2
     7    28    29    1
     8    28    26    1
     9    27    26    1
    10     3     2    1
    11     3     4    2
    12     5     4    1
    13    26    23    1
    14     2     1    2
    15     4     6    1
    16     1     7    1
    17     1    23    1
    18     6     7    2
    19     6     8    1
    20     9     8    2
    21    23    25    2
    22    23    24    2
    23     8    10   am
    24    10    11    1
    25    10    12    1
    26    12    13    1
    27    13    18    2
    28    13    14    1
    29    18    17    1
    30    14    15    2
    31    21    19    1
    32    17    19    1
    33    17    16    2
    34    15    16    1
    35    19    22    1
    36    19    20    1
