@<TRIPOS>MOLECULE
47501_out_ligand_01.pdbqt
 35 39 0 0 0
SMALL
GASTEIGER

@<TRIPOS>ATOM
      1  C         22.6350  -22.1020  -11.8340 C.ar    1  UNL1        0.1020
      2  S         21.1650  -21.3890  -12.3630 S.2     1  UNL1       -0.0620
      3  C         20.2760  -22.1010  -11.1020 C.ar    1  UNL1        0.1110
      4  N         18.9510  -21.8770  -10.9960 N.2     1  UNL1       -0.2450
      5  C         18.3560  -22.4940   -9.9460 C.2     1  UNL1        0.0450
      6  C         19.0160  -23.3150   -9.0330 C.2     1  UNL1       -0.0040
      7  C         20.3960  -23.5030   -9.1840 C.2     1  UNL1        0.0270
      8  C         21.0590  -22.8820  -10.2640 C.ar    1  UNL1        0.0280
      9  C         22.4250  -22.8690  -10.6990 C.ar    1  UNL1        0.0620
     10  N         23.4140  -23.5380  -10.0590 N.pl3   1  UNL1       -0.3970
     11  C         18.2910  -23.9180   -7.8530 C.3     1  UNL1        0.3130
     12  N         16.8370  -23.9720   -8.0440 N.3     1  UNL1        0.0970
     13  C         16.3230  -22.6620   -8.4480 C.3     1  UNL1        0.2790
     14  C         16.8650  -22.2970   -9.8330 C.3     1  UNL1        0.0900
     15  H         23.2280  -24.2840   -9.3980 H       1  UNL1        0.1560
     16  H         24.3390  -23.6050  -10.4940 H       1  UNL1        0.1560
     17  C         23.8940  -21.8890  -12.5540 C.2     1  UNL1        0.2650
     18  N         23.7680  -21.1960  -13.7480 N.am    1  UNL1       -0.3220
     19  H         22.8250  -20.9160  -13.9880 H       1  UNL1        0.1690
     20  O         24.9630  -22.3080  -12.1130 O.2     1  UNL1       -0.2670
     21  C         24.7730  -20.8360  -14.6690 C.2     1  UNL1        0.0370
     22  C         25.6410  -19.7580  -14.5020 C.2     1  UNL1        0.0290
     23  C         26.6110  -19.4780  -15.4700 C.2     1  UNL1        0.0050
     24  C         26.7240  -20.2730  -16.6120 C.2     1  UNL1        0.0370
     25  C         25.8630  -21.3530  -16.7910 C.2     1  UNL1        0.0700
     26  C         24.8950  -21.6260  -15.8200 C.2     1  UNL1        0.0660
     27  O         25.8590  -22.2110  -17.8570 O.2     1  UNL1       -0.3560
     28  C         24.6680  -22.9580  -18.0780 C.3     1  UNL1        0.2100
     29  C         16.1220  -24.5710   -6.9090 C.3     1  UNL1        0.3110
     30  C         16.1560  -23.8170   -5.5970 C.2     1  UNL1       -0.0300
     31  C         17.2610  -23.9300   -4.7380 C.2     1  UNL1        0.0090
     32  C         17.2940  -23.2350   -3.5270 C.2     1  UNL1        0.0010
     33  C         16.2240  -22.4240   -3.1580 C.2     1  UNL1        0.0000
     34  C         15.1180  -22.3070   -3.9980 C.2     1  UNL1        0.0010
     35  C         15.0830  -23.0010   -5.2090 C.2     1  UNL1        0.0090
@<TRIPOS>BOND
     1    28    27    1
     2    27    25    1
     3    25    24    2
     4    25    26    1
     5    24    23    1
     6    26    21    2
     7    23    22    2
     8    21    22    1
     9    21    18    1
    10    19    18    1
    11    18    17   am
    12    17    20    2
    13    17     1    1
    14     2     1   ar
    15     2     3   ar
    16     1     9   ar
    17     3     4    2
    18     3     8   ar
    19     4     5    1
    20     9     8   ar
    21     9    10    1
    22    16    10    1
    23     8     7    2
    24    10    15    1
    25     5    14    1
    26     5     6    2
    27    14    13    1
    28     7     6    1
    29     6    11    1
    30    13    12    1
    31    12    11    1
    32    12    29    1
    33    29    30    1
    34    30    35    2
    35    30    31    1
    36    35    34    1
    37    31    32    2
    38    34    33    2
    39    32    33    1
