@<TRIPOS>MOLECULE
47516_out_ligand_01.pdbqt
 28 30 0 0 0
SMALL
GASTEIGER

@<TRIPOS>ATOM
      1  C         20.1280  -23.2340   -9.2970 C.2     1  UNL1        0.2800
      2  O         20.0740  -24.4020   -8.9250 O.2     1  UNL1       -0.2650
      3  N         19.4230  -22.1910   -8.7090 N.am    1  UNL1       -0.3210
      4  H         19.6850  -21.2610   -9.0010 H       1  UNL1        0.1690
      5  C         20.9920  -22.8080  -10.3900 C.ar    1  UNL1        0.1500
      6  O         22.2690  -23.3070  -10.3970 O.2     1  UNL1       -0.3040
      7  C         22.9140  -22.7840  -11.4670 C.ar    1  UNL1        0.0870
      8  C         24.2400  -23.0420  -11.8110 C.2     1  UNL1        0.0460
      9  C         22.0670  -21.9510  -12.1810 C.ar    1  UNL1        0.0080
     10  C         24.7430  -22.4090  -12.9620 C.2     1  UNL1       -0.0380
     11  C         26.1710  -22.6650  -13.3640 C.3     1  UNL1        0.0500
     12  C         23.9060  -21.5600  -13.7090 C.2     1  UNL1        0.0410
     13  C         22.5730  -21.3240  -13.3340 C.2     1  UNL1        0.0390
     14 CL         24.4800  -20.7610  -15.1320 Cl      1  UNL1       -0.0840
     15  C         20.8110  -21.9780  -11.4950 C.ar    1  UNL1       -0.0090
     16  C         19.5690  -21.2810  -11.9220 C.3     1  UNL1        0.0520
     17  C         18.4650  -22.2670   -7.6780 C.2     1  UNL1        0.0350
     18  C         17.1410  -22.5310   -8.0590 C.2     1  UNL1        0.0310
     19  C         16.1250  -22.6290   -7.1040 C.2     1  UNL1        0.0270
     20  C         16.4350  -22.4600   -5.7540 C.2     1  UNL1        0.0740
     21  C         17.7510  -22.2150   -5.3570 C.2     1  UNL1        0.0270
     22  C         18.7600  -22.1160   -6.3210 C.2     1  UNL1        0.0310
     23  S         15.1680  -22.6150   -4.5310 S.O2    1  UNL1        0.2390
     24  O         14.9010  -24.0150   -4.2980 O.2     1  UNL1       -0.2060
     25  O         14.1180  -21.6630   -4.8130 O.2     1  UNL1       -0.2060
     26  N         15.9420  -22.0500   -3.1530 N.3     1  UNL1       -0.2250
     27  H         15.8130  -21.0420   -3.0720 H       1  UNL1        0.1360
     28  H         16.9200  -22.3410   -3.1620 H       1  UNL1        0.1360
@<TRIPOS>BOND
     1    14    12    1
     2    12    13    2
     3    12    10    1
     4    11    10    1
     5    13     9    1
     6    10     8    2
     7     9    15   ar
     8     9     7   ar
     9    16    15    1
    10     8     7    1
    11    15     5   ar
    12     7     6   ar
    13     6     5   ar
    14     5     1    1
    15     1     2    2
    16     1     3   am
    17     4     3    1
    18     3    17    1
    19    18    17    2
    20    18    19    1
    21    17    22    1
    22    19    20    2
    23    22    21    2
    24    20    21    1
    25    20    23    1
    26    25    23    2
    27    23    24    2
    28    23    26    1
    29    28    26    1
    30    26    27    1
