@<TRIPOS>MOLECULE
47530_out_ligand_01.pdbqt
 34 37 0 0 0
SMALL
GASTEIGER

@<TRIPOS>ATOM
      1  C         24.3590  -21.6740  -12.2350 C.2     1  UNL1        0.0800
      2  C         24.5610  -21.7020  -10.8540 C.2     1  UNL1        0.0270
      3  C         23.4680  -21.8620   -9.9950 C.2     1  UNL1        0.0310
      4  C         22.1770  -22.0040  -10.5100 C.2     1  UNL1        0.0350
      5  C         21.9910  -21.9880  -11.9000 C.2     1  UNL1        0.0310
      6  C         23.0780  -21.8260  -12.7650 C.2     1  UNL1        0.0270
      7  N         21.0260  -22.1680   -9.7160 N.am    1  UNL1       -0.3210
      8  C         20.5680  -23.3130   -9.0880 C.2     1  UNL1        0.2800
      9  O         21.1170  -24.4100   -9.1210 O.2     1  UNL1       -0.2650
     10  H         20.4470  -21.3490   -9.5700 H       1  UNL1        0.1690
     11  C         19.3330  -23.0840   -8.3510 C.ar    1  UNL1        0.1500
     12  O         19.3780  -23.0810   -6.9790 O.2     1  UNL1       -0.3040
     13  C         18.1190  -22.8440   -6.5310 C.ar    1  UNL1        0.0870
     14  C         17.7460  -22.7600   -5.1900 C.2     1  UNL1        0.0460
     15  C         17.2450  -22.6970   -7.5980 C.ar    1  UNL1        0.0080
     16  C         16.3900  -22.5080   -4.9120 C.2     1  UNL1       -0.0380
     17  C         15.9510  -22.4090   -3.4760 C.3     1  UNL1        0.0500
     18  C         15.4800  -22.3530   -5.9730 C.2     1  UNL1        0.0410
     19 CL         13.8040  -22.0430   -5.6790 Cl      1  UNL1       -0.0840
     20  C         15.8900  -22.4440   -7.3140 C.2     1  UNL1        0.0390
     21  C         18.0320  -22.8530   -8.7800 C.ar    1  UNL1       -0.0090
     22  C         17.5670  -22.7810  -10.1900 C.3     1  UNL1        0.0520
     23  S         25.7560  -21.4900  -13.3160 S.O2    1  UNL1        0.2760
     24  O         26.6720  -20.5870  -12.6460 O.2     1  UNL1       -0.2000
     25  O         26.2090  -22.7980  -13.7400 O.2     1  UNL1       -0.2000
     26  N         25.1490  -20.6480  -14.6100 N.pl3   1  UNL1       -0.1090
     27  H         25.2910  -19.6460  -14.5550 H       1  UNL1        0.1980
     28  C         25.3700  -21.1670  -15.8790 C.cat   1  UNL1        0.7360
     29  N         26.5620  -21.0030  -16.4530 N.2     1  UNL1       -0.0740
     30  C         26.7420  -21.6710  -17.6040 C.2     1  UNL1        0.1380
     31  C         25.7990  -22.5080  -18.1530 C.2     1  UNL1        0.0470
     32  C         24.6210  -22.6460  -17.4430 C.2     1  UNL1        0.0510
     33  C         23.5360  -23.5490  -17.9460 C.3     1  UNL1        0.0710
     34  N         24.3990  -21.9920  -16.2840 N.2     1  UNL1       -0.0670
@<TRIPOS>BOND
     1    31    30    2
     2    31    32    1
     3    33    32    1
     4    30    29    1
     5    32    34    2
     6    29    28    2
     7    34    28    1
     8    28    26    1
     9    26    27    1
    10    26    23    1
    11    25    23    2
    12    23    24    2
    13    23     1    1
    14     6     1    2
    15     6     5    1
    16     1     2    1
    17     5     4    2
    18     2     3    2
    19     4     3    1
    20     4     7    1
    21    22    21    1
    22     7    10    1
    23     7     8   am
    24     9     8    2
    25     8    11    1
    26    21    11   ar
    27    21    15   ar
    28    11    12   ar
    29    15    20    1
    30    15    13   ar
    31    20    18    2
    32    12    13   ar
    33    13    14    1
    34    18    19    1
    35    18    16    1
    36    14    16    2
    37    16    17    1
