@<TRIPOS>MOLECULE
47536_out_ligand_01.pdbqt
 34 37 0 0 0
SMALL
GASTEIGER

@<TRIPOS>ATOM
      1  C         21.3290  -23.2010   -9.9510 C.2     1  UNL1        0.0340
      2  C         20.3280  -22.4460  -10.5670 C.2     1  UNL1        0.0310
      3  C         18.9940  -22.5530  -10.1520 C.2     1  UNL1        0.0270
      4  C         18.6610  -23.4310   -9.1220 C.2     1  UNL1        0.0750
      5  C         19.6480  -24.1910   -8.4930 C.2     1  UNL1        0.0270
      6  C         20.9760  -24.0770   -8.9130 C.2     1  UNL1        0.0310
      7  N         22.6950  -23.1380  -10.3010 N.am    1  UNL1       -0.3270
      8  C         23.5810  -22.0960  -10.0720 C.2     1  UNL1        0.2260
      9  O         23.3210  -21.0320   -9.5170 O.2     1  UNL1       -0.2730
     10  H         23.0640  -23.9510  -10.7740 H       1  UNL1        0.1690
     11  C         24.9870  -22.3890  -10.5830 C.3     1  UNL1        0.1440
     12  C         25.4180  -21.4020  -11.6120 C.2     1  UNL1       -0.0140
     13  C         25.1530  -21.4190  -13.0190 C.2     1  UNL1        0.0070
     14  C         24.4500  -22.2640  -13.8980 C.2     1  UNL1        0.0150
     15  C         25.7820  -20.2950  -13.5460 C.2     1  UNL1        0.0920
     16  C         24.4110  -21.9370  -15.2610 C.2     1  UNL1        0.0080
     17  C         25.0600  -20.7960  -15.7670 C.2     1  UNL1       -0.0530
     18  C         24.9690  -20.5030  -17.2430 C.3     1  UNL1        0.0490
     19  C         25.7730  -19.9290  -14.9020 C.2     1  UNL1       -0.0210
     20  C         26.4850  -18.7080  -15.4060 C.3     1  UNL1        0.0520
     21  O         26.4080  -19.6060  -12.5510 O.2     1  UNL1       -0.3210
     22  C         26.1780  -20.2710  -11.3930 C.2     1  UNL1        0.1510
     23  S         16.9770  -23.5470   -8.5620 S.O2    1  UNL1        0.2470
     24  O         16.9390  -24.4810   -7.4580 O.2     1  UNL1       -0.2050
     25  O         16.1500  -23.7100   -9.7360 O.2     1  UNL1       -0.2050
     26  N         16.7730  -21.9940   -7.8990 N.pl3   1  UNL1       -0.1580
     27  H         17.5310  -21.4240   -8.2830 H       1  UNL1        0.1480
     28  C         16.9330  -22.0150   -6.4440 C.ar    1  UNL1        0.1700
     29  O         15.9360  -22.3610   -5.5890 O.2     1  UNL1       -0.2000
     30  N         16.4060  -22.3180   -4.2920 N.ar    1  UNL1       -0.1310
     31  C         17.6900  -21.9550   -4.3850 C.ar    1  UNL1        0.0680
     32  C         18.5020  -21.8080   -3.1540 C.3     1  UNL1        0.0730
     33  C         18.0900  -21.7780   -5.7390 C.ar    1  UNL1        0.0130
     34  C         19.4270  -21.4110   -6.2560 C.3     1  UNL1        0.0540
@<TRIPOS>BOND
     1    18    17    1
     2    17    16    2
     3    17    19    1
     4    20    19    1
     5    16    14    1
     6    19    15    2
     7    14    13    2
     8    15    13    1
     9    15    21    1
    10    13    12    1
    11    21    22    1
    12    12    22    2
    13    12    11    1
    14    10     7    1
    15    11     8    1
    16     2     3    1
    17     2     1    2
    18     7     8   am
    19     7     1    1
    20     3     4    2
    21     8     9    2
    22     1     6    1
    23    25    23    2
    24     4    23    1
    25     4     5    1
    26     6     5    2
    27    23    26    1
    28    23    24    2
    29    27    26    1
    30    26    28    1
    31    28    33   ar
    32    28    29   ar
    33    34    33    1
    34    33    31   ar
    35    29    30   ar
    36    31    30   ar
    37    31    32    1
