@<TRIPOS>MOLECULE
47548_out_ligand_01.pdbqt
 30 33 0 0 0
SMALL
GASTEIGER

@<TRIPOS>ATOM
      1  C         18.2700  -22.5530  -10.1840 C.2     1  UNL1        0.1450
      2  N         17.8960  -21.5230  -10.9820 N.2     1  UNL1       -0.2230
      3  C         18.8310  -20.8380  -11.6620 C.2     1  UNL1        0.2370
      4  N         20.1550  -21.0360  -11.6650 N.2     1  UNL1       -0.2210
      5  C         20.5180  -22.0610  -10.8680 C.2     1  UNL1        0.1680
      6  C         19.6460  -22.8380  -10.1190 C.2     1  UNL1        0.0770
      7  C         20.4750  -23.7620   -9.4620 C.2     1  UNL1        0.1580
      8  N         21.7650  -23.6050   -9.7490 N.2     1  UNL1       -0.1770
      9  N         21.8010  -22.5520  -10.6220 N.pl3   1  UNL1       -0.2150
     10  N         17.3370  -23.2960   -9.4450 N.pl3   1  UNL1       -0.3400
     11  H         16.8190  -23.9650   -9.9970 H       1  UNL1        0.1670
     12  C         16.9640  -23.2770   -8.0890 C.2     1  UNL1        0.0330
     13  C         17.7010  -24.0590   -7.1830 C.2     1  UNL1        0.0300
     14  C         17.3950  -24.0780   -5.8170 C.2     1  UNL1        0.0190
     15  C         16.3470  -23.3000   -5.3210 C.2     1  UNL1        0.0320
     16  C         15.5980  -22.5240   -6.2090 C.2     1  UNL1        0.0190
     17  C         15.9110  -22.5130   -7.5760 C.2     1  UNL1        0.0300
     18  C         16.0580  -23.3490   -3.8630 C.2     1  UNL1        0.2490
     19  N         16.1830  -22.1870   -3.1530 N.am    1  UNL1       -0.3660
     20  H         16.1080  -22.2760   -2.1480 H       1  UNL1        0.1590
     21  H         16.6970  -21.3940   -3.5090 H       1  UNL1        0.1590
     22  O         15.7540  -24.3950   -3.3020 O.2     1  UNL1       -0.2680
     23  C         23.0590  -22.1140  -11.1390 C.2     1  UNL1        0.0630
     24  C         24.0840  -21.6370  -10.3060 C.2     1  UNL1        0.0350
     25  C         25.3030  -21.2190  -10.8530 C.2     1  UNL1        0.0480
     26  C         25.5020  -21.2750  -12.2270 C.2     1  UNL1        0.1540
     27  F         26.6720  -20.8720  -12.7400 F       1  UNL1       -0.2030
     28  C         24.4960  -21.7460  -13.0590 C.2     1  UNL1        0.1570
     29  F         24.6880  -21.8010  -14.3840 F       1  UNL1       -0.2030
     30  C         23.2790  -22.1660  -12.5290 C.2     1  UNL1        0.0770
@<TRIPOS>BOND
     1    29    28    1
     2    28    30    1
     3    28    26    2
     4    27    26    1
     5    30    23    2
     6    26    25    1
     7     4     3    2
     8     4     5    1
     9     3     2    1
    10    23     9    1
    11    23    24    1
    12     2     1    2
    13     5     9    1
    14     5     6    2
    15    25    24    2
    16     9     8    1
    17     1     6    1
    18     1    10    1
    19     6     7    1
    20    11    10    1
    21     8     7    2
    22    10    12    1
    23    12    17    2
    24    12    13    1
    25    17    16    1
    26    13    14    2
    27    16    15    2
    28    14    15    1
    29    15    18    1
    30    18    22    2
    31    18    19   am
    32    21    19    1
    33    19    20    1
