@<TRIPOS>MOLECULE
47542_out_ligand_01.pdbqt
 27 29 0 0 0
SMALL
GASTEIGER

@<TRIPOS>ATOM
      1  C         20.9820  -24.1270   -8.7120 C.2     1  UNL1        0.2260
      2  O         20.6030  -25.2940   -8.7730 O.2     1  UNL1       -0.2730
      3  N         20.3700  -23.1020   -8.0070 N.am    1  UNL1       -0.3270
      4  H         20.7800  -22.1800   -8.1040 H       1  UNL1        0.1690
      5  C         19.1950  -23.1790   -7.2330 C.2     1  UNL1        0.0340
      6  C         18.9630  -22.1380   -6.3200 C.2     1  UNL1        0.0310
      7  C         17.8150  -22.1290   -5.5220 C.2     1  UNL1        0.0270
      8  C         16.8890  -23.1700   -5.6420 C.2     1  UNL1        0.0740
      9  C         17.1160  -24.2230   -6.5270 C.2     1  UNL1        0.0270
     10  C         18.2670  -24.2220   -7.3220 C.2     1  UNL1        0.0310
     11  S         15.4340  -23.1680   -4.6270 S.O2    1  UNL1        0.2390
     12  O         15.2680  -24.4860   -4.0610 O.2     1  UNL1       -0.2060
     13  O         14.3770  -22.4880   -5.3420 O.2     1  UNL1       -0.2060
     14  N         15.8940  -22.1290   -3.3850 N.3     1  UNL1       -0.2250
     15  H         15.7160  -22.5860   -2.4870 H       1  UNL1        0.1360
     16  H         15.4530  -21.2090   -3.4400 H       1  UNL1        0.1360
     17  C         22.2310  -23.6770   -9.4550 C.3     1  UNL1        0.1440
     18  C         21.9440  -22.8140  -10.6380 C.2     1  UNL1       -0.0140
     19  C         22.8450  -22.5390  -11.7160 C.2     1  UNL1        0.0060
     20  C         24.1630  -22.9120  -12.0480 C.2     1  UNL1        0.0150
     21  C         22.1570  -21.7100  -12.5930 C.2     1  UNL1        0.0860
     22  C         24.7230  -22.4290  -13.2430 C.2     1  UNL1        0.0070
     23  C         24.0040  -21.5820  -14.0990 C.2     1  UNL1       -0.0590
     24  C         24.6190  -21.1180  -15.3890 C.3     1  UNL1        0.0480
     25  C         22.6840  -21.2160  -13.7830 C.2     1  UNL1        0.0440
     26  O         20.9030  -21.4660  -12.1230 O.2     1  UNL1       -0.3210
     27  C         20.7770  -22.1420  -10.9540 C.2     1  UNL1        0.1510
@<TRIPOS>BOND
     1    24    23    1
     2    23    25    2
     3    23    22    1
     4    25    21    1
     5    22    20    2
     6    21    26    1
     7    21    19    2
     8    26    27    1
     9    20    19    1
    10    19    18    1
    11    27    18    2
    12    18    17    1
    13    17     1    1
    14     2     1    2
    15     1     3   am
    16     4     3    1
    17     3     5    1
    18    10     5    2
    19    10     9    1
    20     5     6    1
    21     9     8    2
    22     6     7    2
    23     8     7    1
    24     8    11    1
    25    13    11    2
    26    11    12    2
    27    11    14    1
    28    16    14    1
    29    14    15    1
