@<TRIPOS>MOLECULE
4754_out_ligand_01.pdbqt
 36 38 0 0 0
SMALL
GASTEIGER

@<TRIPOS>ATOM
      1  C         23.7950  -21.5520  -13.1590 C.2     1  UNL1        0.0870
      2  C         25.0610  -21.1310  -13.0200 C.2     1  UNL1        0.1180
      3  C         25.6560  -20.9820  -11.6830 C.2     1  UNL1        0.2720
      4  O         26.8320  -20.6510  -11.5800 O.2     1  UNL1       -0.2660
      5  N         24.8740  -21.2270  -10.5890 N.am    1  UNL1       -0.1850
      6  C         23.6530  -21.6150  -10.7680 C.2     1  UNL1        0.1730
      7  N         23.0430  -21.8220  -12.0070 N.pl3   1  UNL1       -0.3160
      8  S         22.7430  -21.9030   -9.2750 S.3     1  UNL1       -0.0820
      9  C         22.5570  -23.7100   -9.2930 C.3     1  UNL1        0.1850
     10  C         21.2300  -24.1290   -8.6770 C.2     1  UNL1        0.2310
     11  O         20.7820  -25.2580   -8.8700 O.2     1  UNL1       -0.2720
     12  N         20.6200  -23.1250   -7.9470 N.am    1  UNL1       -0.3270
     13  H         21.1550  -22.2590   -7.8570 H       1  UNL1        0.1690
     14  C         19.3920  -23.1680   -7.2610 C.2     1  UNL1        0.0340
     15  C         19.0500  -22.0390   -6.5020 C.2     1  UNL1        0.0310
     16  C         17.8540  -21.9970   -5.7810 C.2     1  UNL1        0.0270
     17  C         16.9900  -23.0910   -5.8240 C.2     1  UNL1        0.0740
     18  C         17.3210  -24.2270   -6.5650 C.2     1  UNL1        0.0270
     19  C         18.5190  -24.2590   -7.2870 C.2     1  UNL1        0.0310
     20  S         15.4720  -23.0600   -4.9110 S.O2    1  UNL1        0.2390
     21  O         15.2400  -24.3760   -4.3580 O.2     1  UNL1       -0.2060
     22  O         14.4800  -22.3600   -5.6920 O.2     1  UNL1       -0.2060
     23  N         15.8880  -22.0860   -3.6010 N.3     1  UNL1       -0.2250
     24  H         15.2630  -21.2910   -3.4710 H       1  UNL1        0.1360
     25  H         16.8630  -21.7950   -3.7020 H       1  UNL1        0.1360
     26  C         21.6190  -22.2170  -12.1170 C.3     1  UNL1        0.1370
     27  C         20.6650  -21.0110  -12.0680 C.3     1  UNL1        0.0590
     28  C         19.2940  -21.3390  -11.5240 C.2     1  UNL1       -0.0570
     29  C         19.0350  -22.6010  -10.9700 C.2     1  UNL1        0.0070
     30  C         17.7790  -22.8920  -10.4340 C.2     1  UNL1        0.0010
     31  C         16.7720  -21.9280  -10.4490 C.2     1  UNL1        0.0000
     32  C         17.0190  -20.6730  -11.0010 C.2     1  UNL1        0.0010
     33  C         18.2740  -20.3780  -11.5370 C.2     1  UNL1        0.0070
     34  N         23.2840  -21.6980  -14.4380 N.pl3   1  UNL1       -0.2880
     35  H         23.9460  -21.3870  -15.1470 H       1  UNL1        0.1250
     36  H         22.3990  -21.2160  -14.5830 H       1  UNL1        0.1250
@<TRIPOS>BOND
     1    35    34    1
     2    36    34    1
     3    34     1    1
     4     1     2    2
     5     1     7    1
     6     2     3    1
     7    26    27    1
     8    26     7    1
     9    27    28    1
    10     7     6    1
    11     3     4    2
    12     3     5    1
    13    33    28    2
    14    33    32    1
    15    28    29    1
    16    32    31    2
    17    29    30    2
    18     6     5    2
    19     6     8    1
    20    31    30    1
    21     9     8    1
    22     9    10    1
    23    11    10    2
    24    10    12   am
    25    12    13    1
    26    12    14    1
    27    19    14    2
    28    19    18    1
    29    14    15    1
    30    18    17    2
    31    15    16    2
    32    17    16    1
    33    17    20    1
    34    22    20    2
    35    20    21    2
    36    20    23    1
    37    25    23    1
    38    23    24    1
