@<TRIPOS>MOLECULE
47545_out_ligand_01.pdbqt
 27 29 0 0 0
SMALL
GASTEIGER

@<TRIPOS>ATOM
      1  C         20.0610  -23.2630   -9.3870 C.2     1  UNL1        0.2800
      2  O         20.0610  -24.4350   -9.0280 O.2     1  UNL1       -0.2650
      3  N         19.3010  -22.2540   -8.8200 N.am    1  UNL1       -0.3210
      4  H         19.4400  -21.3400   -9.2410 H       1  UNL1        0.1690
      5  C         18.3820  -22.3380   -7.7580 C.2     1  UNL1        0.0350
      6  C         17.0280  -22.4740   -8.0970 C.2     1  UNL1        0.0310
      7  C         16.0480  -22.5620   -7.1060 C.2     1  UNL1        0.0270
      8  C         16.4240  -22.5080   -5.7640 C.2     1  UNL1        0.0740
      9  C         17.7680  -22.3890   -5.4080 C.2     1  UNL1        0.0270
     10  C         18.7420  -22.2980   -6.4080 C.2     1  UNL1        0.0310
     11  S         15.1840  -22.6270   -4.5020 S.O2    1  UNL1        0.2390
     12  O         14.9210  -24.0240   -4.2450 O.2     1  UNL1       -0.2060
     13  O         14.1370  -21.6790   -4.7970 O.2     1  UNL1       -0.2060
     14  N         16.0250  -22.0660   -3.1550 N.3     1  UNL1       -0.2250
     15  H         16.6850  -22.7460   -2.7780 H       1  UNL1        0.1360
     16  H         15.3520  -21.7600   -2.4500 H       1  UNL1        0.1360
     17  C         20.8910  -22.7820  -10.4820 C.ar    1  UNL1        0.1500
     18  C         20.6210  -21.9100  -11.5300 C.ar    1  UNL1       -0.0090
     19  C         21.8270  -21.8210  -12.2920 C.ar    1  UNL1        0.0070
     20  C         19.3340  -21.2150  -11.7920 C.3     1  UNL1        0.0520
     21  C         22.2420  -21.1310  -13.4450 C.2     1  UNL1        0.0150
     22  C         22.7460  -22.6440  -11.6580 C.ar    1  UNL1        0.0870
     23  C         23.5560  -21.3050  -13.9060 C.2     1  UNL1        0.0070
     24  C         24.4550  -22.1570  -13.2490 C.2     1  UNL1       -0.0590
     25  C         25.8640  -22.2930  -13.7510 C.3     1  UNL1        0.0480
     26  C         24.0580  -22.8390  -12.0880 C.2     1  UNL1        0.0440
     27  O         22.1870  -23.2260  -10.5650 O.2     1  UNL1       -0.3040
@<TRIPOS>BOND
     1    23    21    1
     2    23    24    2
     3    25    24    1
     4    21    19    2
     5    24    26    1
     6    19    22   ar
     7    19    18   ar
     8    26    22    2
     9    20    18    1
    10    22    27   ar
    11    18    17   ar
    12    27    17   ar
    13    17     1    1
    14     1     2    2
    15     1     3   am
    16     4     3    1
    17     3     5    1
    18     6     5    2
    19     6     7    1
    20     5    10    1
    21     7     8    2
    22    10     9    2
    23     8     9    1
    24     8    11    1
    25    13    11    2
    26    11    12    2
    27    11    14    1
    28    14    15    1
    29    14    16    1
