@<TRIPOS>MOLECULE
47559_out_ligand_01.pdbqt
 34 37 0 0 0
SMALL
GASTEIGER

@<TRIPOS>ATOM
      1  C         21.2220  -23.3980   -8.8260 C.2     1  UNL1        0.0340
      2  C         21.1380  -22.2560   -8.0170 C.2     1  UNL1        0.0310
      3  C         20.1260  -22.1260   -7.0600 C.2     1  UNL1        0.0270
      4  C         19.1950  -23.1520   -6.9030 C.2     1  UNL1        0.0750
      5  C         19.2540  -24.2910   -7.7110 C.2     1  UNL1        0.0270
      6  C         20.2730  -24.4130   -8.6640 C.2     1  UNL1        0.0310
      7  N         22.2740  -23.4460   -9.7630 N.am    1  UNL1       -0.3270
      8  C         22.3280  -22.8380  -11.0070 C.2     1  UNL1        0.2260
      9  O         21.4370  -22.1640  -11.5180 O.2     1  UNL1       -0.2730
     10  H         23.1170  -23.9150   -9.4510 H       1  UNL1        0.1690
     11  C         23.6160  -23.1110  -11.7780 C.3     1  UNL1        0.1440
     12  C         24.5820  -21.9730  -11.7780 C.2     1  UNL1       -0.0140
     13  C         25.1790  -21.4040  -10.6690 C.2     1  UNL1        0.1510
     14  O         25.9960  -20.3810  -11.0230 O.2     1  UNL1       -0.3210
     15  C         25.9480  -20.2830  -12.3790 C.2     1  UNL1        0.0850
     16  C         26.6370  -19.3480  -13.1450 C.2     1  UNL1        0.0390
     17  C         25.0950  -21.2490  -12.9020 C.2     1  UNL1        0.0070
     18  C         26.4360  -19.4030  -14.5290 C.2     1  UNL1        0.0090
     19  C         25.5960  -20.3650  -15.1120 C.2     1  UNL1       -0.0610
     20  C         25.3650  -20.3650  -16.5960 C.3     1  UNL1        0.0480
     21  C         24.9140  -21.2920  -14.3010 C.2     1  UNL1        0.0210
     22  S         17.8940  -22.9800   -5.7030 S.O2    1  UNL1        0.2470
     23  O         17.4020  -24.3110   -5.4150 O.2     1  UNL1       -0.2050
     24  O         18.3720  -22.1170   -4.6450 O.2     1  UNL1       -0.2050
     25  N         16.6810  -22.1890   -6.5500 N.pl3   1  UNL1       -0.1650
     26  H         15.8260  -22.1080   -6.0020 H       1  UNL1        0.1470
     27  C         16.4140  -22.6010   -7.8690 C.2     1  UNL1        0.1200
     28  C         15.7000  -23.7310   -8.1820 C.2     1  UNL1        0.0720
     29  C         15.5560  -23.9850   -9.5280 C.2     1  UNL1        0.0360
     30  C         14.7460  -25.1550  -10.0030 C.3     1  UNL1        0.0700
     31  N         16.0770  -23.1720  -10.4710 N.2     1  UNL1       -0.2390
     32  C         16.7720  -22.0990  -10.0510 C.2     1  UNL1        0.1240
     33  C         17.3710  -21.2070  -11.0910 C.3     1  UNL1        0.0930
     34  N         16.9770  -21.7810   -8.7620 N.2     1  UNL1       -0.2210
@<TRIPOS>BOND
     1    20    19    1
     2    19    18    2
     3    19    21    1
     4    18    16    1
     5    21    17    2
     6    16    15    2
     7    17    15    1
     8    17    12    1
     9    15    14    1
    10    12    11    1
    11    12    13    2
    12    11     8    1
    13     9     8    2
    14    33    32    1
    15    14    13    1
    16     8     7   am
    17    31    32    2
    18    31    29    1
    19    32    34    1
    20    30    29    1
    21     7    10    1
    22     7     1    1
    23    29    28    2
    24     1     6    2
    25     1     2    1
    26    34    27    2
    27     6     5    1
    28    28    27    1
    29     2     3    2
    30    27    25    1
    31     5     4    2
    32     3     4    1
    33     4    22    1
    34    25    26    1
    35    25    22    1
    36    22    23    2
    37    22    24    2
