@<TRIPOS>MOLECULE
4755_out_ligand_01.pdbqt
 34 37 0 0 0
SMALL
GASTEIGER

@<TRIPOS>ATOM
      1  C         21.1700  -22.6560   -8.9830 C.2     1  UNL1        0.0320
      2  C         20.8910  -22.8260  -10.3420 C.2     1  UNL1        0.0190
      3  C         21.8590  -22.5190  -11.3030 C.2     1  UNL1        0.0300
      4  C         23.1140  -22.0280  -10.9230 C.2     1  UNL1        0.0360
      5  C         23.3840  -21.8500   -9.5640 C.2     1  UNL1        0.0300
      6  C         22.4170  -22.1520   -8.5970 C.2     1  UNL1        0.0190
      7  N         24.0370  -21.7590  -11.9540 N.am    1  UNL1       -0.3090
      8  C         25.3420  -21.3280  -11.8360 C.2     1  UNL1        0.3270
      9  O         25.8650  -20.9910  -10.7760 O.2     1  UNL1       -0.2460
     10  N         26.0320  -21.2110  -13.0520 N.am    1  UNL1       -0.2960
     11  C         27.1040  -20.2150  -13.1230 C.3     1  UNL1        0.1440
     12  C         25.6150  -21.7520  -14.3080 C.2     1  UNL1        0.0800
     13  C         26.5950  -18.9460  -13.7820 C.3     1  UNL1        0.1010
     14  S         26.1470  -19.2430  -15.5200 S.3     1  UNL1       -0.1060
     15  C         25.6150  -20.9500  -15.4680 C.2     1  UNL1        0.1210
     16  N         25.1810  -21.3970  -16.6720 N.2     1  UNL1       -0.2440
     17  C         24.7570  -22.6730  -16.7720 C.2     1  UNL1        0.0320
     18  C         24.2820  -23.1360  -18.1170 C.3     1  UNL1        0.0700
     19  C         24.7790  -23.5480  -15.6960 C.2     1  UNL1        0.0350
     20  C         25.2410  -23.1040  -14.4490 C.2     1  UNL1       -0.0300
     21  C         25.3620  -24.1320  -13.3550 C.3     1  UNL1        0.0500
     22  H         23.6610  -21.7610  -12.8910 H       1  UNL1        0.1700
     23  C         20.1100  -22.9930   -7.9890 C.2     1  UNL1        0.2560
     24  N         19.7740  -21.9690   -7.1210 N.am    1  UNL1       -0.3230
     25  H         20.3510  -21.1390   -7.1450 H       1  UNL1        0.1690
     26  O         19.6620  -24.1340   -7.9860 O.2     1  UNL1       -0.2670
     27  C         18.7790  -21.9910   -6.1190 C.2     1  UNL1        0.0360
     28  C         19.0830  -21.3620   -4.9060 C.2     1  UNL1        0.0290
     29  C         18.1500  -21.3330   -3.8690 C.2     1  UNL1        0.0040
     30  C         16.9040  -21.9340   -4.0390 C.2     1  UNL1        0.0180
     31  C         16.5820  -22.5710   -5.2410 C.2     1  UNL1        0.0020
     32  C         17.5210  -22.5780   -6.2820 C.2     1  UNL1        0.0480
     33  S         14.9560  -23.3000   -5.3910 S.3     1  UNL1       -0.1340
     34  C         13.9340  -21.8380   -5.7190 C.3     1  UNL1        0.0950
@<TRIPOS>BOND
     1    18    17    1
     2    17    16    2
     3    17    19    1
     4    16    15    1
     5    19    20    2
     6    14    15    1
     7    14    13    1
     8    15    12    2
     9    20    12    1
    10    20    21    1
    11    12    10    1
    12    13    11    1
    13    11    10    1
    14    10     8   am
    15    22     7    1
    16     7     8   am
    17     7     4    1
    18     8     9    2
    19     3     4    2
    20     3     2    1
    21     4     5    1
    22     2     1    2
    23     5     6    2
    24     1     6    1
    25     1    23    1
    26    23    26    2
    27    23    24   am
    28    25    24    1
    29    24    27    1
    30    32    27    2
    31    32    31    1
    32    27    28    1
    33    34    33    1
    34    33    31    1
    35    31    30    2
    36    28    29    2
    37    30    29    1
