@<TRIPOS>MOLECULE
47554_out_ligand_01.pdbqt
 34 37 0 0 0
SMALL
GASTEIGER

@<TRIPOS>ATOM
      1  N         20.4120  -21.9350  -10.3630 N.am    1  UNL1       -0.3150
      2  C         19.7540  -23.1020  -10.0490 C.2     1  UNL1        0.2770
      3  O         20.2490  -24.2170   -9.9280 O.2     1  UNL1       -0.2660
      4  H         19.9890  -21.0500  -10.0990 H       1  UNL1        0.1700
      5  C         18.2970  -22.9250   -9.7840 C.2     1  UNL1        0.1500
      6  N         17.8650  -23.4810   -8.6130 N.2     1  UNL1       -0.2160
      7  C         16.5580  -23.3250   -8.3510 C.2     1  UNL1        0.1890
      8  N         15.6960  -22.6400   -9.1270 N.2     1  UNL1       -0.2340
      9  C         16.1870  -22.0890  -10.2640 C.2     1  UNL1        0.1460
     10  C         17.5010  -22.2050  -10.6580 C.2     1  UNL1        0.0860
     11 CL         18.0310  -21.4240  -12.0940 Cl      1  UNL1       -0.0800
     12  S         15.8590  -24.1620   -6.9670 S.3     1  UNL1       -0.0850
     13  C         17.3500  -24.4530   -5.9550 C.3     1  UNL1        0.1240
     14  C         17.8010  -23.2330   -5.1880 C.2     1  UNL1       -0.0100
     15  C         18.5810  -22.2420   -5.8100 C.2     1  UNL1        0.0110
     16  C         18.9650  -21.0950   -5.1010 C.2     1  UNL1        0.0010
     17  C         18.5800  -20.9300   -3.7770 C.2     1  UNL1        0.0030
     18  C         17.8130  -21.9100   -3.1540 C.2     1  UNL1        0.0430
     19  C         17.4310  -23.0450   -3.8580 C.2     1  UNL1        0.1230
     20  F         16.6980  -23.9730   -3.2350 F       1  UNL1       -0.2060
     21  C         21.6510  -21.8720  -10.9600 C.ar    1  UNL1        0.0930
     22  C         22.9580  -22.0630  -10.5380 C.ar    1  UNL1        0.0730
     23  C         23.8860  -21.8770  -11.6250 C.ar    1  UNL1       -0.0260
     24  C         23.2260  -21.6370  -12.8180 C.ar    1  UNL1       -0.0080
     25  C         25.3850  -22.0260  -11.5580 C.3     1  UNL1        0.0410
     26  S         21.5400  -21.5700  -12.6300 S.2     1  UNL1       -0.0750
     27  C         23.8930  -21.4640  -14.1440 C.3     1  UNL1        0.0470
     28  C         25.3260  -21.9870  -14.0950 C.3     1  UNL1        0.0050
     29  C         26.0650  -21.5060  -12.8340 C.3     1  UNL1        0.0050
     30  C         23.3770  -22.5070   -9.2120 C.2     1  UNL1        0.2520
     31  N         24.1650  -23.6250   -9.2120 N.am    1  UNL1       -0.3660
     32  H         24.7060  -23.7880  -10.0420 H       1  UNL1        0.1590
     33  H         24.6570  -23.7630   -8.3470 H       1  UNL1        0.1590
     34  O         23.0240  -21.9580   -8.1710 O.2     1  UNL1       -0.2680
@<TRIPOS>BOND
     1    27    28    1
     2    27    24    1
     3    28    29    1
     4    29    25    1
     5    24    26   ar
     6    24    23   ar
     7    26    21   ar
     8    11    10    1
     9    23    25    1
    10    23    22   ar
    11    21    22   ar
    12    21     1    1
    13    10     9    1
    14    10     5    2
    15    22    30    1
    16     1     4    1
    17     1     2   am
    18     9     8    2
    19     2     3    2
    20     2     5    1
    21    32    31    1
    22     5     6    1
    23    31    30   am
    24    31    33    1
    25    30    34    2
    26     8     7    1
    27     6     7    2
    28     7    12    1
    29    12    13    1
    30    13    14    1
    31    15    14    2
    32    15    16    1
    33    14    19    1
    34    16    17    2
    35    19    20    1
    36    19    18    2
    37    17    18    1
