@<TRIPOS>MOLECULE
47561_out_ligand_01.pdbqt
 27 29 0 0 0
SMALL
GASTEIGER

@<TRIPOS>ATOM
      1  C         20.0990  -23.3720   -9.2910 C.2     1  UNL1        0.2800
      2  O         20.0720  -24.5440   -8.9330 O.2     1  UNL1       -0.2650
      3  N         19.3460  -22.3490   -8.7400 N.am    1  UNL1       -0.3210
      4  H         19.5100  -21.4380   -9.1570 H       1  UNL1        0.1690
      5  C         18.4040  -22.4180   -7.6990 C.2     1  UNL1        0.0350
      6  C         17.0510  -22.4800   -8.0670 C.2     1  UNL1        0.0310
      7  C         16.0470  -22.5480   -7.0980 C.2     1  UNL1        0.0270
      8  C         16.3980  -22.5530   -5.7480 C.2     1  UNL1        0.0740
      9  C         17.7400  -22.5090   -5.3640 C.2     1  UNL1        0.0270
     10  C         18.7380  -22.4370   -6.3420 C.2     1  UNL1        0.0310
     11  S         15.1420  -22.6450   -4.5010 S.O2    1  UNL1        0.2390
     12  O         14.8400  -24.0340   -4.2600 O.2     1  UNL1       -0.2060
     13  O         14.1240  -21.6650   -4.8020 O.2     1  UNL1       -0.2060
     14  N         15.9580  -22.0440   -3.1540 N.3     1  UNL1       -0.2250
     15  H         15.8580  -21.0360   -3.0370 H       1  UNL1        0.1360
     16  H         15.6530  -22.5590   -2.3270 H       1  UNL1        0.1360
     17  C         20.9620  -22.9080  -10.3690 C.ar    1  UNL1        0.1500
     18  C         20.7150  -22.0780  -11.4560 C.ar    1  UNL1       -0.0090
     19  C         19.4230  -21.4250  -11.7910 C.3     1  UNL1        0.0520
     20  C         21.9470  -21.9840  -12.1740 C.ar    1  UNL1        0.0090
     21  C         22.3880  -21.3250  -13.3350 C.2     1  UNL1        0.0570
     22  C         22.8600  -22.7640  -11.4730 C.ar    1  UNL1        0.0870
     23  C         23.7200  -21.4880  -13.7260 C.2     1  UNL1        0.1170
     24  C         24.6100  -22.2770  -13.0020 C.2     1  UNL1        0.0450
     25  F         24.1530  -20.8660  -14.8320 F       1  UNL1       -0.2060
     26  C         24.1940  -22.9410  -11.8440 C.2     1  UNL1        0.0410
     27  O         22.2700  -23.3240  -10.3850 O.2     1  UNL1       -0.3040
@<TRIPOS>BOND
     1    25    23    1
     2    23    21    1
     3    23    24    2
     4    21    20    2
     5    24    26    1
     6    20    22   ar
     7    20    18   ar
     8    26    22    2
     9    19    18    1
    10    22    27   ar
    11    18    17   ar
    12    27    17   ar
    13    17     1    1
    14     1     2    2
    15     1     3   am
    16     4     3    1
    17     3     5    1
    18     6     5    2
    19     6     7    1
    20     5    10    1
    21     7     8    2
    22    10     9    2
    23     8     9    1
    24     8    11    1
    25    13    11    2
    26    11    12    2
    27    11    14    1
    28    14    15    1
    29    14    16    1
