@<TRIPOS>MOLECULE
47574_out_ligand_01.pdbqt
 38 42 0 0 0
SMALL
GASTEIGER

@<TRIPOS>ATOM
      1  N         20.0720  -22.8020   -9.2880 N.pl3   1  UNL1       -0.3460
      2  C         21.1810  -22.5570  -10.0580 C.2     1  UNL1        0.1040
      3  C         20.7710  -21.8750  -11.1800 C.2     1  UNL1       -0.0070
      4  C         19.3540  -21.7500  -11.1210 C.2     1  UNL1        0.0020
      5  C         18.3790  -21.1940  -11.9770 C.2     1  UNL1        0.0140
      6  C         17.0300  -21.2330  -11.6080 C.2     1  UNL1        0.0010
      7  C         16.6430  -21.8120  -10.4040 C.2     1  UNL1        0.0020
      8  C         17.5870  -22.3680   -9.5350 C.2     1  UNL1        0.0300
      9  C         18.9390  -22.3270   -9.9160 C.2     1  UNL1        0.0450
     10  C         21.6150  -21.4570  -12.2490 C.2     1  UNL1        0.0350
     11  C         22.8780  -21.8320  -12.5370 C.2     1  UNL1        0.0860
     12  C         23.5270  -21.1730  -13.7050 C.2     1  UNL1        0.2710
     13  C         23.7230  -22.7800  -11.8320 C.2     1  UNL1        0.1830
     14  O         22.8270  -20.5830  -14.5290 O.2     1  UNL1       -0.2660
     15  N         24.9160  -21.3260  -13.7830 N.am    1  UNL1       -0.2280
     16  C         25.6440  -22.0680  -12.8290 C.2     1  UNL1        0.3580
     17  O         26.8620  -21.9610  -12.6960 O.2     1  UNL1       -0.2440
     18  N         24.9820  -22.9190  -11.9810 N.am    1  UNL1       -0.1680
     19  C         25.6490  -20.6320  -14.8250 C.2     1  UNL1        0.0490
     20  C         26.0370  -21.3010  -16.0030 C.2     1  UNL1        0.0300
     21  C         26.7450  -20.6480  -17.0180 C.2     1  UNL1        0.0040
     22  C         27.0790  -19.3040  -16.8790 C.2     1  UNL1        0.0240
     23  C         26.7000  -18.6230  -15.7270 C.2     1  UNL1        0.0360
     24 CL         27.1150  -16.9610  -15.5480 Cl      1  UNL1       -0.0840
     25  C         25.9940  -19.2730  -14.7110 C.2     1  UNL1        0.0540
     26  O         23.1350  -23.6160  -10.9750 O.2     1  UNL1       -0.3440
     27  H         23.4840  -24.5100  -11.1360 H       1  UNL1        0.2190
     28  C         20.1000  -23.4930   -8.0060 C.3     1  UNL1        0.2310
     29  C         19.2390  -22.8580   -6.9240 C.2     1  UNL1        0.2400
     30  O         19.5510  -21.7500   -6.4860 O.2     1  UNL1       -0.2710
     31  N         18.1930  -23.6400   -6.4650 N.am    1  UNL1       -0.3260
     32  H         18.0170  -24.5110   -6.9560 H       1  UNL1        0.1690
     33  C         17.2700  -23.3380   -5.4410 C.2     1  UNL1        0.0340
     34  C         17.4050  -23.7480   -4.1140 C.2     1  UNL1        0.0290
     35  C         16.4360  -23.4060   -3.1630 C.2     1  UNL1        0.0020
     36  C         15.3240  -22.6540   -3.5320 C.2     1  UNL1        0.0000
     37  C         15.1790  -22.2400   -4.8530 C.2     1  UNL1        0.0020
     38  C         16.1470  -22.5800   -5.8020 C.2     1  UNL1        0.0290
@<TRIPOS>BOND
     1    21    22    2
     2    21    20    1
     3    22    23    1
     4    20    19    2
     5    23    24    1
     6    23    25    2
     7    19    25    1
     8    19    15    1
     9    14    12    2
    10    15    12   am
    11    15    16   am
    12    12    11    1
    13    16    17    2
    14    16    18    1
    15    11    10    2
    16    11    13    1
    17    10     3    1
    18    18    13    2
    19     5     6    1
    20     5     4    2
    21    13    26    1
    22     6     7    2
    23     3     4    1
    24     3     2    2
    25    27    26    1
    26     4     9    1
    27     7     8    1
    28     2     1    1
    29     9     8    2
    30     9     1    1
    31     1    28    1
    32    28    29    1
    33    32    31    1
    34    29    30    2
    35    29    31   am
    36    31    33    1
    37    38    33    2
    38    38    37    1
    39    33    34    1
    40    37    36    2
    41    34    35    2
    42    36    35    1
