@<TRIPOS>MOLECULE
4758_out_ligand_01.pdbqt
 31 34 0 0 0
SMALL
GASTEIGER

@<TRIPOS>ATOM
      1  N         21.2070  -22.5970  -10.5290 N.am    1  UNL1       -0.2850
      2  C         20.3320  -23.0970   -9.5460 C.2     1  UNL1        0.1180
      3  C         19.0220  -22.8060   -9.5270 C.2     1  UNL1        0.1180
      4  N         18.5010  -21.9780  -10.4980 N.ar    1  UNL1       -0.2860
      5  C         17.2350  -21.4920  -10.7340 C.ar    1  UNL1        0.1350
      6  N         17.2800  -20.6690  -11.7660 N.ar    1  UNL1       -0.1340
      7  N         18.5650  -20.6590  -12.2510 N.ar    1  UNL1       -0.1240
      8  C         19.2850  -21.4440  -11.4800 C.ar    1  UNL1        0.2260
      9  C         20.6980  -21.7500  -11.5880 C.2     1  UNL1        0.3000
     10  O         21.3690  -21.3420  -12.5350 O.2     1  UNL1       -0.2630
     11  C         16.0320  -21.8400   -9.9240 C.3     1  UNL1        0.0900
     12  C         15.8890  -23.3380   -9.6760 C.3     1  UNL1        0.1110
     13  C         16.0880  -23.7110   -8.2160 C.2     1  UNL1        0.2220
     14  O         16.3210  -24.8760   -7.9090 O.2     1  UNL1       -0.2730
     15  N         15.9690  -22.6450   -7.3520 N.am    1  UNL1       -0.3270
     16  H         15.6770  -21.7580   -7.7610 H       1  UNL1        0.1690
     17  C         16.1580  -22.6350   -5.9550 C.2     1  UNL1        0.0360
     18  C         15.1350  -23.1950   -5.1730 C.2     1  UNL1        0.0290
     19  C         15.2290  -23.2180   -3.7780 C.2     1  UNL1        0.0040
     20  C         16.3480  -22.6700   -3.1530 C.2     1  UNL1        0.0240
     21  C         17.3630  -22.1030   -3.9280 C.2     1  UNL1        0.0360
     22 CL         18.7320  -21.4040   -3.1530 Cl      1  UNL1       -0.0840
     23  C         17.2760  -22.0870   -5.3230 C.2     1  UNL1        0.0530
     24  C         22.6170  -22.9380  -10.4960 C.2     1  UNL1        0.0420
     25  C         23.2670  -23.2020   -9.2810 C.2     1  UNL1        0.0300
     26  C         24.6320  -23.5100   -9.2340 C.2     1  UNL1        0.0090
     27  C         25.3980  -23.5580  -10.4030 C.2     1  UNL1       -0.0560
     28  C         26.8580  -23.9050  -10.3150 C.3     1  UNL1        0.0490
     29  C         24.7680  -23.3190  -11.6350 C.2     1  UNL1       -0.0540
     30  C         23.3960  -22.9970  -11.6620 C.2     1  UNL1        0.0370
     31  C         25.5290  -23.3620  -12.9350 C.3     1  UNL1        0.0490
@<TRIPOS>BOND
     1    31    29    1
     2    10     9    2
     3     7     6   ar
     4     7     8   ar
     5     6     5   ar
     6    30    29    1
     7    30    24    2
     8    29    27    2
     9     9     8    1
    10     9     1   am
    11     8     4   ar
    12     5     4   ar
    13     5    11    1
    14     1    24    1
    15     1     2    1
    16     4     3    1
    17    24    25    1
    18    27    28    1
    19    27    26    1
    20    11    12    1
    21    12    13    1
    22     2     3    2
    23    25    26    2
    24    13    14    2
    25    13    15   am
    26    16    15    1
    27    15    17    1
    28    17    23    2
    29    17    18    1
    30    23    21    1
    31    18    19    2
    32    21    22    1
    33    21    20    2
    34    19    20    1
