@<TRIPOS>MOLECULE
47598_out_ligand_01.pdbqt
 29 32 0 0 0
SMALL
GASTEIGER

@<TRIPOS>ATOM
      1  C         21.4430  -22.2240  -11.4150 C.2     1  UNL1        0.0320
      2  C         20.5810  -21.4290  -12.1800 C.2     1  UNL1        0.0180
      3  C         19.2480  -21.2700  -11.7890 C.2     1  UNL1        0.0190
      4  C         18.7780  -21.8880  -10.6230 C.2     1  UNL1        0.0450
      5  C         19.6420  -22.6600   -9.8390 C.2     1  UNL1       -0.0380
      6  C         20.9740  -22.8320  -10.2410 C.2     1  UNL1        0.0250
      7  C         19.1070  -23.3210   -8.6010 C.3     1  UNL1        0.0770
      8  C         18.0070  -22.4310   -8.0170 C.3     1  UNL1        0.1690
      9  O         16.9920  -22.2050   -9.0220 O.3     1  UNL1       -0.3070
     10  C         17.3470  -21.7410  -10.2460 C.2     1  UNL1        0.2940
     11  O         16.5350  -21.2530  -11.0190 O.2     1  UNL1       -0.2590
     12  C         22.8730  -22.4240  -11.7910 C.2     1  UNL1        0.2560
     13  O         23.5810  -23.0700  -11.0300 O.2     1  UNL1       -0.2670
     14  N         23.2400  -21.8790  -13.0080 N.am    1  UNL1       -0.3230
     15  H         22.5020  -21.4920  -13.5820 H       1  UNL1        0.1690
     16  C         24.5250  -21.8830  -13.5900 C.2     1  UNL1        0.0370
     17  C         25.3590  -20.7900  -13.3070 C.2     1  UNL1        0.0290
     18  C         26.6510  -20.7160  -13.8380 C.2     1  UNL1        0.0050
     19  C         27.1210  -21.7380  -14.6570 C.2     1  UNL1        0.0420
     20  C         26.2950  -22.8210  -14.9350 C.2     1  UNL1        0.1180
     21  F         26.7520  -23.8060  -15.7200 F       1  UNL1       -0.2060
     22  C         25.0070  -22.9040  -14.4100 C.2     1  UNL1        0.0710
     23  C         17.3060  -22.9600   -6.7750 C.2     1  UNL1       -0.0280
     24  C         15.9180  -23.1970   -6.8400 C.2     1  UNL1        0.0130
     25  C         15.2140  -23.6680   -5.7290 C.2     1  UNL1        0.0430
     26  C         15.8910  -23.9040   -4.5430 C.2     1  UNL1        0.1160
     27  F         15.2200  -24.3540   -3.4750 F       1  UNL1       -0.2060
     28  C         17.2580  -23.6760   -4.4460 C.2     1  UNL1        0.0430
     29  C         17.9650  -23.2050   -5.5580 C.2     1  UNL1        0.0130
@<TRIPOS>BOND
     1    21    20    1
     2    20    19    2
     3    20    22    1
     4    19    18    1
     5    22    16    2
     6    18    17    2
     7    16    17    1
     8    16    14    1
     9    15    14    1
    10    14    12   am
    11     2     3    1
    12     2     1    2
    13    12     1    1
    14    12    13    2
    15     3     4    2
    16     1     6    1
    17    11    10    2
    18     4    10    1
    19     4     5    1
    20    10     9    1
    21     6     5    2
    22     5     7    1
    23     9     8    1
    24     7     8    1
    25     8    23    1
    26    24    23    2
    27    24    25    1
    28    23    29    1
    29    25    26    2
    30    29    28    2
    31    26    28    1
    32    26    27    1
