@<TRIPOS>MOLECULE
4759_out_ligand_01.pdbqt
 32 34 0 0 0
SMALL
GASTEIGER

@<TRIPOS>ATOM
      1  C         17.9270  -22.6520   -6.4910 C.2     1  UNL1        0.0800
      2  C         18.2320  -21.6100   -5.6130 C.2     1  UNL1        0.0280
      3  C         19.4950  -21.0200   -5.6710 C.2     1  UNL1        0.0450
      4  C         20.4360  -21.4750   -6.5960 C.2     1  UNL1        0.1320
      5  F         21.6380  -20.8790   -6.6090 F       1  UNL1       -0.2050
      6  C         20.1420  -22.5190   -7.4780 C.2     1  UNL1        0.0720
      7  C         18.8660  -23.1040   -7.4240 C.2     1  UNL1        0.0450
      8  S         16.3250  -23.4230   -6.4380 S.O2    1  UNL1        0.2590
      9  O         16.3320  -24.3820   -5.3550 O.2     1  UNL1       -0.2010
     10  O         15.3450  -22.3670   -6.5240 O.2     1  UNL1       -0.2010
     11  N         16.2730  -24.2710   -7.8690 N.3     1  UNL1       -0.3110
     12  H         16.3520  -25.2840   -7.7990 H       1  UNL1        0.1720
     13  C         15.6190  -23.6930   -9.0330 C.3     1  UNL1        0.1700
     14  C         16.6020  -22.9000   -9.8580 C.2     1  UNL1       -0.0400
     15  C         16.3580  -21.5490  -10.1390 C.2     1  UNL1        0.0090
     16  C         17.2760  -20.8010  -10.8790 C.2     1  UNL1        0.0070
     17  C         18.4630  -21.3850  -11.3350 C.2     1  UNL1       -0.0620
     18  C         19.4350  -20.5900  -12.1570 C.3     1  UNL1        0.0480
     19  C         18.7070  -22.7340  -11.0570 C.2     1  UNL1        0.0070
     20  C         17.7910  -23.4840  -10.3170 C.2     1  UNL1        0.0090
     21  C         21.1250  -23.0610   -8.4650 C.2     1  UNL1        0.2590
     22  O         21.2340  -24.2800   -8.5390 O.2     1  UNL1       -0.2670
     23  N         21.8340  -22.1330   -9.2040 N.am    1  UNL1       -0.3230
     24  H         21.6490  -21.1530   -9.0190 H       1  UNL1        0.1690
     25  C         22.8090  -22.3780  -10.1960 C.2     1  UNL1        0.0350
     26  C         22.4270  -22.1810  -11.5250 C.2     1  UNL1        0.0300
     27  C         23.3280  -22.4020  -12.5680 C.2     1  UNL1        0.0090
     28  C         24.6370  -22.8300  -12.3060 C.2     1  UNL1       -0.0560
     29  C         25.5840  -23.0580  -13.4510 C.3     1  UNL1        0.0490
     30  C         25.0350  -23.0270  -10.9700 C.2     1  UNL1       -0.0540
     31  C         26.4270  -23.4860  -10.6270 C.3     1  UNL1        0.0490
     32  C         24.1120  -22.8010   -9.9290 C.2     1  UNL1        0.0370
@<TRIPOS>BOND
     1    29    28    1
     2    27    28    2
     3    27    26    1
     4    28    30    1
     5    18    17    1
     6    26    25    2
     7    17    19    2
     8    17    16    1
     9    19    20    1
    10    30    31    1
    11    30    32    2
    12    16    15    2
    13    20    14    2
    14    25    32    1
    15    25    23    1
    16    15    14    1
    17    14    13    1
    18    23    24    1
    19    23    21   am
    20    13    11    1
    21    22    21    2
    22    21     6    1
    23    11    12    1
    24    11     8    1
    25     6     7    1
    26     6     4    2
    27     7     1    2
    28     5     4    1
    29     4     3    1
    30    10     8    2
    31     1     8    1
    32     1     2    1
    33     8     9    2
    34     3     2    2
