@<TRIPOS>MOLECULE
47601_out_ligand_01.pdbqt
 28 31 0 0 0
SMALL
GASTEIGER

@<TRIPOS>ATOM
      1  C         21.3720  -22.2950  -11.2360 C.2     1  UNL1        0.0320
      2  C         20.5260  -21.5520  -12.0690 C.2     1  UNL1        0.0180
      3  C         19.1830  -21.3760  -11.7230 C.2     1  UNL1        0.0190
      4  C         18.6860  -21.9230  -10.5330 C.2     1  UNL1        0.0450
      5  C         19.5340  -22.6440   -9.6830 C.2     1  UNL1       -0.0380
      6  C         20.8750  -22.8340  -10.0390 C.2     1  UNL1        0.0250
      7  C         18.9690  -23.2310   -8.4220 C.3     1  UNL1        0.0770
      8  C         17.8600  -22.3050   -7.9240 C.3     1  UNL1        0.1690
      9  O         16.8620  -22.1180   -8.9490 O.3     1  UNL1       -0.3070
     10  C         17.2450  -21.7560  -10.2000 C.2     1  UNL1        0.2940
     11  O         16.4490  -21.3420  -11.0310 O.2     1  UNL1       -0.2590
     12  C         22.8110  -22.5080  -11.5620 C.2     1  UNL1        0.2560
     13  O         23.4540  -23.2640  -10.8470 O.2     1  UNL1       -0.2670
     14  N         23.2570  -21.8370  -12.6870 N.am    1  UNL1       -0.3230
     15  H         22.5650  -21.3570  -13.2450 H       1  UNL1        0.1690
     16  C         24.5690  -21.8200  -13.2070 C.2     1  UNL1        0.0350
     17  C         24.7950  -22.5250  -14.3980 C.2     1  UNL1        0.0290
     18  C         26.0640  -22.5530  -14.9810 C.2     1  UNL1        0.0020
     19  C         27.1210  -21.8760  -14.3810 C.2     1  UNL1        0.0000
     20  C         26.9060  -21.1700  -13.1990 C.2     1  UNL1        0.0020
     21  C         25.6360  -21.1410  -12.6150 C.2     1  UNL1        0.0290
     22  C         17.2050  -22.8700   -6.6770 C.2     1  UNL1       -0.0280
     23  C         17.9640  -23.2310   -5.5510 C.2     1  UNL1        0.0130
     24  C         17.3420  -23.7260   -4.4040 C.2     1  UNL1        0.0430
     25  C         15.9590  -23.8560   -4.3760 C.2     1  UNL1        0.1160
     26  F         15.3620  -24.3300   -3.2750 F       1  UNL1       -0.2060
     27  C         15.1860  -23.5010   -5.4740 C.2     1  UNL1        0.0430
     28  C         15.8070  -23.0060   -6.6240 C.2     1  UNL1        0.0130
@<TRIPOS>BOND
     1    18    17    1
     2    18    19    2
     3    17    16    2
     4    19    20    1
     5    15    14    1
     6    16    14    1
     7    16    21    1
     8    20    21    2
     9    14    12   am
    10     2     3    1
    11     2     1    2
    12     3     4    2
    13    12     1    1
    14    12    13    2
    15     1     6    1
    16    11    10    2
    17     4    10    1
    18     4     5    1
    19    10     9    1
    20     6     5    2
    21     5     7    1
    22     9     8    1
    23     7     8    1
    24     8    22    1
    25    22    28    2
    26    22    23    1
    27    28    27    1
    28    23    24    2
    29    27    25    2
    30    24    25    1
    31    25    26    1
