@<TRIPOS>MOLECULE
47602_out_ligand_01.pdbqt
 30 33 0 0 0
SMALL
GASTEIGER

@<TRIPOS>ATOM
      1  C         21.4900  -22.1400  -11.2350 C.2     1  UNL1        0.0320
      2  C         20.5620  -21.6680  -12.1720 C.2     1  UNL1        0.0180
      3  C         19.2200  -21.5110  -11.8090 C.2     1  UNL1        0.0190
      4  C         18.8010  -21.8240  -10.5100 C.2     1  UNL1        0.0450
      5  C         19.7250  -22.2870   -9.5660 C.2     1  UNL1       -0.0380
      6  C         21.0720  -22.4310   -9.9270 C.2     1  UNL1        0.0250
      7  C         19.2570  -22.5660   -8.1660 C.3     1  UNL1        0.0770
      8  C         17.8090  -23.0560   -8.2320 C.3     1  UNL1        0.1690
      9  O         16.9990  -22.0700   -8.9120 O.3     1  UNL1       -0.3070
     10  C         17.3780  -21.6100  -10.1310 C.2     1  UNL1        0.2940
     11  O         16.6030  -21.0320  -10.8790 O.2     1  UNL1       -0.2590
     12  C         22.9330  -22.3110  -11.5700 C.2     1  UNL1        0.2560
     13  N         23.3110  -21.8140  -12.8050 N.am    1  UNL1       -0.3230
     14  H         22.5750  -21.4800  -13.4120 H       1  UNL1        0.1690
     15  O         23.6430  -22.8970  -10.7610 O.2     1  UNL1       -0.2670
     16  C         24.6100  -21.8010  -13.3610 C.2     1  UNL1        0.0370
     17  C         25.6910  -21.1260  -12.7930 C.2     1  UNL1        0.0290
     18  C         26.9440  -21.1570  -13.4070 C.2     1  UNL1        0.0050
     19  C         27.1210  -21.8600  -14.5970 C.2     1  UNL1        0.0370
     20  C         26.0510  -22.5370  -15.1840 C.2     1  UNL1        0.0700
     21  C         24.7980  -22.5040  -14.5630 C.2     1  UNL1        0.0660
     22  O         26.3580  -23.1840  -16.3480 O.2     1  UNL1       -0.3560
     23  C         25.8240  -22.6460  -17.5500 C.3     1  UNL1        0.2100
     24  C         17.1400  -23.3510   -6.8980 C.2     1  UNL1       -0.0280
     25  C         15.7740  -23.6480   -6.7630 C.2     1  UNL1        0.0130
     26  C         15.2180  -23.8950   -5.5040 C.2     1  UNL1        0.0430
     27  C         16.0210  -23.8460   -4.3730 C.2     1  UNL1        0.1160
     28  F         15.4820  -24.0840   -3.1690 F       1  UNL1       -0.2060
     29  C         17.3740  -23.5560   -4.4740 C.2     1  UNL1        0.0430
     30  C         17.9310  -23.3090   -5.7300 C.2     1  UNL1        0.0130
@<TRIPOS>BOND
     1    23    22    1
     2    22    20    1
     3    20    19    2
     4    20    21    1
     5    19    18    1
     6    21    16    2
     7    14    13    1
     8    18    17    2
     9    16    13    1
    10    16    17    1
    11    13    12   am
    12     2     3    1
    13     2     1    2
    14     3     4    2
    15    12     1    1
    16    12    15    2
    17     1     6    1
    18    11    10    2
    19     4    10    1
    20     4     5    1
    21    10     9    1
    22     6     5    2
    23     5     7    1
    24     9     8    1
    25     8     7    1
    26     8    24    1
    27    24    25    2
    28    24    30    1
    29    25    26    1
    30    30    29    2
    31    26    27    2
    32    29    27    1
    33    27    28    1
