@<TRIPOS>MOLECULE
47622_out_ligand_01.pdbqt
 29 32 0 0 0
SMALL
GASTEIGER

@<TRIPOS>ATOM
      1  C         22.0710  -21.8700  -12.1500 C.2     1  UNL1        0.0330
      2  C         20.9100  -21.1600  -12.5510 C.2     1  UNL1        0.0180
      3  C         19.7110  -21.2860  -11.8380 C.2     1  UNL1        0.0190
      4  C         19.7090  -22.1320  -10.7460 C.2     1  UNL1        0.0480
      5  C         20.8360  -22.8380  -10.3630 C.2     1  UNL1        0.0490
      6  C         22.0330  -22.7350  -11.0440 C.2     1  UNL1        0.0350
      7  C         20.4780  -23.6310   -9.1860 C.2     1  UNL1        0.2620
      8  O         21.2490  -24.3570   -8.5900 O.2     1  UNL1       -0.2670
      9  N         19.1630  -23.3650   -8.9270 N.am    1  UNL1       -0.2760
     10  C         18.6340  -22.4730   -9.8170 C.2     1  UNL1        0.2620
     11  O         17.5110  -22.0100   -9.8750 O.2     1  UNL1       -0.2670
     12  C         23.3520  -21.7540  -12.9020 C.2     1  UNL1        0.2560
     13  N         23.2280  -21.3920  -14.2280 N.am    1  UNL1       -0.3200
     14  H         22.3230  -21.1510  -14.6060 H       1  UNL1        0.1690
     15  O         24.4000  -21.9550  -12.3000 O.2     1  UNL1       -0.2670
     16  C         24.3020  -21.2520  -15.0880 C.2     1  UNL1        0.0710
     17  C         24.6480  -22.1830  -16.0400 C.2     1  UNL1        0.1420
     18  N         25.7500  -21.6830  -16.6740 N.pl3   1  UNL1       -0.2830
     19  C         26.4850  -22.2960  -17.7520 C.3     1  UNL1        0.1790
     20  N         26.1470  -20.4900  -16.1990 N.2     1  UNL1       -0.1830
     21  C         25.2620  -20.2260  -15.2310 C.2     1  UNL1        0.1690
     22  C         18.4110  -23.9840   -7.8590 C.3     1  UNL1        0.1740
     23  C         18.4300  -23.1340   -6.6080 C.2     1  UNL1       -0.0400
     24  C         19.1250  -21.9140   -6.5870 C.2     1  UNL1        0.0120
     25  C         19.1220  -21.1210   -5.4390 C.2     1  UNL1        0.0430
     26  C         18.4160  -21.5400   -4.3180 C.2     1  UNL1        0.1160
     27  F         18.4120  -20.7750   -3.2170 F       1  UNL1       -0.2060
     28  C         17.7100  -22.7370   -4.3220 C.2     1  UNL1        0.0430
     29  C         17.7120  -23.5340   -5.4680 C.2     1  UNL1        0.0120
@<TRIPOS>BOND
     1    19    18    1
     2    18    20    1
     3    18    17    1
     4    20    21    2
     5    17    16    2
     6    21    16    1
     7    16    13    1
     8    14    13    1
     9    13    12   am
    10    12    15    2
    11    12     1    1
    12     2     1    2
    13     2     3    1
    14     1     6    1
    15     3     4    2
    16     6     5    2
    17     4     5    1
    18     4    10    1
    19     5     7    1
    20    11    10    2
    21    10     9   am
    22     7     9   am
    23     7     8    2
    24     9    22    1
    25    22    23    1
    26    23    24    2
    27    23    29    1
    28    24    25    1
    29    29    28    2
    30    25    26    2
    31    28    26    1
    32    26    27    1
