@<TRIPOS>MOLECULE
47634_out_ligand_01.pdbqt
 29 32 0 0 0
SMALL
GASTEIGER

@<TRIPOS>ATOM
      1  N         19.9770  -22.1780   -8.3900 N.am    1  UNL1       -0.3230
      2  C         20.8670  -23.0520   -8.9810 C.2     1  UNL1        0.2590
      3  O         21.1500  -24.1780   -8.6020 O.2     1  UNL1       -0.2670
      4  H         19.8070  -21.3100   -8.8820 H       1  UNL1        0.1690
      5  C         21.4520  -22.5080  -10.2050 C.ar    1  UNL1        0.0750
      6  C         20.7350  -21.9380  -11.2500 C.ar    1  UNL1        0.1130
      7  S         21.7430  -21.4500  -12.5420 S.2     1  UNL1       -0.0740
      8  C         23.1410  -21.9820  -11.7480 C.ar    1  UNL1       -0.0080
      9  C         22.8710  -22.5400  -10.5150 C.ar    1  UNL1       -0.0260
     10  C         24.4940  -21.8900  -12.3890 C.3     1  UNL1        0.0470
     11  C         23.9700  -23.1140   -9.6600 C.3     1  UNL1        0.0410
     12  C         25.2540  -23.3640  -10.4650 C.3     1  UNL1        0.0050
     13  C         25.5990  -22.1650  -11.3600 C.3     1  UNL1        0.0050
     14  N         19.3610  -21.6890  -11.3690 N.pl3   1  UNL1       -0.2260
     15  C         18.2510  -22.4520  -11.0960 C.2     1  UNL1        0.2490
     16  N         17.1640  -21.7520  -11.3270 N.2     1  UNL1       -0.1560
     17  N         17.5950  -20.5290  -11.7530 N.2     1  UNL1        0.0170
     18  N         18.9180  -20.4720  -11.7760 N.2     1  UNL1        0.0020
     19  C         19.2500  -22.3670   -7.1970 C.2     1  UNL1        0.0350
     20  C         18.4800  -23.5320   -7.0990 C.2     1  UNL1        0.0300
     21  C         17.7270  -23.7940   -5.9500 C.2     1  UNL1        0.0190
     22  C         17.7370  -22.8950   -4.8780 C.2     1  UNL1        0.0320
     23  C         18.4920  -21.7220   -4.9790 C.2     1  UNL1        0.0190
     24  C         19.2450  -21.4630   -6.1320 C.2     1  UNL1        0.0300
     25  C         16.9180  -23.2160   -3.6800 C.2     1  UNL1        0.2490
     26  N         16.1440  -22.2190   -3.1540 N.am    1  UNL1       -0.3660
     27  H         15.6950  -22.4290   -2.2720 H       1  UNL1        0.1590
     28  H         16.2920  -21.2450   -3.3750 H       1  UNL1        0.1590
     29  O         16.9540  -24.3230   -3.1560 O.2     1  UNL1       -0.2680
@<TRIPOS>BOND
     1     7     8   ar
     2     7     6   ar
     3    10     8    1
     4    10    13    1
     5    18    17    2
     6    18    14    1
     7    17    16    1
     8     8     9   ar
     9    14     6    1
    10    14    15    1
    11    13    12    1
    12    16    15    2
    13     6     5   ar
    14     9     5   ar
    15     9    11    1
    16    12    11    1
    17     5     2    1
    18     2     3    2
    19     2     1   am
    20     4     1    1
    21     1    19    1
    22    19    20    2
    23    19    24    1
    24    20    21    1
    25    24    23    2
    26    21    22    2
    27    23    22    1
    28    22    25    1
    29    25    29    2
    30    25    26   am
    31    28    26    1
    32    26    27    1
