@<TRIPOS>MOLECULE
47655_out_ligand_01.pdbqt
 30 32 0 0 0
SMALL
GASTEIGER

@<TRIPOS>ATOM
      1  N         18.6280  -22.3180  -10.1930 N.am    1  UNL1       -0.3260
      2  C         17.6680  -21.4960  -10.7630 C.2     1  UNL1        0.2420
      3  O         17.8910  -20.5000  -11.4480 O.2     1  UNL1       -0.2710
      4  H         18.2770  -23.0780   -9.6080 H       1  UNL1        0.1690
      5  C         16.2350  -21.8860  -10.3860 C.3     1  UNL1        0.2570
      6  N         16.1790  -22.6920   -9.1680 N.am    1  UNL1       -0.2250
      7  N         16.7540  -22.1360   -8.0460 N.2     1  UNL1       -0.1690
      8  C         16.7630  -22.8430   -6.9600 C.2     1  UNL1        0.0900
      9  C         16.2120  -24.2090   -6.8430 C.2     1  UNL1        0.0400
     10  C         15.6640  -24.7290   -7.9420 C.2     1  UNL1        0.0780
     11  C         15.6150  -23.9560   -9.1980 C.2     1  UNL1        0.2640
     12  O         15.0600  -24.4370  -10.1850 O.2     1  UNL1       -0.2670
     13  C         17.3570  -22.2820   -5.7300 C.2     1  UNL1        0.0330
     14  C         18.5190  -21.5050   -5.7950 C.2     1  UNL1        0.0170
     15  C         19.0760  -20.9940   -4.6200 C.2     1  UNL1        0.0010
     16  C         18.4770  -21.2610   -3.3870 C.2     1  UNL1        0.0030
     17  C         17.3210  -22.0400   -3.3250 C.2     1  UNL1        0.0430
     18  C         16.7670  -22.5500   -4.4960 C.2     1  UNL1        0.1290
     19  F         15.6390  -23.2700   -4.4110 F       1  UNL1       -0.2050
     20  C         20.0280  -22.2360  -10.3200 C.2     1  UNL1        0.0340
     21  C         20.6940  -22.0170  -11.5260 C.2     1  UNL1        0.0300
     22  C         22.0940  -21.9530  -11.5670 C.2     1  UNL1        0.0190
     23  C         22.8420  -22.1190  -10.3970 C.2     1  UNL1        0.0320
     24  C         22.1780  -22.3250   -9.1850 C.2     1  UNL1        0.0190
     25  C         20.7800  -22.3860   -9.1480 C.2     1  UNL1        0.0300
     26  C         24.3290  -22.0640  -10.3870 C.2     1  UNL1        0.2490
     27  N         25.0060  -23.2300  -10.1550 N.am    1  UNL1       -0.3660
     28  H         26.0060  -23.1420  -10.0320 H       1  UNL1        0.1590
     29  H         24.5600  -24.0440   -9.7580 H       1  UNL1        0.1590
     30  O         24.9360  -21.0120  -10.5430 O.2     1  UNL1       -0.2680
@<TRIPOS>BOND
     1    22    21    1
     2    22    23    2
     3    21    20    2
     4     3     2    2
     5     2     5    1
     6     2     1   am
     7    30    26    2
     8    23    26    1
     9    23    24    1
    10    26    27   am
    11     5     6    1
    12    20     1    1
    13    20    25    1
    14     1     4    1
    15    12    11    2
    16    27    28    1
    17    27    29    1
    18    11     6   am
    19    11    10    1
    20    24    25    2
    21     6     7    1
    22     7     8    2
    23    10     9    2
    24     8     9    1
    25     8    13    1
    26    14    13    2
    27    14    15    1
    28    13    18    1
    29    15    16    2
    30    18    19    1
    31    18    17    2
    32    16    17    1
