@<TRIPOS>MOLECULE
47666_out_ligand_01.pdbqt
 34 37 0 0 0
SMALL
GASTEIGER

@<TRIPOS>ATOM
      1  C         22.9940  -22.8080  -10.1240 C.2     1  UNL1        0.0970
      2  C         23.1350  -23.9330   -9.2670 C.2     1  UNL1        0.1600
      3  N         21.9690  -24.4490   -8.8600 N.2     1  UNL1       -0.1810
      4  N         21.0590  -23.6310   -9.4310 N.pl3   1  UNL1       -0.2410
      5  C         21.6250  -22.6600  -10.2200 C.2     1  UNL1        0.1430
      6  N         20.8160  -21.8160  -10.8990 N.pl3   1  UNL1       -0.3350
      7  CA        19.4350  -21.9300  -10.8920 C.3     1  UNL1        0.1060
      8  C         18.8130  -22.8600  -10.1440 C.2     1  UNL1        0.0410
      9  C         19.6030  -23.8100   -9.2600 C.2     1  UNL1        0.1600
     10  H         21.1890  -21.0970  -11.5280 H       1  UNL1        0.1680
     11  C         23.9870  -21.9740  -10.7920 C.2     1  UNL1        0.2610
     12  N         24.2390  -22.3320  -12.1000 N.am    1  UNL1       -0.3200
     13  H         23.7570  -23.1310  -12.4900 H       1  UNL1        0.1690
     14  O         24.5250  -21.0450  -10.1950 O.2     1  UNL1       -0.2670
     15  C         25.1280  -21.7330  -13.0220 C.2     1  UNL1        0.0680
     16  C         25.3590  -20.3590  -13.1020 C.2     1  UNL1        0.0320
     17  C         26.2550  -19.8500  -14.0450 C.2     1  UNL1        0.0020
     18  C         26.9240  -20.7110  -14.9120 C.2     1  UNL1        0.0030
     19  C         26.7020  -22.0870  -14.8430 C.2     1  UNL1        0.0390
     20  C         25.8060  -22.6060  -13.9020 C.2     1  UNL1        0.0950
     21  O         25.5110  -23.9420  -13.7480 O.2     1  UNL1       -0.3540
     22  C         25.5650  -24.7540  -14.9150 C.3     1  UNL1        0.2100
     23  C         19.1960  -23.6240   -7.8150 C.2     1  UNL1        0.0050
     24  C         18.9940  -22.4270   -7.2390 C.2     1  UNL1        0.0100
     25  C         18.5870  -22.2520   -5.8380 C.2     1  UNL1       -0.0360
     26  C         17.7760  -23.2260   -5.2420 C.2     1  UNL1        0.0110
     27  C         17.3430  -23.0800   -3.9210 C.2     1  UNL1        0.0010
     28  C         17.7080  -21.9530   -3.1880 C.2     1  UNL1        0.0000
     29  C         18.5030  -20.9710   -3.7750 C.2     1  UNL1        0.0010
     30  C         18.9360  -21.1170   -5.0960 C.2     1  UNL1        0.0110
     31  C         18.6160  -21.0140  -11.7380 C.2     1  UNL1        0.1930
     32  O         17.4010  -20.9540  -11.7930 O.2     1  UNL1       -0.6450
     33  OXT       19.4020  -20.2100  -12.4820 O.3     1  UNL1       -0.7720
     34  HXT       18.7870  -19.5210  -12.8110 H       1  UNL1        0.1670
@<TRIPOS>BOND
     1    22    21    1
     2    18    19    2
     3    18    17    1
     4    19    20    1
     5    17    16    2
     6    20    21    1
     7    20    15    2
     8    16    15    1
     9    15    12    1
    10    34    33    1
    11    13    12    1
    12    33    31    1
    13    12    11   am
    14    32    31    2
    15    31     7    1
    16    10     6    1
    17     6     7    1
    18     6     5    1
    19     7     8    1
    20    11    14    2
    21    11     1    1
    22     5     1    2
    23     5     4    1
    24     8     9    2
    25     1     2    1
    26     4     9    1
    27     4     3    1
    28     2     3    2
    29     9    23    1
    30    23    24    2
    31    24    25    1
    32    25    26    2
    33    25    30    1
    34    26    27    1
    35    30    29    2
    36    27    28    2
    37    29    28    1
