@<TRIPOS>MOLECULE
4769_out_ligand_01.pdbqt
 36 39 0 0 0
SMALL
GASTEIGER

@<TRIPOS>ATOM
      1  C         24.2000  -21.9140  -10.2420 C.ar    1  UNL1        0.2310
      2  N         24.1050  -23.1780   -9.8780 N.ar    1  UNL1       -0.1140
      3  N         23.2340  -23.2230   -8.8100 N.ar    1  UNL1       -0.1240
      4  C         22.8550  -21.9800   -8.5880 C.ar    1  UNL1        0.1870
      5  O         23.4280  -21.0900   -9.4650 O.2     1  UNL1       -0.2670
      6  S         25.1730  -21.3320  -11.5520 S.3     1  UNL1       -0.0730
      7  C         24.3080  -22.0540  -12.9770 C.3     1  UNL1        0.1860
      8  C         22.8370  -21.6640  -12.9720 C.2     1  UNL1        0.2310
      9  O         22.3780  -20.9530  -13.8620 O.2     1  UNL1       -0.2720
     10  N         22.1280  -22.1960  -11.9110 N.am    1  UNL1       -0.3260
     11  H         22.5840  -22.9400  -11.3870 H       1  UNL1        0.1690
     12  C         20.7800  -21.9610  -11.5760 C.2     1  UNL1        0.0370
     13  C         20.1870  -20.8020  -12.0990 C.2     1  UNL1        0.0320
     14  C         18.8520  -20.4990  -11.8290 C.2     1  UNL1        0.0420
     15  C         18.0950  -21.3610  -11.0440 C.2     1  UNL1        0.1020
     16  C         18.6670  -22.5390  -10.5540 C.2     1  UNL1        0.1040
     17  O         16.7930  -21.0020  -10.8130 O.2     1  UNL1       -0.3460
     18  C         20.0110  -22.8260  -10.7970 C.2     1  UNL1        0.0690
     19  O         17.9620  -23.4680   -9.8330 O.2     1  UNL1       -0.3460
     20  C         16.5520  -23.2710   -9.9780 C.3     1  UNL1        0.2020
     21  C         16.1980  -21.8060   -9.7850 C.3     1  UNL1        0.2020
     22  C         21.9180  -21.4490   -7.5700 C.3     1  UNL1        0.2110
     23  N         20.6950  -22.2290   -7.5260 N.am    1  UNL1       -0.3490
     24  C         19.7070  -21.8760   -6.6310 C.2     1  UNL1        0.2520
     25  O         19.7900  -20.8870   -5.9130 O.2     1  UNL1       -0.2680
     26  H         20.7230  -23.1670   -7.8970 H       1  UNL1        0.1630
     27  C         18.5280  -22.7830   -6.5280 C.2     1  UNL1        0.0320
     28  C         18.5850  -24.1350   -6.8830 C.2     1  UNL1        0.0170
     29  C         17.4420  -24.9330   -6.7730 C.2     1  UNL1        0.0020
     30  C         16.2420  -24.3850   -6.3160 C.2     1  UNL1        0.0160
     31  C         16.1650  -23.0310   -5.9590 C.2     1  UNL1        0.0480
     32  C         17.3160  -22.2350   -6.0810 C.2     1  UNL1        0.0330
     33  C         14.8660  -22.4290   -5.4890 C.3     1  UNL1        0.4170
     34  F         13.8810  -23.3550   -5.3190 F       1  UNL1       -0.1660
     35  F         14.3710  -21.5110   -6.3620 F       1  UNL1       -0.1660
     36  F         14.9810  -21.7880   -4.2920 F       1  UNL1       -0.1660
@<TRIPOS>BOND
     1     9     8    2
     2     7     8    1
     3     7     6    1
     4     8    10   am
     5    13    14    1
     6    13    12    2
     7    10    12    1
     8    10    11    1
     9    14    15    2
    10    12    18    1
    11     6     1    1
    12    15    17    1
    13    15    16    1
    14    17    21    1
    15    18    16    2
    16    16    19    1
    17     1     2   ar
    18     1     5   ar
    19    20    19    1
    20    20    21    1
    21     2     3   ar
    22     5     4   ar
    23     3     4   ar
    24     4    22    1
    25    26    23    1
    26    22    23    1
    27    23    24   am
    28    28    29    1
    29    28    27    2
    30    29    30    2
    31    24    27    1
    32    24    25    2
    33    27    32    1
    34    35    33    1
    35    30    31    1
    36    32    31    2
    37    31    33    1
    38    33    34    1
    39    33    36    1
