@<TRIPOS>MOLECULE
47715_out_ligand_01.pdbqt
 43 48 0 0 0
SMALL
GASTEIGER

@<TRIPOS>ATOM
      1  C         21.8880  -22.9010  -10.4180 C.ar    1  UNL1        0.2030
      2  N         22.6360  -23.7430   -9.7400 N.ar    1  UNL1       -0.1220
      3  N         21.8260  -24.4260   -8.8810 N.ar    1  UNL1       -0.1330
      4  C         20.5980  -23.9510   -9.0010 C.ar    1  UNL1        0.1400
      5  N         20.5680  -23.0000  -10.0160 N.ar    1  UNL1       -0.2750
      6  S         22.4600  -21.9050  -11.7200 S.3     1  UNL1       -0.0250
      7  C         24.1700  -22.2040  -11.5350 C.2     1  UNL1        0.1200
      8  C         25.1500  -21.4380  -10.9350 C.2     1  UNL1        0.0480
      9  C         26.3740  -22.1360  -11.0890 C.2     1  UNL1        0.0420
     10  C         26.0880  -23.2960  -11.7820 C.2     1  UNL1        0.0960
     11  O         24.7500  -23.3170  -12.0760 O.2     1  UNL1       -0.3020
     12  C         26.8770  -24.3910  -12.2850 C.2     1  UNL1        0.1750
     13  N         27.1210  -24.7490  -13.5160 N.2     1  UNL1       -0.1820
     14  N         26.7900  -23.9060  -14.5450 N.am    1  UNL1       -0.2450
     15  C         25.7470  -24.2560  -15.4130 C.2     1  UNL1        0.2710
     16  O         25.2320  -25.3720  -15.4780 O.2     1  UNL1       -0.2680
     17  H         26.7850  -22.9280  -14.2580 H       1  UNL1        0.1920
     18  C         25.3050  -23.0910  -16.3260 C.3     1  UNL1        0.2440
     19  O         23.9160  -23.1240  -16.6240 O.3     1  UNL1       -0.3810
     20  H         23.4660  -22.7370  -15.8470 H       1  UNL1        0.2110
     21  C         25.6350  -21.7310  -15.7470 C.2     1  UNL1       -0.0210
     22  C         26.8380  -21.0730  -16.0510 C.2     1  UNL1        0.0100
     23  C         27.1190  -19.8210  -15.5000 C.2     1  UNL1        0.0010
     24  C         26.2160  -19.2180  -14.6280 C.2     1  UNL1        0.0000
     25  C         25.0310  -19.8740  -14.2960 C.2     1  UNL1        0.0010
     26  C         24.7430  -21.1230  -14.8460 C.2     1  UNL1        0.0100
     27  C         19.4380  -22.3060  -10.5110 C.2     1  UNL1        0.0430
     28  C         18.1520  -22.7800  -10.2200 C.2     1  UNL1        0.0300
     29  C         17.0360  -22.0830  -10.6850 C.2     1  UNL1        0.0020
     30  C         17.2000  -20.9180  -11.4350 C.2     1  UNL1        0.0000
     31  C         18.4810  -20.4520  -11.7310 C.2     1  UNL1        0.0020
     32  C         19.6030  -21.1450  -11.2760 C.2     1  UNL1        0.0300
     33  C         19.4780  -24.2940   -8.0690 C.3     1  UNL1        0.1200
     34  C         19.1170  -23.1970   -7.0750 C.2     1  UNL1       -0.0400
     35  C         20.0340  -22.1400   -6.9000 C.2     1  UNL1        0.0080
     36  C         19.7940  -21.1230   -5.9830 C.2     1  UNL1        0.0010
     37  C         18.6260  -21.1370   -5.2290 C.2     1  UNL1        0.0120
     38  C         17.6780  -22.1590   -5.3860 C.2     1  UNL1       -0.0250
     39  C         16.5010  -22.1410   -4.6160 C.2     1  UNL1        0.0120
     40  C         17.9060  -23.2040   -6.3210 C.2     1  UNL1       -0.0190
     41  C         15.5370  -23.1360   -4.7520 C.2     1  UNL1        0.0010
     42  C         15.7370  -24.1620   -5.6630 C.2     1  UNL1        0.0010
     43  C         16.9000  -24.1910   -6.4390 C.2     1  UNL1        0.0130
@<TRIPOS>BOND
     1    19    18    1
     2    19    20    1
     3    18    21    1
     4    18    15    1
     5    22    21    2
     6    22    23    1
     7    21    26    1
     8    23    24    2
     9    16    15    2
    10    15    14   am
    11    26    25    2
    12    24    25    1
    13    14    17    1
    14    14    13    1
    15    13    12    2
    16    12    10    1
    17    11    10    1
    18    11     7    1
    19    10     9    2
    20    31    30    2
    21    31    32    1
    22     6     7    1
    23     6     1    1
    24     7     8    2
    25    30    29    1
    26    32    27    2
    27     9     8    1
    28    29    28    2
    29    27    28    1
    30    27     5    1
    31     1     5   ar
    32     1     2   ar
    33     5     4   ar
    34     2     3   ar
    35     4     3   ar
    36     4    33    1
    37    33    34    1
    38    34    35    2
    39    34    40    1
    40    35    36    1
    41    43    40    1
    42    43    42    2
    43    40    38    2
    44    36    37    2
    45    42    41    1
    46    38    37    1
    47    38    39    1
    48    41    39    2
