@<TRIPOS>MOLECULE
47716_out_ligand_01.pdbqt
 33 38 0 0 0
SMALL
GASTEIGER

@<TRIPOS>ATOM
      1  C         23.3470  -21.9430  -11.6940 C.2     1  UNL1       -0.0400
      2  C         23.0480  -22.3880  -10.3960 C.2     1  UNL1        0.0100
      3  C         21.7230  -22.4830   -9.9700 C.2     1  UNL1        0.0260
      4  C         20.6910  -22.1400  -10.8470 C.2     1  UNL1        0.0790
      5  C         20.9690  -21.7180  -12.1480 C.2     1  UNL1        0.0260
      6  C         22.2960  -21.6250  -12.5700 C.2     1  UNL1        0.0100
      7  S         19.0100  -22.2350  -10.2890 S.O2    1  UNL1        0.2590
      8  O         18.5560  -23.5820  -10.5640 O.2     1  UNL1       -0.2010
      9  O         18.2850  -21.0770  -10.7630 O.2     1  UNL1       -0.2010
     10  N         19.1560  -22.1360   -8.6220 N.3     1  UNL1       -0.3050
     11  H         20.1340  -22.1140   -8.3340 H       1  UNL1        0.1730
     12  C         18.1730  -22.6460   -7.6490 C.3     1  UNL1        0.0410
     13  C         16.7120  -22.3030   -8.0010 C.3     1  UNL1        0.0360
     14  C         15.7620  -22.8200   -6.9050 C.3     1  UNL1       -0.0120
     15  C         15.9280  -24.3430   -6.7650 C.3     1  UNL1        0.0090
     16  C         16.1160  -22.1490   -5.5690 C.3     1  UNL1        0.0090
     17  C         17.3780  -24.6870   -6.3830 C.3     1  UNL1       -0.0120
     18  C         17.7230  -24.0030   -5.0500 C.3     1  UNL1        0.0090
     19  C         18.3280  -24.1720   -7.4800 C.3     1  UNL1        0.0360
     20  C         17.5660  -22.4790   -5.1840 C.3     1  UNL1       -0.0120
     21  C         18.5060  -21.9730   -6.2910 C.3     1  UNL1        0.0360
     22  C         24.7820  -21.8640  -12.1620 C.3     1  UNL1        0.1740
     23  N         24.8730  -21.9190  -13.6030 N.am    1  UNL1       -0.2760
     24  C         24.9000  -23.0800  -14.3240 C.2     1  UNL1        0.2620
     25  C         24.9450  -22.6900  -15.7320 C.2     1  UNL1        0.0480
     26  O         24.8920  -24.2320  -13.9310 O.2     1  UNL1       -0.2670
     27  C         24.9830  -23.4650  -16.8750 C.2     1  UNL1        0.0180
     28  C         24.9380  -21.3080  -15.7840 C.2     1  UNL1        0.0480
     29  C         25.0180  -22.7920  -18.1000 C.2     1  UNL1        0.0010
     30  C         25.0120  -21.3820  -18.1530 C.2     1  UNL1        0.0010
     31  C         24.9730  -20.6200  -16.9810 C.2     1  UNL1        0.0180
     32  C         24.8920  -20.8140  -14.4090 C.2     1  UNL1        0.2620
     33  O         24.8790  -19.6350  -14.1040 O.2     1  UNL1       -0.2670
@<TRIPOS>BOND
     1    30    29    2
     2    30    31    1
     3    29    27    1
     4    31    28    2
     5    27    25    2
     6    28    25    1
     7    28    32    1
     8    25    24    1
     9    32    33    2
    10    32    23   am
    11    24    26    2
    12    24    23   am
    13    23    22    1
    14     6     5    1
    15     6     1    2
    16    22     1    1
    17     5     4    2
    18     1     2    1
    19     4     7    1
    20     4     3    1
    21     9     7    2
    22     8     7    2
    23     2     3    2
    24     7    10    1
    25    10    11    1
    26    10    12    1
    27    13    12    1
    28    13    14    1
    29    12    19    1
    30    12    21    1
    31    19    17    1
    32    14    15    1
    33    14    16    1
    34    15    17    1
    35    17    18    1
    36    21    20    1
    37    16    20    1
    38    20    18    1
