@<TRIPOS>MOLECULE
47723_out_ligand_01.pdbqt
 32 35 0 0 0
SMALL
GASTEIGER

@<TRIPOS>ATOM
      1  C         20.4680  -21.9280  -10.6600 C.2     1  UNL1        0.0580
      2  C         20.3220  -20.9720  -11.6820 C.2     1  UNL1        0.0190
      3  C         19.0580  -20.6580  -12.1790 C.2     1  UNL1        0.0010
      4  C         17.9340  -21.2900  -11.6580 C.2     1  UNL1        0.0020
      5  C         18.0740  -22.2550  -10.6570 C.2     1  UNL1        0.0300
      6  C         19.3400  -22.6250  -10.1700 C.2     1  UNL1        0.0480
      7  C         21.8280  -22.2270  -10.1220 C.2     1  UNL1        0.2530
      8  N         22.7860  -22.6080  -11.0400 N.am    1  UNL1       -0.3560
      9  H         22.6160  -22.4080  -12.0170 H       1  UNL1        0.1620
     10  O         22.0660  -22.0920   -8.9250 O.2     1  UNL1       -0.2680
     11  C         24.1770  -22.7600  -10.6470 C.3     1  UNL1        0.1330
     12  C         24.9870  -21.4660  -10.7870 C.3     1  UNL1        0.0990
     13  S         26.5110  -21.6820  -11.7900 S.3     1  UNL1       -0.1280
     14  C         25.8220  -22.2440  -13.3350 C.2     1  UNL1        0.0000
     15  C         26.0500  -23.5360  -13.8160 C.2     1  UNL1        0.0190
     16  C         25.4940  -23.9460  -15.0310 C.2     1  UNL1        0.0080
     17  C         24.7040  -23.0690  -15.7820 C.2     1  UNL1       -0.0620
     18  C         24.1390  -23.4980  -17.1040 C.3     1  UNL1        0.0480
     19  C         24.5050  -21.7660  -15.3150 C.2     1  UNL1        0.0080
     20  C         25.0600  -21.3570  -14.1000 C.2     1  UNL1        0.0190
     21  N         19.4510  -23.5730   -9.1120 N.pl3   1  UNL1       -0.3550
     22  H         19.2030  -24.5080   -9.4690 H       1  UNL1        0.1660
     23  C         18.9450  -23.4570   -7.7940 C.2     1  UNL1        0.0330
     24  C         18.0570  -24.4340   -7.3360 C.2     1  UNL1        0.0300
     25  C         17.4780  -24.3370   -6.0690 C.2     1  UNL1        0.0140
     26  C         17.7540  -23.2420   -5.2390 C.2     1  UNL1       -0.0260
     27  C         17.1830  -23.1260   -3.9620 C.2     1  UNL1        0.0120
     28  C         18.6210  -22.2280   -5.7040 C.2     1  UNL1       -0.0240
     29  C         17.4590  -22.0230   -3.1540 C.2     1  UNL1        0.0010
     30  C         18.3090  -21.0210   -3.6120 C.2     1  UNL1        0.0010
     31  C         18.8860  -21.1220   -4.8790 C.2     1  UNL1        0.0120
     32  C         19.1950  -22.3430   -6.9820 C.2     1  UNL1        0.0410
@<TRIPOS>BOND
     1    18    17    1
     2    17    19    2
     3    17    16    1
     4    19    20    1
     5    16    15    2
     6    20    14    2
     7    15    14    1
     8    14    13    1
     9     3     2    1
    10     3     4    2
    11     9     8    1
    12    13    12    1
    13     2     1    2
    14     4     5    1
    15     8    11    1
    16     8     7   am
    17    12    11    1
    18     1     6    1
    19     1     7    1
    20     5     6    2
    21     6    21    1
    22     7    10    2
    23    22    21    1
    24    21    23    1
    25    23    24    2
    26    23    32    1
    27    24    25    1
    28    32    28    2
    29    25    26    2
    30    28    26    1
    31    28    31    1
    32    26    27    1
    33    31    30    2
    34    27    29    2
    35    30    29    1
