@<TRIPOS>MOLECULE
47747_out_ligand_01.pdbqt
 34 37 0 0 0
SMALL
GASTEIGER

@<TRIPOS>ATOM
      1  C         20.7050  -22.4460   -7.5390 C.2     1  UNL1        0.0320
      2  C         21.7560  -21.5220   -7.5890 C.2     1  UNL1        0.0170
      3  C         22.8660  -21.7670   -8.4030 C.2     1  UNL1        0.0100
      4  C         22.9400  -22.9290   -9.1850 C.2     1  UNL1       -0.0300
      5  C         21.8770  -23.8410   -9.1480 C.2     1  UNL1        0.0100
      6  C         20.7670  -23.6000   -8.3330 C.2     1  UNL1        0.0170
      7  C         19.4900  -22.2390   -6.6920 C.2     1  UNL1        0.2560
      8  N         18.6100  -23.3020   -6.6470 N.am    1  UNL1       -0.3220
      9  H         18.8110  -24.1050   -7.2420 H       1  UNL1        0.1690
     10  O         19.3470  -21.1550   -6.1360 O.2     1  UNL1       -0.2670
     11  C         17.4310  -23.4420   -5.8700 C.2     1  UNL1        0.0500
     12  C         17.4540  -23.4230   -4.4700 C.2     1  UNL1        0.0300
     13  C         16.2810  -23.6010   -3.7300 C.2     1  UNL1        0.0020
     14  C         15.0680  -23.8140   -4.3750 C.2     1  UNL1        0.0010
     15  C         15.0200  -23.8320   -5.7680 C.2     1  UNL1        0.0190
     16  C         16.1890  -23.6270   -6.5230 C.2     1  UNL1        0.0580
     17  C         16.1130  -23.6270   -8.0170 C.2     1  UNL1        0.2540
     18  N         16.7570  -22.5970   -8.6740 N.am    1  UNL1       -0.3530
     19  H         17.2840  -21.9130   -8.1480 H       1  UNL1        0.1630
     20  O         15.5340  -24.5370   -8.6040 O.2     1  UNL1       -0.2680
     21  C         16.7150  -22.4630  -10.1250 C.3     1  UNL1        0.0760
     22  C         16.5710  -20.9950  -10.5210 C.3     1  UNL1        0.0320
     23  C         17.9700  -23.0680  -10.7460 C.3     1  UNL1        0.0320
     24  C         24.1430  -23.1790  -10.0720 C.3     1  UNL1        0.3110
     25  N         24.2850  -22.1900  -11.1530 N.3     1  UNL1        0.0970
     26  C         24.2970  -22.8610  -12.4610 C.3     1  UNL1        0.2770
     27  C         24.2460  -21.8340  -13.6000 C.3     1  UNL1        0.0690
     28  C         25.2710  -20.7420  -13.4340 C.2     1  UNL1       -0.0490
     29  C         25.6100  -19.9210  -14.5170 C.2     1  UNL1        0.0070
     30  C         25.8450  -20.5090  -12.1730 C.2     1  UNL1       -0.0240
     31  C         26.5330  -18.8890  -14.3570 C.2     1  UNL1        0.0010
     32  C         27.1190  -18.6660  -13.1130 C.2     1  UNL1        0.0010
     33  C         26.7800  -19.4720  -12.0260 C.2     1  UNL1        0.0090
     34  C         25.5240  -21.4010  -10.9900 C.3     1  UNL1        0.3110
@<TRIPOS>BOND
     1    29    31    1
     2    29    28    2
     3    31    32    2
     4    27    28    1
     5    27    26    1
     6    28    30    1
     7    32    33    1
     8    26    25    1
     9    30    33    2
    10    30    34    1
    11    25    34    1
    12    25    24    1
    13    23    21    1
    14    22    21    1
    15    21    18    1
    16    24     4    1
    17     4     5    2
    18     4     3    1
    19     5     6    1
    20    18    19    1
    21    18    17   am
    22    20    17    2
    23     3     2    2
    24     6     1    2
    25    17    16    1
    26     2     1    1
    27     1     7    1
    28     9     8    1
    29     7     8   am
    30     7    10    2
    31     8    11    1
    32    16    11    2
    33    16    15    1
    34    11    12    1
    35    15    14    2
    36    12    13    2
    37    14    13    1
