@<TRIPOS>MOLECULE
47746_out_ligand_01.pdbqt
 37 42 0 0 0
SMALL
GASTEIGER

@<TRIPOS>ATOM
      1  C         21.3100  -22.3690   -8.5210 C.2     1  UNL1        0.2560
      2  O         22.2520  -21.7640   -8.0240 O.2     1  UNL1       -0.2670
      3  N         21.1360  -22.7090   -9.8490 N.am    1  UNL1       -0.3230
      4  H         20.2370  -23.0910  -10.1120 H       1  UNL1        0.1690
      5  C         20.1860  -22.7710   -7.6330 C.2     1  UNL1        0.0320
      6  C         19.7080  -21.9140   -6.6290 C.2     1  UNL1        0.0190
      7  C         18.6600  -22.3300   -5.8050 C.2     1  UNL1        0.0250
      8  C         18.0930  -23.5990   -5.9760 C.2     1  UNL1        0.0250
      9  C         18.5390  -24.4340   -7.0100 C.2     1  UNL1        0.0250
     10  C         19.5880  -24.0220   -7.8330 C.2     1  UNL1        0.0190
     11  N         16.9860  -23.9510   -5.1280 N.pl3   1  UNL1       -0.1760
     12  C         17.2740  -23.8200   -3.6800 C.3     1  UNL1        0.1360
     13  S         15.4850  -23.2780   -5.6320 S.O2    1  UNL1        0.2470
     14  O         15.4020  -21.9040   -5.1790 O.2     1  UNL1       -0.2050
     15  O         14.4400  -24.2330   -5.3200 O.2     1  UNL1       -0.2050
     16  C         15.6720  -23.2200   -7.4010 C.2     1  UNL1        0.0750
     17  C         16.1350  -22.0590   -8.0230 C.2     1  UNL1        0.0250
     18  C         16.3050  -22.0440   -9.4080 C.2     1  UNL1        0.0020
     19  C         16.0260  -23.1890  -10.1570 C.2     1  UNL1        0.0000
     20  C         15.5700  -24.3480   -9.5270 C.2     1  UNL1        0.0020
     21  C         15.3940  -24.3700   -8.1450 C.2     1  UNL1        0.0250
     22  C         22.0380  -22.5020  -10.9110 C.2     1  UNL1        0.0350
     23  C         23.3050  -23.0710  -10.9820 C.2     1  UNL1        0.0300
     24  C         24.1320  -22.8270  -12.0880 C.2     1  UNL1        0.0100
     25  C         23.7170  -22.0150  -13.1630 C.2     1  UNL1       -0.0490
     26  C         22.4420  -21.4420  -13.0690 C.2     1  UNL1        0.0100
     27  C         21.6170  -21.6810  -11.9610 C.2     1  UNL1        0.0300
     28  C         24.6410  -21.8070  -14.3740 C.3     1  UNL1       -0.0120
     29  C         24.7460  -20.2920  -14.7220 C.3     1  UNL1        0.0190
     30  C         25.7170  -20.0600  -15.8950 C.3     1  UNL1       -0.0130
     31  C         27.1090  -20.5920  -15.5120 C.3     1  UNL1        0.0090
     32  C         25.2110  -20.8110  -17.1350 C.3     1  UNL1        0.0090
     33  C         27.0340  -22.0980  -15.2150 C.3     1  UNL1       -0.0130
     34  C         26.0670  -22.3360  -14.0430 C.3     1  UNL1        0.0190
     35  C         26.5210  -22.8380  -16.4580 C.3     1  UNL1        0.0090
     36  C         25.1300  -22.3150  -16.8390 C.3     1  UNL1       -0.0130
     37  C         24.1650  -22.5460  -15.6640 C.3     1  UNL1        0.0190
@<TRIPOS>BOND
     1    32    36    1
     2    32    30    1
     3    36    35    1
     4    36    37    1
     5    35    33    1
     6    30    31    1
     7    30    29    1
     8    37    28    1
     9    31    33    1
    10    33    34    1
    11    29    28    1
    12    28    34    1
    13    28    25    1
    14    25    26    2
    15    25    24    1
    16    26    27    1
    17    24    23    2
    18    27    22    2
    19    23    22    1
    20    22     3    1
    21    19    20    2
    22    19    18    1
    23     4     3    1
    24     3     1   am
    25    20    21    1
    26    18    17    2
    27     1     2    2
    28     1     5    1
    29    21    16    2
    30    17    16    1
    31    10     5    2
    32    10     9    1
    33     5     6    1
    34    16    13    1
    35     9     8    2
    36     6     7    2
    37     8     7    1
    38     8    11    1
    39    13    15    2
    40    13    14    2
    41    13    11    1
    42    11    12    1
