@<TRIPOS>MOLECULE
47754_out_ligand_01.pdbqt
 28 31 0 0 0
SMALL
GASTEIGER

@<TRIPOS>ATOM
      1  C         21.8090  -22.3660  -10.7620 C.2     1  UNL1        0.0320
      2  C         21.4850  -23.3430   -9.8160 C.2     1  UNL1        0.0170
      3  C         20.1520  -23.5690   -9.4690 C.2     1  UNL1        0.0100
      4  C         19.1250  -22.8060  -10.0460 C.2     1  UNL1       -0.0300
      5  C         19.4570  -21.8300  -10.9950 C.2     1  UNL1        0.0100
      6  C         20.7900  -21.6060  -11.3500 C.2     1  UNL1        0.0170
      7  C         23.2450  -22.1190  -11.0610 C.2     1  UNL1        0.2520
      8  O         23.8840  -21.3250  -10.3810 O.2     1  UNL1       -0.2680
      9  N         23.7840  -22.8250  -12.1190 N.am    1  UNL1       -0.3520
     10  H         23.2310  -23.5290  -12.5810 H       1  UNL1        0.1630
     11  C         25.1350  -22.5650  -12.6080 C.3     1  UNL1        0.0840
     12  C         25.1460  -21.4680  -13.6890 C.3     1  UNL1        0.0250
     13  C         24.2580  -21.7570  -14.8990 C.3     1  UNL1        0.0020
     14  C         24.9070  -22.5900  -15.9980 C.3     1  UNL1        0.0000
     15  C         25.8220  -23.7300  -15.5600 C.3     1  UNL1        0.0000
     16  C         25.3500  -24.5010  -14.3330 C.3     1  UNL1        0.0020
     17  C         25.8220  -23.8710  -13.0220 C.3     1  UNL1        0.0250
     18  C         17.6820  -23.0260   -9.6380 C.3     1  UNL1        0.3110
     19  N         17.5140  -23.3100   -8.2040 N.3     1  UNL1        0.0970
     20  C         16.1010  -23.5650   -7.8880 C.3     1  UNL1        0.2770
     21  C         15.9540  -24.0800   -6.4520 C.3     1  UNL1        0.0690
     22  C         16.7080  -23.2460   -5.4510 C.2     1  UNL1       -0.0490
     23  C         16.4550  -23.3820   -4.0790 C.2     1  UNL1        0.0070
     24  C         17.7090  -22.3600   -5.8940 C.2     1  UNL1       -0.0240
     25  C         17.1650  -22.6210   -3.1530 C.2     1  UNL1        0.0010
     26  C         18.1280  -21.7140   -3.5900 C.2     1  UNL1        0.0010
     27  C         18.3980  -21.5860   -4.9540 C.2     1  UNL1        0.0090
     28  C         18.0130  -22.1970   -7.3690 C.3     1  UNL1        0.3110
@<TRIPOS>BOND
     1    14    15    1
     2    14    13    1
     3    15    16    1
     4    13    12    1
     5    16    17    1
     6    12    11    1
     7    17    11    1
     8    11     9    1
     9    10     9    1
    10     9     7   am
    11     6     5    1
    12     6     1    2
    13     7     1    1
    14     7     8    2
    15     5     4    2
    16     1     2    1
    17     4    18    1
    18     4     3    1
    19     2     3    2
    20    18    19    1
    21    19    20    1
    22    19    28    1
    23    20    21    1
    24    28    24    1
    25    21    22    1
    26    24    22    2
    27    24    27    1
    28    22    23    1
    29    27    26    2
    30    23    25    2
    31    26    25    1
