@<TRIPOS>MOLECULE
47751_out_ligand_01.pdbqt
 28 31 0 0 0
SMALL
GASTEIGER

@<TRIPOS>ATOM
      1  C         20.1140  -22.0630  -11.1580 C.2     1  UNL1        0.0320
      2  C         19.0270  -21.2350  -11.4620 C.2     1  UNL1        0.0170
      3  C         17.7730  -21.4990  -10.9040 C.2     1  UNL1        0.0100
      4  C         17.5920  -22.5780  -10.0250 C.2     1  UNL1       -0.0300
      5  C         18.6890  -23.3940   -9.7170 C.2     1  UNL1        0.0100
      6  C         19.9430  -23.1340  -10.2730 C.2     1  UNL1        0.0170
      7  C         21.4700  -21.8210  -11.7280 C.2     1  UNL1        0.2560
      8  O         21.5590  -21.1560  -12.7530 O.2     1  UNL1       -0.2670
      9  N         22.5140  -22.3560  -10.9950 N.am    1  UNL1       -0.3230
     10  H         22.2800  -22.7630  -10.0990 H       1  UNL1        0.1690
     11  C         23.8900  -22.3180  -11.3090 C.2     1  UNL1        0.0370
     12  C         24.8060  -21.4540  -10.7020 C.2     1  UNL1        0.0290
     13  C         26.1570  -21.4700  -11.0700 C.2     1  UNL1        0.0050
     14  C         26.6010  -22.3510  -12.0530 C.2     1  UNL1        0.0420
     15  C         25.6890  -23.2060  -12.6570 C.2     1  UNL1        0.1180
     16  F         26.1090  -24.0540  -13.6040 F       1  UNL1       -0.2060
     17  C         24.3440  -23.1960  -12.2980 C.2     1  UNL1        0.0710
     18  C         16.2270  -22.8630   -9.4280 C.3     1  UNL1        0.3110
     19  N         16.1900  -22.7290   -7.9630 N.3     1  UNL1        0.0970
     20  C         15.9940  -24.0450   -7.3350 C.3     1  UNL1        0.2770
     21  C         15.7540  -23.8970   -5.8270 C.3     1  UNL1        0.0690
     22  C         16.7810  -23.0160   -5.1640 C.2     1  UNL1       -0.0490
     23  C         16.9270  -23.0280   -3.7710 C.2     1  UNL1        0.0070
     24  C         17.5520  -22.1340   -5.9420 C.2     1  UNL1       -0.0240
     25  C         17.8530  -22.1870   -3.1530 C.2     1  UNL1        0.0010
     26  C         18.6330  -21.3260   -3.9210 C.2     1  UNL1        0.0010
     27  C         18.4850  -21.3000   -5.3080 C.2     1  UNL1        0.0090
     28  C         17.4370  -22.1210   -7.4530 C.3     1  UNL1        0.3110
@<TRIPOS>BOND
     1    16    15    1
     2     8     7    2
     3    15    17    1
     4    15    14    2
     5    17    11    2
     6    14    13    1
     7     7     1    1
     8     7     9   am
     9     2     1    2
    10     2     3    1
    11    11     9    1
    12    11    12    1
    13     1     6    1
    14    13    12    2
    15     9    10    1
    16     3     4    2
    17     6     5    2
    18     4     5    1
    19     4    18    1
    20    18    19    1
    21    19    28    1
    22    19    20    1
    23    28    24    1
    24    20    21    1
    25    24    27    1
    26    24    22    2
    27    21    22    1
    28    27    26    2
    29    22    23    1
    30    26    25    1
    31    23    25    2
