@<TRIPOS>MOLECULE
47766_out_ligand_01.pdbqt
 37 43 0 0 0
SMALL
GASTEIGER

@<TRIPOS>ATOM
      1  O         22.7530  -21.8290   -9.4440 O.2     1  UNL1       -0.2670
      2  C         22.1100  -22.1000  -10.4510 C.2     1  UNL1        0.2560
      3  N         20.7570  -22.3800  -10.5230 N.am    1  UNL1       -0.3230
      4  H         20.3530  -22.4500  -11.4470 H       1  UNL1        0.1690
      5  C         22.8180  -22.0970  -11.7620 C.2     1  UNL1        0.0320
      6  C         22.3590  -21.3390  -12.8460 C.2     1  UNL1        0.0170
      7  C         23.0520  -21.3660  -14.0590 C.2     1  UNL1        0.0100
      8  C         24.2020  -22.1570  -14.2090 C.2     1  UNL1       -0.0300
      9  C         24.6450  -22.9260  -13.1240 C.2     1  UNL1        0.0100
     10  C         23.9540  -22.9010  -11.9100 C.2     1  UNL1        0.0170
     11  C         24.9500  -22.1830  -15.5270 C.3     1  UNL1        0.3110
     12  N         26.4030  -22.0110  -15.3650 N.3     1  UNL1        0.0970
     13  C         27.1210  -22.1470  -16.6430 C.3     1  UNL1        0.2770
     14  C         26.7950  -21.0610  -17.6790 C.3     1  UNL1        0.0690
     15  C         26.7180  -19.6810  -17.0750 C.2     1  UNL1       -0.0490
     16  C         26.6540  -18.5560  -17.9080 C.2     1  UNL1        0.0070
     17  C         26.6470  -19.5220  -15.6790 C.2     1  UNL1       -0.0240
     18  C         26.5410  -17.2790  -17.3600 C.2     1  UNL1        0.0010
     19  C         26.4870  -17.1160  -15.9770 C.2     1  UNL1        0.0010
     20  C         26.5430  -18.2300  -15.1400 C.2     1  UNL1        0.0090
     21  C         26.7540  -20.7150  -14.7530 C.3     1  UNL1        0.3110
     22  C         19.8470  -22.4930   -9.4510 C.2     1  UNL1        0.0350
     23  C         18.4940  -22.6300   -9.7690 C.2     1  UNL1        0.0300
     24  C         17.5250  -22.7550   -8.7630 C.2     1  UNL1        0.0100
     25  C         17.8780  -22.7510   -7.4060 C.2     1  UNL1       -0.0490
     26  C         19.2450  -22.6170   -7.1060 C.2     1  UNL1        0.0100
     27  C         20.2160  -22.4910   -8.1100 C.2     1  UNL1        0.0300
     28  C         16.8460  -22.8870   -6.2740 C.3     1  UNL1       -0.0120
     29  C         15.4330  -22.4800   -6.7870 C.3     1  UNL1        0.0190
     30  C         14.3690  -22.6620   -5.6900 C.3     1  UNL1       -0.0130
     31  C         14.3460  -24.1350   -5.2470 C.3     1  UNL1        0.0090
     32  C         14.7200  -21.7770   -4.4870 C.3     1  UNL1        0.0090
     33  C         15.7180  -24.5410   -4.6870 C.3     1  UNL1       -0.0130
     34  C         16.7860  -24.3630   -5.7800 C.3     1  UNL1        0.0190
     35  C         16.0620  -23.6450   -3.4890 C.3     1  UNL1        0.0090
     36  C         16.0950  -22.1750   -3.9300 C.3     1  UNL1       -0.0130
     37  C         17.1560  -21.9990   -5.0290 C.3     1  UNL1        0.0190
@<TRIPOS>BOND
     1    16    18    1
     2    16    15    2
     3    14    15    1
     4    14    13    1
     5    18    19    2
     6    15    17    1
     7    13    12    1
     8    19    20    1
     9    17    20    2
    10    17    21    1
    11    11    12    1
    12    11     8    1
    13    12    21    1
    14     8     7    2
    15     8     9    1
    16     7     6    1
    17     9    10    2
    18     6     5    2
    19    10     5    1
    20     5     2    1
    21     4     3    1
    22     3     2   am
    23     3    22    1
    24     2     1    2
    25    23    22    2
    26    23    24    1
    27    22    27    1
    28    24    25    2
    29    27    26    2
    30    25    26    1
    31    25    28    1
    32    29    28    1
    33    29    30    1
    34    28    34    1
    35    28    37    1
    36    34    33    1
    37    30    31    1
    38    30    32    1
    39    31    33    1
    40    37    36    1
    41    33    35    1
    42    32    36    1
    43    36    35    1
