@<TRIPOS>MOLECULE
47782_out_ligand_01.pdbqt
 37 41 0 0 0
SMALL
GASTEIGER

@<TRIPOS>ATOM
      1  O         19.0600  -21.1960   -6.3250 O.2     1  UNL1       -0.2670
      2  C         19.3660  -22.3400   -6.6430 C.2     1  UNL1        0.2560
      3  N         18.6550  -23.4810   -6.3230 N.am    1  UNL1       -0.3220
      4  H         18.9990  -24.3740   -6.6700 H       1  UNL1        0.1690
      5  C         20.6180  -22.5410   -7.4490 C.2     1  UNL1        0.0320
      6  C         20.7300  -23.7270   -8.1920 C.2     1  UNL1        0.0170
      7  C         21.8650  -23.9810   -8.9690 C.2     1  UNL1        0.0100
      8  C         22.9140  -23.0550   -9.0220 C.2     1  UNL1       -0.0300
      9  C         22.8010  -21.8710   -8.2820 C.2     1  UNL1        0.0100
     10  C         21.6610  -21.6100   -7.5110 C.2     1  UNL1        0.0170
     11  C         24.1450  -23.3310   -9.8610 C.3     1  UNL1        0.3110
     12  N         24.5060  -22.3290  -10.8700 N.3     1  UNL1        0.0970
     13  C         25.8310  -21.7340  -10.6770 C.3     1  UNL1        0.2770
     14  C         25.9800  -20.4680  -11.5340 C.3     1  UNL1        0.0690
     15  C         25.5180  -20.6630  -12.9580 C.2     1  UNL1       -0.0490
     16  C         25.8510  -19.7230  -13.9410 C.2     1  UNL1        0.0070
     17  C         24.7010  -21.7580  -13.2870 C.2     1  UNL1       -0.0240
     18  C         25.3990  -19.8820  -15.2510 C.2     1  UNL1        0.0010
     19  C         24.6070  -20.9790  -15.5850 C.2     1  UNL1        0.0010
     20  C         24.2610  -21.9140  -14.6100 C.2     1  UNL1        0.0090
     21  C         24.3560  -22.8080  -12.2500 C.3     1  UNL1        0.3110
     22  C         17.4360  -23.5930   -5.6070 C.2     1  UNL1        0.0500
     23  C         17.3920  -23.7480   -4.2160 C.2     1  UNL1        0.0300
     24  C         16.1710  -23.8090   -3.5370 C.2     1  UNL1        0.0020
     25  C         14.9730  -23.7140   -4.2370 C.2     1  UNL1        0.0010
     26  C         14.9900  -23.5720   -5.6240 C.2     1  UNL1        0.0190
     27  C         16.2120  -23.5310   -6.3180 C.2     1  UNL1        0.0580
     28  C         16.2110  -23.4260   -7.8100 C.2     1  UNL1        0.2540
     29  O         15.4540  -24.1250   -8.4780 O.2     1  UNL1       -0.2680
     30  N         17.0480  -22.4790   -8.3680 N.am    1  UNL1       -0.3520
     31  H         17.5630  -21.8480   -7.7690 H       1  UNL1        0.1630
     32  C         17.1200  -22.2720   -9.8080 C.3     1  UNL1        0.0840
     33  C         17.0500  -20.7810  -10.1460 C.3     1  UNL1        0.0250
     34  C         17.0150  -20.5380  -11.6570 C.3     1  UNL1        0.0020
     35  C         17.7280  -21.6210  -12.4690 C.3     1  UNL1        0.0000
     36  C         18.8730  -22.2510  -11.6880 C.3     1  UNL1        0.0020
     37  C         18.3920  -22.9120  -10.3930 C.3     1  UNL1        0.0250
@<TRIPOS>BOND
     1    19    18    2
     2    19    20    1
     3    18    16    1
     4    20    17    2
     5    16    15    2
     6    17    15    1
     7    17    21    1
     8    15    14    1
     9    35    36    1
    10    35    34    1
    11    21    12    1
    12    36    37    1
    13    34    33    1
    14    14    13    1
    15    12    13    1
    16    12    11    1
    17    37    32    1
    18    33    32    1
    19    11     8    1
    20    32    30    1
    21     8     7    2
    22     8     9    1
    23     7     6    1
    24    29    28    2
    25    30    28   am
    26    30    31    1
    27     9    10    2
    28     6     5    2
    29    28    27    1
    30    10     5    1
    31     5     2    1
    32     4     3    1
    33     2     1    2
    34     2     3   am
    35     3    22    1
    36    27    26    1
    37    27    22    2
    38    26    25    2
    39    22    23    1
    40    25    24    1
    41    23    24    2
