@<TRIPOS>MOLECULE
47789_out_ligand_01.pdbqt
 31 35 0 0 0
SMALL
GASTEIGER

@<TRIPOS>ATOM
      1  C         22.8090  -22.8350  -10.7300 C.2     1  UNL1        0.0320
      2  C         23.0760  -23.5740   -9.5720 C.2     1  UNL1        0.0170
      3  C         22.0230  -23.9960   -8.7550 C.2     1  UNL1        0.0100
      4  C         20.6930  -23.6960   -9.0900 C.2     1  UNL1       -0.0300
      5  C         20.4340  -22.9680  -10.2600 C.2     1  UNL1        0.0100
      6  C         21.4840  -22.5460  -11.0780 C.2     1  UNL1        0.0170
      7  C         23.9000  -22.3650  -11.6300 C.2     1  UNL1        0.2560
      8  O         25.0470  -22.3660  -11.2010 O.2     1  UNL1       -0.2670
      9  N         23.4880  -22.0080  -12.9020 N.am    1  UNL1       -0.3230
     10  H         22.5230  -22.1970  -13.1380 H       1  UNL1        0.1690
     11  C         24.2830  -21.4930  -13.9470 C.2     1  UNL1        0.0370
     12  C         24.5480  -22.3500  -15.0260 C.2     1  UNL1        0.0320
     13  C         25.3160  -21.9190  -16.1110 C.2     1  UNL1        0.0420
     14  C         25.8210  -20.6230  -16.1280 C.2     1  UNL1        0.1020
     15  C         25.5820  -19.7690  -15.0490 C.2     1  UNL1        0.1040
     16  O         26.5470  -20.2590  -17.2330 O.2     1  UNL1       -0.3460
     17  C         24.8030  -20.1970  -13.9690 C.2     1  UNL1        0.0690
     18  O         26.0730  -18.4890  -14.9850 O.2     1  UNL1       -0.3460
     19  C         27.1200  -18.2830  -15.9410 C.3     1  UNL1        0.2020
     20  C         26.7190  -18.8390  -17.2980 C.3     1  UNL1        0.2020
     21  C         19.5540  -24.1560   -8.2000 C.3     1  UNL1        0.3110
     22  N         18.3550  -23.3130   -8.3270 N.3     1  UNL1        0.0970
     23  C         17.1380  -24.0140   -7.8860 C.3     1  UNL1        0.2770
     24  C         17.1120  -24.3670   -6.3900 C.3     1  UNL1        0.0690
     25  C         17.6190  -23.2480   -5.5150 C.2     1  UNL1       -0.0490
     26  C         17.4540  -23.3170   -4.1250 C.2     1  UNL1        0.0070
     27  C         18.3150  -22.1650   -6.0830 C.2     1  UNL1       -0.0240
     28  C         17.9570  -22.3080   -3.3050 C.2     1  UNL1        0.0010
     29  C         18.6330  -21.2270   -3.8650 C.2     1  UNL1        0.0010
     30  C         18.8080  -21.1520   -5.2460 C.2     1  UNL1        0.0090
     31  C         18.4750  -22.0430   -7.5840 C.3     1  UNL1        0.3110
@<TRIPOS>BOND
     1    20    16    1
     2    20    19    1
     3    16    14    1
     4    14    13    2
     5    14    15    1
     6    13    12    1
     7    19    18    1
     8    15    18    1
     9    15    17    2
    10    12    11    2
    11    17    11    1
    12    11     9    1
    13    10     9    1
    14     9     7   am
    15     7     8    2
    16     7     1    1
    17     6     1    2
    18     6     5    1
    19     1     2    1
    20     5     4    2
    21     2     3    2
    22     4     3    1
    23     4    21    1
    24    22    21    1
    25    22    23    1
    26    22    31    1
    27    23    24    1
    28    31    27    1
    29    24    25    1
    30    27    25    2
    31    27    30    1
    32    25    26    1
    33    30    29    2
    34    26    28    2
    35    29    28    1
