@<TRIPOS>MOLECULE
47785_out_ligand_01.pdbqt
 29 32 0 0 0
SMALL
GASTEIGER

@<TRIPOS>ATOM
      1  C         20.7040  -22.4760   -7.5920 C.2     1  UNL1        0.0320
      2  C         20.6660  -23.6350   -8.3760 C.2     1  UNL1        0.0170
      3  C         21.7310  -23.9340   -9.2310 C.2     1  UNL1        0.0100
      4  C         22.8520  -23.0920   -9.3040 C.2     1  UNL1       -0.0300
      5  C         22.8830  -21.9390   -8.5050 C.2     1  UNL1        0.0100
      6  C         21.8220  -21.6360   -7.6490 C.2     1  UNL1        0.0170
      7  C         19.5910  -22.1190   -6.6670 C.2     1  UNL1        0.2560
      8  N         18.6210  -23.0970   -6.5300 N.am    1  UNL1       -0.3220
      9  H         18.7010  -23.8860   -7.1550 H       1  UNL1        0.1690
     10  O         19.6060  -21.0090   -6.1500 O.2     1  UNL1       -0.2670
     11  C         17.4770  -23.0810   -5.6930 C.2     1  UNL1        0.0410
     12  C         17.5030  -23.6180   -4.4020 C.2     1  UNL1        0.0300
     13  C         16.3670  -23.6030   -3.5970 C.2     1  UNL1        0.0030
     14  C         15.1840  -23.0520   -4.0710 C.2     1  UNL1        0.0070
     15  C         15.1160  -22.5080   -5.3630 C.2     1  UNL1       -0.0540
     16  C         13.8020  -21.9280   -5.8170 C.3     1  UNL1        0.0490
     17  C         16.2690  -22.5200   -6.1880 C.2     1  UNL1       -0.0290
     18  C         16.2160  -21.9380   -7.5820 C.3     1  UNL1        0.0510
     19  C         24.0060  -23.4210  -10.2290 C.3     1  UNL1        0.3110
     20  N         24.4800  -22.3520  -11.1140 N.3     1  UNL1        0.0970
     21  C         25.8150  -21.8450  -10.7820 C.3     1  UNL1        0.2770
     22  C         26.0700  -20.5100  -11.4970 C.3     1  UNL1        0.0690
     23  C         25.7050  -20.5500  -12.9600 C.2     1  UNL1       -0.0490
     24  C         26.1500  -19.5410  -13.8250 C.2     1  UNL1        0.0070
     25  C         24.8640  -21.5670  -13.4480 C.2     1  UNL1       -0.0240
     26  C         25.7840  -19.5550  -15.1700 C.2     1  UNL1        0.0010
     27  C         24.9680  -20.5720  -15.6610 C.2     1  UNL1        0.0010
     28  C         24.5130  -21.5750  -14.8050 C.2     1  UNL1        0.0090
     29  C         24.4010  -22.6910  -12.5410 C.3     1  UNL1        0.3110
@<TRIPOS>BOND
     1    27    26    2
     2    27    28    1
     3    26    24    1
     4    28    25    2
     5    24    23    2
     6    25    23    1
     7    25    29    1
     8    23    22    1
     9    29    20    1
    10    22    21    1
    11    20    21    1
    12    20    19    1
    13    19     4    1
    14     4     3    2
    15     4     5    1
    16     3     2    1
    17     5     6    2
    18     2     1    2
    19     6     1    1
    20     1     7    1
    21    18    17    1
    22     9     8    1
    23     7     8   am
    24     7    10    2
    25     8    11    1
    26    17    11    2
    27    17    15    1
    28    16    15    1
    29    11    12    1
    30    15    14    2
    31    12    13    2
    32    14    13    1
