@<TRIPOS>MOLECULE
47788_out_ligand_01.pdbqt
 30 33 0 0 0
SMALL
GASTEIGER

@<TRIPOS>ATOM
      1  C         22.2390  -22.5280  -10.7860 C.2     1  UNL1        0.0320
      2  C         20.9550  -22.1550  -11.1990 C.2     1  UNL1        0.0170
      3  C         19.8960  -22.1580  -10.2880 C.2     1  UNL1        0.0100
      4  C         20.1100  -22.5230   -8.9510 C.2     1  UNL1       -0.0300
      5  C         21.4040  -22.8790   -8.5410 C.2     1  UNL1        0.0100
      6  C         22.4650  -22.8770   -9.4500 C.2     1  UNL1        0.0170
      7  C         23.3410  -22.5110  -11.7900 C.2     1  UNL1        0.2560
      8  O         24.2820  -23.2800  -11.6380 O.2     1  UNL1       -0.2670
      9  N         23.1970  -21.5680  -12.7950 N.am    1  UNL1       -0.3230
     10  H         22.4280  -20.9180  -12.6980 H       1  UNL1        0.1690
     11  C         24.0560  -21.3500  -13.8930 C.2     1  UNL1        0.0370
     12  C         25.0380  -20.3560  -13.9300 C.2     1  UNL1        0.0290
     13  C         25.8600  -20.1990  -15.0520 C.2     1  UNL1        0.0050
     14  C         25.7110  -21.0360  -16.1540 C.2     1  UNL1        0.0360
     15  C         24.7340  -22.0350  -16.1210 C.2     1  UNL1        0.1050
     16  C         23.9080  -22.1960  -14.9980 C.2     1  UNL1        0.0650
     17  N         24.5680  -22.9280  -17.2750 N.pl3   1  UNL1       -0.1160
     18  O         25.5860  -23.2520  -17.9030 O.2     1  UNL1       -0.5320
     19  O         23.4200  -23.3050  -17.5530 O.2     1  UNL1       -0.5320
     20  C         18.9610  -22.5260   -7.9610 C.3     1  UNL1        0.3110
     21  N         18.1830  -23.7730   -7.9910 N.3     1  UNL1        0.0970
     22  C         16.9180  -23.6190   -8.7300 C.3     1  UNL1        0.2770
     23  C         15.9190  -22.6460   -8.0850 C.3     1  UNL1        0.0690
     24  C         15.8290  -22.8030   -6.5880 C.2     1  UNL1       -0.0490
     25  C         14.8120  -22.1550   -5.8760 C.2     1  UNL1        0.0070
     26  C         16.8020  -23.5480   -5.8950 C.2     1  UNL1       -0.0240
     27  C         14.7460  -22.2620   -4.4860 C.2     1  UNL1        0.0010
     28  C         15.6980  -23.0120   -3.7990 C.2     1  UNL1        0.0010
     29  C         16.7190  -23.6550   -4.4990 C.2     1  UNL1        0.0090
     30  C         17.8900  -24.2920   -6.6410 C.3     1  UNL1        0.3110
@<TRIPOS>BOND
     1    18    17    2
     2    19    17    2
     3    17    15    1
     4    14    15    2
     5    14    13    1
     6    15    16    1
     7    13    12    2
     8    16    11    2
     9    12    11    1
    10    11     9    1
    11     9    10    1
    12     9     7   am
    13     7     8    2
    14     7     1    1
    15     2     1    2
    16     2     3    1
    17     1     6    1
    18     3     4    2
    19     6     5    2
    20     4     5    1
    21     4    20    1
    22    22    23    1
    23    22    21    1
    24    23    24    1
    25    21    20    1
    26    21    30    1
    27    30    26    1
    28    24    26    2
    29    24    25    1
    30    26    29    1
    31    25    27    2
    32    29    28    2
    33    27    28    1
