@<TRIPOS>MOLECULE
47793_out_ligand_01.pdbqt
 32 35 0 0 0
SMALL
GASTEIGER

@<TRIPOS>ATOM
      1  C         19.8350  -22.0220  -11.2220 C.2     1  UNL1        0.0320
      2  C         18.6890  -21.3180  -11.6090 C.2     1  UNL1        0.0170
      3  C         17.4570  -21.6020  -11.0140 C.2     1  UNL1        0.0100
      4  C         17.3500  -22.5830  -10.0160 C.2     1  UNL1       -0.0300
      5  C         18.5020  -23.2770   -9.6230 C.2     1  UNL1        0.0100
      6  C         19.7350  -22.9950  -10.2170 C.2     1  UNL1        0.0170
      7  C         21.1810  -21.7570  -11.8160 C.2     1  UNL1        0.2560
      8  N         22.1960  -22.5840  -11.3780 N.am    1  UNL1       -0.3220
      9  H         21.9740  -23.2410  -10.6280 H       1  UNL1        0.1690
     10  O         21.2890  -20.8340  -12.6170 O.2     1  UNL1       -0.2670
     11  C         23.5660  -22.5780  -11.7460 C.2     1  UNL1        0.0500
     12  C         23.9900  -22.2700  -13.0440 C.2     1  UNL1        0.0300
     13  C         25.3490  -22.2390  -13.3720 C.2     1  UNL1        0.0020
     14  C         26.3090  -22.5120  -12.4040 C.2     1  UNL1        0.0010
     15  C         25.9130  -22.8340  -11.1080 C.2     1  UNL1        0.0190
     16  C         24.5480  -22.8900  -10.7720 C.2     1  UNL1        0.0580
     17  C         24.1440  -23.2780   -9.3850 C.2     1  UNL1        0.2510
     18  N         24.7710  -24.3490   -8.8090 N.am    1  UNL1       -0.3660
     19  H         24.3830  -24.6650   -7.9280 H       1  UNL1        0.1590
     20  H         25.2750  -25.0340   -9.3550 H       1  UNL1        0.1590
     21  O         23.2440  -22.6980   -8.7850 O.2     1  UNL1       -0.2680
     22  C         16.0090  -22.8910   -9.3810 C.3     1  UNL1        0.3110
     23  N         16.0190  -22.7880   -7.9120 N.3     1  UNL1        0.0970
     24  C         15.8900  -24.1240   -7.3070 C.3     1  UNL1        0.2770
     25  C         15.6990  -24.0160   -5.7890 C.3     1  UNL1        0.0690
     26  C         16.7220  -23.1170   -5.1440 C.2     1  UNL1       -0.0490
     27  C         16.9210  -23.1570   -3.7570 C.2     1  UNL1        0.0070
     28  C         17.4320  -22.1920   -5.9270 C.2     1  UNL1       -0.0240
     29  C         17.8420  -22.3010   -3.1540 C.2     1  UNL1        0.0010
     30  C         18.5630  -21.3960   -3.9280 C.2     1  UNL1        0.0010
     31  C         18.3620  -21.3430   -5.3080 C.2     1  UNL1        0.0090
     32  C         17.2600  -22.1460   -7.4320 C.3     1  UNL1        0.3110
@<TRIPOS>BOND
     1    13    12    1
     2    13    14    2
     3    12    11    2
     4    10     7    2
     5    14    15    1
     6     7     8   am
     7     7     1    1
     8    11     8    1
     9    11    16    1
    10     2     1    2
    11     2     3    1
    12     8     9    1
    13     1     6    1
    14    15    16    2
    15     3     4    2
    16    16    17    1
    17     6     5    2
    18     4     5    1
    19     4    22    1
    20    17    18   am
    21    17    21    2
    22    22    23    1
    23    20    18    1
    24    18    19    1
    25    23    32    1
    26    23    24    1
    27    32    28    1
    28    24    25    1
    29    28    31    1
    30    28    26    2
    31    25    26    1
    32    31    30    2
    33    26    27    1
    34    30    29    1
    35    27    29    2
