@<TRIPOS>MOLECULE
47796_out_ligand_01.pdbqt
 33 35 0 0 0
SMALL
GASTEIGER

@<TRIPOS>ATOM
      1  C         18.4980  -23.8070   -7.4010 C.2     1  UNL1       -0.0060
      2  C         19.3270  -24.3340   -8.3910 C.2     1  UNL1        0.0150
      3  C         20.5580  -23.7410   -8.6340 C.2     1  UNL1        0.0200
      4  C         20.9650  -22.6210   -7.8950 C.2     1  UNL1        0.0120
      5  C         20.1140  -22.0530   -6.9010 C.2     1  UNL1       -0.0080
      6  C         20.4560  -20.9030   -6.1450 C.2     1  UNL1        0.0130
      7  C         19.6030  -20.3700   -5.1780 C.2     1  UNL1        0.0010
      8  C         18.3750  -20.9660   -4.9410 C.2     1  UNL1        0.0010
      9  C         18.0030  -22.0920   -5.6710 C.2     1  UNL1        0.0130
     10  C         18.8540  -22.6590   -6.6510 C.2     1  UNL1       -0.0130
     11  C         17.2120  -24.4990   -7.2020 C.2     1  UNL1        0.1500
     12  N         16.0310  -24.0870   -7.5560 N.2     1  UNL1       -0.1860
     13  N         15.9160  -22.8650   -8.1590 N.pl3   1  UNL1       -0.2430
     14  H         16.1850  -22.0390   -7.6370 H       1  UNL1        0.1890
     15  C         16.0700  -22.7580   -9.6060 C.3     1  UNL1        0.4100
     16  F         16.4010  -23.9770  -10.1030 F       1  UNL1       -0.1740
     17  F         14.8240  -22.4870  -10.0870 F       1  UNL1       -0.1740
     18  C         17.0490  -21.6840  -10.0620 C.3     1  UNL1        0.4240
     19  F         16.3700  -20.6060  -10.5670 F       1  UNL1       -0.1870
     20  F         17.7970  -21.1950   -9.0310 F       1  UNL1       -0.1870
     21  C         17.9470  -22.2830  -11.1190 C.3     1  UNL1        0.4630
     22  F         17.6360  -21.8580  -12.3670 F       1  UNL1       -0.1650
     23  F         19.2440  -21.9350  -10.9100 F       1  UNL1       -0.1650
     24  F         17.9110  -23.6350  -11.1380 F       1  UNL1       -0.1650
     25  S         22.5920  -21.9640   -8.2920 S.3     1  UNL1       -0.1240
     26  C         23.1650  -23.3050   -9.3860 C.3     1  UNL1        0.1170
     27  C         23.4510  -22.7940  -10.7760 C.2     1  UNL1       -0.0490
     28  C         24.7490  -22.8590  -11.3060 C.2     1  UNL1        0.0090
     29  C         25.0170  -22.3750  -12.5880 C.2     1  UNL1        0.0190
     30  C         23.9900  -21.8180  -13.3450 C.2     1  UNL1        0.0110
     31 BR         24.3530  -21.1620  -15.0800 Br      1  UNL1       -0.0510
     32  C         22.6970  -21.7370  -12.8320 C.2     1  UNL1        0.0190
     33  C         22.4290  -22.2210  -11.5500 C.2     1  UNL1        0.0090
@<TRIPOS>BOND
     1    31    30    1
     2    30    32    2
     3    30    29    1
     4    32    33    1
     5    29    28    2
     6    22    21    1
     7    33    27    2
     8    28    27    1
     9    24    21    1
    10    21    23    1
    11    21    18    1
    12    27    26    1
    13    19    18    1
    14    16    15    1
    15    17    15    1
    16    18    15    1
    17    18    20    1
    18    15    13    1
    19    26    25    1
    20     3     2    1
    21     3     4    2
    22     2     1    2
    23    25     4    1
    24    13    14    1
    25    13    12    1
    26     4     5    1
    27    12    11    2
    28     1    11    1
    29     1    10    1
    30     5    10    2
    31     5     6    1
    32    10     9    1
    33     6     7    2
    34     9     8    2
    35     7     8    1
