@<TRIPOS>MOLECULE
477_out_ligand_01.pdbqt
 39 41 0 0 0
SMALL
GASTEIGER

@<TRIPOS>ATOM
      1  C         21.5320  -21.8050  -11.8170 C.2     1  UNL1        0.2560
      2  O         21.4240  -20.9140  -12.6510 O.2     1  UNL1       -0.2670
      3  N         22.6660  -22.5480  -11.5440 N.am    1  UNL1       -0.3230
      4  H         22.5450  -23.3710  -10.9650 H       1  UNL1        0.1690
      5  C         20.3230  -22.1920  -11.0360 C.2     1  UNL1        0.0320
      6  C         19.0380  -21.7700  -11.4110 C.2     1  UNL1        0.0180
      7  C         17.9280  -22.1630  -10.6580 C.2     1  UNL1        0.0260
      8  C         18.1060  -22.9900   -9.5440 C.2     1  UNL1        0.0790
      9  C         19.3820  -23.4160   -9.1640 C.2     1  UNL1        0.0260
     10  C         20.4880  -23.0250   -9.9210 C.2     1  UNL1        0.0180
     11  S         16.6910  -23.4670   -8.5800 S.O2    1  UNL1        0.2630
     12  O         17.1480  -24.4550   -7.6250 O.2     1  UNL1       -0.2000
     13  O         15.5940  -23.7540   -9.4780 O.2     1  UNL1       -0.2000
     14  N         16.3590  -22.0740   -7.6840 N.pl3   1  UNL1       -0.2800
     15  H         16.8350  -21.2630   -8.0780 H       1  UNL1        0.1790
     16  C         16.3140  -22.1790   -6.2630 C.2     1  UNL1        0.0490
     17  C         15.1030  -22.5490   -5.6730 C.2     1  UNL1        0.0310
     18  C         15.0100  -22.6880   -4.2940 C.2     1  UNL1        0.0030
     19  C         16.1250  -22.4460   -3.4980 C.2     1  UNL1        0.0070
     20  C         17.3500  -22.0630   -4.0700 C.2     1  UNL1       -0.0540
     21  C         18.5170  -21.8030   -3.1540 C.3     1  UNL1        0.0490
     22  C         17.4610  -21.9530   -5.4760 C.2     1  UNL1       -0.0290
     23  C         18.7620  -21.5360   -6.1150 C.3     1  UNL1        0.0510
     24  C         23.9570  -22.3580  -12.0830 C.2     1  UNL1        0.0360
     25  C         24.6300  -23.3100  -12.8490 C.2     1  UNL1        0.0460
     26  C         25.9120  -23.0390  -13.3490 C.2     1  UNL1        0.0350
     27  C         26.5260  -21.8050  -13.0990 C.2     1  UNL1        0.0340
     28  C         25.8560  -20.8480  -12.3350 C.2     1  UNL1        0.0350
     29  C         24.5720  -21.1240  -11.8400 C.2     1  UNL1        0.0460
     30  C         26.5810  -24.0680  -14.1840 C.2     1  UNL1        0.2490
     31  N         27.1200  -23.6480  -15.3700 N.am    1  UNL1       -0.3660
     32  H         27.3530  -22.6780  -15.5250 H       1  UNL1        0.1590
     33  H         27.6940  -24.3350  -15.8420 H       1  UNL1        0.1590
     34  O         26.6740  -25.2330  -13.8250 O.2     1  UNL1       -0.2680
     35  C         26.4390  -19.5120  -12.0470 C.2     1  UNL1        0.2490
     36  N         26.7380  -18.7070  -13.1090 N.am    1  UNL1       -0.3660
     37  H         26.8120  -19.0510  -14.0550 H       1  UNL1        0.1590
     38  H         27.2440  -17.8580  -12.8870 H       1  UNL1        0.1590
     39  O         26.6790  -19.1550  -10.9010 O.2     1  UNL1       -0.2680
@<TRIPOS>BOND
     1    33    31    1
     2    32    31    1
     3    31    30   am
     4    30    34    2
     5    30    26    1
     6    37    36    1
     7    26    27    2
     8    26    25    1
     9    36    38    1
    10    36    35   am
    11    27    28    1
    12    25    24    2
    13     2     1    2
    14    28    35    1
    15    28    29    2
    16    24    29    1
    17    24     3    1
    18    35    39    2
    19     1     3   am
    20     1     5    1
    21     3     4    1
    22     6     5    2
    23     6     7    1
    24     5    10    1
    25     7     8    2
    26    10     9    2
    27     8     9    1
    28     8    11    1
    29    13    11    2
    30    11    14    1
    31    11    12    2
    32    15    14    1
    33    14    16    1
    34    16    17    2
    35    16    22    1
    36    23    22    1
    37    17    18    1
    38    22    20    2
    39    18    19    2
    40    20    19    1
    41    20    21    1
