@<TRIPOS>MOLECULE
47806_out_ligand_01.pdbqt
 33 35 0 0 0
SMALL
GASTEIGER

@<TRIPOS>ATOM
      1  C         21.3340  -22.8990   -8.1320 C.2     1  UNL1        0.0120
      2  C         20.7890  -24.0450   -8.7250 C.2     1  UNL1        0.0200
      3  C         19.5160  -24.4750   -8.3810 C.2     1  UNL1        0.0150
      4  C         18.7770  -23.7640   -7.4310 C.2     1  UNL1       -0.0060
      5  C         19.2860  -22.5900   -6.8190 C.2     1  UNL1       -0.0130
      6  C         18.5630  -21.8520   -5.8480 C.2     1  UNL1        0.0130
      7  C         19.0810  -20.6980   -5.2640 C.2     1  UNL1        0.0010
      8  C         20.3370  -20.2480   -5.6310 C.2     1  UNL1        0.0010
      9  C         21.0780  -20.9610   -6.5730 C.2     1  UNL1        0.0130
     10  C         20.5870  -22.1440   -7.1820 C.2     1  UNL1       -0.0080
     11  C         17.4020  -24.2310   -7.1400 C.2     1  UNL1        0.1440
     12  N         16.3560  -24.2200   -7.9170 N.2     1  UNL1       -0.2080
     13  N         16.5230  -23.8420   -9.2250 N.pl3   1  UNL1       -0.1460
     14  H         17.3020  -24.3410   -9.6490 H       1  UNL1        0.1550
     15  C         16.6230  -22.4150   -9.5570 C.3     1  UNL1        0.3920
     16  F         15.5040  -22.1520  -10.2980 F       1  UNL1       -0.1790
     17  F         16.4850  -21.6700   -8.4290 F       1  UNL1       -0.1790
     18  C         17.8370  -21.9640  -10.3610 C.3     1  UNL1        0.4180
     19  F         18.3720  -23.0510  -11.0100 F       1  UNL1       -0.1880
     20  F         18.8270  -21.5240   -9.5230 F       1  UNL1       -0.1880
     21  C         17.4810  -20.9040  -11.3770 C.3     1  UNL1        0.4620
     22  F         16.9510  -21.4150  -12.5130 F       1  UNL1       -0.1650
     23  F         16.6260  -19.9690  -10.9140 F       1  UNL1       -0.1650
     24  F         18.5990  -20.2200  -11.7550 F       1  UNL1       -0.1650
     25  S         23.0010  -22.4640   -8.6470 S.3     1  UNL1       -0.1240
     26  C         23.0850  -23.4860  -10.1560 C.3     1  UNL1        0.1210
     27  C         22.8880  -22.6580  -11.3960 C.2     1  UNL1       -0.0100
     28  C         21.6500  -22.0590  -11.6760 C.2     1  UNL1        0.0110
     29  C         21.4790  -21.2990  -12.8360 C.2     1  UNL1        0.0010
     30  C         22.5380  -21.1300  -13.7290 C.2     1  UNL1        0.0030
     31  C         23.7690  -21.7260  -13.4620 C.2     1  UNL1        0.0430
     32  C         23.9340  -22.4830  -12.3050 C.2     1  UNL1        0.1230
     33  F         25.1280  -23.0440  -12.0690 F       1  UNL1       -0.2060
@<TRIPOS>BOND
     1    30    31    2
     2    30    29    1
     3    31    32    1
     4    29    28    2
     5    22    21    1
     6    32    33    1
     7    32    27    2
     8    24    21    1
     9    28    27    1
    10    27    26    1
    11    21    23    1
    12    21    18    1
    13    19    18    1
    14    18    15    1
    15    18    20    1
    16    16    15    1
    17    26    25    1
    18    14    13    1
    19    15    13    1
    20    15    17    1
    21    13    12    1
    22     2     3    1
    23     2     1    2
    24    25     1    1
    25     3     4    2
    26     1    10    1
    27    12    11    2
    28     4    11    1
    29     4     5    1
    30    10     5    2
    31    10     9    1
    32     5     6    1
    33     9     8    2
    34     6     7    2
    35     8     7    1
