@<TRIPOS>MOLECULE
47812_out_ligand_01.pdbqt
 34 36 0 0 0
SMALL
GASTEIGER

@<TRIPOS>ATOM
      1  N         24.1390  -21.0280  -15.9110 N.1     1  UNL1       -0.1910
      2  C         23.9880  -21.4040  -14.8240 C.1     1  UNL1        0.0990
      3  C         23.8030  -21.8660  -13.4800 C.2     1  UNL1        0.0440
      4  C         24.8700  -22.4410  -12.7820 C.2     1  UNL1        0.0230
      5  C         24.6890  -22.8910  -11.4710 C.2     1  UNL1        0.0090
      6  C         23.4420  -22.7690  -10.8410 C.2     1  UNL1       -0.0490
      7  C         22.3750  -22.1970  -11.5500 C.2     1  UNL1        0.0090
      8  C         22.5550  -21.7460  -12.8610 C.2     1  UNL1        0.0230
      9  C         23.2440  -23.2700   -9.4320 C.3     1  UNL1        0.1170
     10  S         22.6630  -21.9380   -8.3320 S.3     1  UNL1       -0.1240
     11  C         21.0440  -22.6120   -7.9300 C.2     1  UNL1        0.0120
     12  C         20.6610  -23.7530   -8.6450 C.2     1  UNL1        0.0200
     13  C         19.4250  -24.3420   -8.4160 C.2     1  UNL1        0.0150
     14  C         18.5580  -23.7870   -7.4710 C.2     1  UNL1       -0.0060
     15  C         18.9130  -22.6420   -6.7160 C.2     1  UNL1       -0.0130
     16  C         18.0500  -22.0600   -5.7540 C.2     1  UNL1        0.0130
     17  C         20.1830  -22.0450   -6.9430 C.2     1  UNL1       -0.0080
     18  C         18.4210  -20.9360   -5.0170 C.2     1  UNL1        0.0010
     19  C         19.6660  -20.3650   -5.2200 C.2     1  UNL1        0.0010
     20  C         20.5320  -20.9110   -6.1680 C.2     1  UNL1        0.0130
     21  C         17.2780  -24.4860   -7.2300 C.2     1  UNL1        0.1500
     22  N         16.0800  -24.1060   -7.5680 N.2     1  UNL1       -0.1860
     23  N         15.9250  -22.8670   -8.1340 N.pl3   1  UNL1       -0.2430
     24  H         15.1450  -22.3250   -7.7800 H       1  UNL1        0.1890
     25  C         16.0550  -22.7420   -9.5840 C.3     1  UNL1        0.4100
     26  F         16.3680  -23.9680  -10.0800 F       1  UNL1       -0.1740
     27  F         14.7960  -22.4820  -10.0350 F       1  UNL1       -0.1740
     28  C         17.0260  -21.6710  -10.0740 C.3     1  UNL1        0.4240
     29  F         17.7660  -21.1400   -9.0580 F       1  UNL1       -0.1870
     30  F         16.3490  -20.6220  -10.6340 F       1  UNL1       -0.1870
     31  C         17.9370  -22.3070  -11.0960 C.3     1  UNL1        0.4630
     32  F         17.6720  -21.8980  -12.3600 F       1  UNL1       -0.1650
     33  F         19.2380  -21.9910  -10.8590 F       1  UNL1       -0.1650
     34  F         17.8660  -23.6600  -11.0950 F       1  UNL1       -0.1650
@<TRIPOS>BOND
     1     1     2    3
     2     2     3    1
     3     3     8    2
     4     3     4    1
     5     8     7    1
     6     4     5    2
     7    32    31    1
     8     7     6    2
     9     5     6    1
    10    31    34    1
    11    31    33    1
    12    31    28    1
    13     6     9    1
    14    30    28    1
    15    26    25    1
    16    28    25    1
    17    28    29    1
    18    27    25    1
    19    25    23    1
    20     9    10    1
    21    12    13    1
    22    12    11    2
    23    13    14    2
    24    10    11    1
    25    23    24    1
    26    23    22    1
    27    11    17    1
    28    22    21    2
    29    14    21    1
    30    14    15    1
    31    17    15    2
    32    17    20    1
    33    15    16    1
    34    20    19    2
    35    16    18    2
    36    19    18    1
