@<TRIPOS>MOLECULE
47811_out_ligand_01.pdbqt
 28 31 0 0 0
SMALL
GASTEIGER

@<TRIPOS>ATOM
      1  C         22.5010  -23.0040   -9.5020 C.2     1  UNL1        0.0570
      2  C         22.6520  -21.9600   -8.5850 C.2     1  UNL1        0.0320
      3  C         21.6420  -21.6770   -7.6630 C.2     1  UNL1        0.0190
      4  C         20.4690  -22.4400   -7.6520 C.2     1  UNL1        0.0320
      5  C         20.3310  -23.5140   -8.5410 C.2     1  UNL1        0.0190
      6  C         21.3480  -23.7940   -9.4580 C.2     1  UNL1        0.0320
      7  N         23.5270  -23.2970  -10.4050 N.2     1  UNL1       -0.2430
      8  C         23.4990  -22.7480  -11.5780 C.2     1  UNL1        0.1370
      9  C         24.5160  -22.9580  -12.6070 C.2     1  UNL1        0.0250
     10  C         22.4720  -21.7780  -12.2050 C.2     1  UNL1        0.2750
     11  C         25.6600  -23.7300  -12.5940 C.2     1  UNL1        0.0160
     12  C         24.1400  -22.1960  -13.7100 C.2     1  UNL1        0.0470
     13  C         26.4430  -23.7210  -13.7510 C.2     1  UNL1        0.0010
     14  C         26.0670  -22.9520  -14.8720 C.2     1  UNL1        0.0020
     15  C         24.9010  -22.1760  -14.8590 C.2     1  UNL1        0.0300
     16  N         22.9540  -21.5110  -13.4720 N.am    1  UNL1       -0.3210
     17  H         22.4810  -20.8990  -14.1180 H       1  UNL1        0.1690
     18  O         21.4580  -21.3490  -11.7030 O.2     1  UNL1       -0.2660
     19  C         19.4130  -22.1010   -6.6610 C.2     1  UNL1        0.2520
     20  O         19.5850  -21.1830   -5.8680 O.2     1  UNL1       -0.2680
     21  N         18.2590  -22.8540   -6.7220 N.am    1  UNL1       -0.3520
     22  H         18.1600  -23.5570   -7.4410 H       1  UNL1        0.1630
     23  C         17.1680  -22.6690   -5.7760 C.3     1  UNL1        0.0840
     24  C         15.8170  -22.8260   -6.4810 C.3     1  UNL1        0.0250
     25  C         14.6520  -22.6980   -5.5040 C.3     1  UNL1        0.0020
     26  C         14.7830  -23.6780   -4.3430 C.3     1  UNL1        0.0000
     27  C         16.1270  -23.5330   -3.6350 C.3     1  UNL1        0.0020
     28  C         17.2950  -23.6580   -4.6080 C.3     1  UNL1        0.0250
@<TRIPOS>BOND
     1    14    15    2
     2    14    13    1
     3    15    12    1
     4    17    16    1
     5    13    11    2
     6    12    16    1
     7    12     9    2
     8    16    10   am
     9     9    11    1
    10     9     8    1
    11    10    18    2
    12    10     8    1
    13     8     7    2
    14     7     1    1
    15     1     6    2
    16     1     2    1
    17     6     5    1
    18     2     3    2
    19     5     4    2
    20     3     4    1
    21     4    19    1
    22    22    21    1
    23    21    19   am
    24    21    23    1
    25    19    20    2
    26    24    23    1
    27    24    25    1
    28    23    28    1
    29    25    26    1
    30    28    27    1
    31    26    27    1
