@<TRIPOS>MOLECULE
4784_out_ligand_01.pdbqt
 35 38 0 0 0
SMALL
GASTEIGER

@<TRIPOS>ATOM
      1  N         18.2080  -22.1710  -10.4060 N.am    1  UNL1       -0.3560
      2  C         18.9310  -21.3900  -11.2740 C.2     1  UNL1        0.2550
      3  O         18.4370  -20.4780  -11.9300 O.2     1  UNL1       -0.2680
      4  H         18.6670  -22.9970  -10.0200 H       1  UNL1        0.1620
      5  C         20.3750  -21.7300  -11.3690 C.2     1  UNL1        0.0790
      6  C         21.0880  -21.3150  -12.4360 C.3     1  UNL1        0.1100
      7  N         22.4510  -21.5630  -12.6550 N.pl3   1  UNL1       -0.3620
      8  C         23.1530  -22.2840  -11.6870 C.2     1  UNL1        0.1100
      9  C         22.5650  -22.7540  -10.5890 C.2     1  UNL1        0.0800
     10  C         23.0220  -23.5280   -9.4380 C.2     1  UNL1        0.2750
     11  C         21.1340  -22.5060  -10.3670 C.2     1  UNL1        0.1110
     12  O         24.1360  -23.9510   -9.2080 O.2     1  UNL1       -0.2660
     13  N         21.8510  -23.6520   -8.6940 N.am    1  UNL1       -0.2420
     14  N         20.7260  -23.0440   -9.2460 N.pl3   1  UNL1       -0.1700
     15  H         21.7940  -24.1570   -7.8150 H       1  UNL1        0.1920
     16  C         23.1470  -21.0200  -13.8450 C.3     1  UNL1        0.1590
     17  C         24.1720  -22.0290  -14.4050 C.3     1  UNL1        0.1390
     18  C         25.5880  -21.4660  -14.4140 C.3     1  UNL1        0.0350
     19  C         25.7010  -20.8600  -15.7900 C.3     1  UNL1        0.0290
     20  C         24.9110  -21.8420  -16.6230 C.3     1  UNL1        0.1680
     21  O         23.8570  -22.3310  -15.7830 O.3     1  UNL1       -0.3840
     22  C         16.7610  -22.1160  -10.3310 C.3     1  UNL1        0.1270
     23  C         16.1590  -23.3540   -9.6590 C.3     1  UNL1        0.0580
     24  C         16.3060  -23.3450   -8.1530 C.2     1  UNL1       -0.0570
     25  C         15.4730  -22.5390   -7.3620 C.2     1  UNL1        0.0090
     26  C         15.5690  -22.5770   -5.9700 C.2     1  UNL1        0.0250
     27  C         16.5070  -23.4190   -5.3680 C.2     1  UNL1        0.0740
     28  C         17.3430  -24.2270   -6.1410 C.2     1  UNL1        0.0250
     29  C         17.2430  -24.1840   -7.5320 C.2     1  UNL1        0.0090
     30  S         16.6000  -23.5050   -3.6000 S.O2    1  UNL1        0.2390
     31  O         17.9760  -23.3040   -3.2060 O.2     1  UNL1       -0.2060
     32  O         15.8200  -24.6350   -3.1530 O.2     1  UNL1       -0.2060
     33  N         15.7820  -22.1020   -3.1530 N.3     1  UNL1       -0.2250
     34  H         16.3880  -21.3990   -2.7320 H       1  UNL1        0.1360
     35  H         15.0000  -22.3530   -2.5450 H       1  UNL1        0.1360
@<TRIPOS>BOND
     1    20    19    1
     2    20    21    1
     3    19    18    1
     4    21    17    1
     5    18    17    1
     6    17    16    1
     7    16     7    1
     8     7     6    1
     9     7     8    1
    10     6     5    1
    11     3     2    2
    12     8     9    2
    13     5     2    1
    14     5    11    2
    15     2     1   am
    16     9    11    1
    17     9    10    1
    18     1    22    1
    19     1     4    1
    20    11    14    1
    21    22    23    1
    22    23    24    1
    23    10    12    2
    24    10    13   am
    25    14    13    1
    26    13    15    1
    27    24    29    2
    28    24    25    1
    29    29    28    1
    30    25    26    2
    31    28    27    2
    32    26    27    1
    33    27    30    1
    34    30    31    2
    35    30    32    2
    36    30    33    1
    37    33    34    1
    38    33    35    1
