@<TRIPOS>MOLECULE
47850_out_ligand_01.pdbqt
 29 32 0 0 0
SMALL
GASTEIGER

@<TRIPOS>ATOM
      1  C         19.2340  -22.0630  -10.6060 C.ar    1  UNL1        0.2030
      2  N         18.3220  -21.3800  -11.2610 N.ar    1  UNL1       -0.1350
      3  N         19.0010  -20.5670  -12.1220 N.ar    1  UNL1        0.0190
      4  N         20.3090  -20.7460  -12.0190 N.ar    1  UNL1        0.0030
      5  N         20.4910  -21.7380  -11.1030 N.ar    1  UNL1       -0.2170
      6  S         18.8590  -23.1140   -9.2860 S.3     1  UNL1       -0.0850
      7  C         17.3640  -22.3350   -8.5980 C.3     1  UNL1        0.1220
      8  C         16.9590  -22.8510   -7.2260 C.2     1  UNL1       -0.0310
      9  C         17.5410  -22.3040   -6.0290 C.2     1  UNL1       -0.0180
     10  C         18.5340  -21.2880   -5.9950 C.2     1  UNL1        0.0130
     11  C         17.1050  -22.7960   -4.7710 C.2     1  UNL1       -0.0250
     12  C         19.0450  -20.7770   -4.7980 C.2     1  UNL1        0.0010
     13  C         18.5920  -21.2700   -3.5860 C.2     1  UNL1        0.0010
     14  C         17.6310  -22.2770   -3.5740 C.2     1  UNL1        0.0120
     15  C         16.1390  -23.8030   -4.7070 C.2     1  UNL1        0.0130
     16  C         15.5840  -24.3390   -5.8660 C.2     1  UNL1        0.0080
     17  C         15.9870  -23.8870   -7.1270 C.2     1  UNL1       -0.0540
     18  C         15.3180  -24.5080   -8.3320 C.3     1  UNL1        0.0490
     19  C         21.8060  -22.2100  -10.8290 C.2     1  UNL1        0.0570
     20  C         22.6840  -22.4170  -11.9080 C.2     1  UNL1        0.0320
     21  C         23.9920  -22.8630  -11.6910 C.2     1  UNL1        0.0190
     22  C         24.4390  -23.1220  -10.3920 C.2     1  UNL1        0.0320
     23  C         23.5690  -22.9250   -9.3170 C.2     1  UNL1        0.0190
     24  C         22.2580  -22.4810   -9.5310 C.2     1  UNL1        0.0320
     25  C         25.8220  -23.5840  -10.1040 C.2     1  UNL1        0.2490
     26  N         25.9770  -24.5730   -9.1730 N.am    1  UNL1       -0.3660
     27  H         25.2510  -24.8220   -8.5140 H       1  UNL1        0.1590
     28  H         26.9330  -24.7770   -8.9070 H       1  UNL1        0.1590
     29  O         26.7930  -23.0820  -10.6570 O.2     1  UNL1       -0.2680
@<TRIPOS>BOND
     1     3     4   ar
     2     3     2   ar
     3     4     5   ar
     4    20    21    1
     5    20    19    2
     6    21    22    2
     7     2     1   ar
     8     5    19    1
     9     5     1   ar
    10    19    24    1
    11    29    25    2
    12     1     6    1
    13    22    25    1
    14    22    23    1
    15    25    26   am
    16    24    23    2
    17     6     7    1
    18    26    28    1
    19    26    27    1
    20     7     8    1
    21    18    17    1
    22     8    17    2
    23     8     9    1
    24    17    16    1
    25     9    10    2
    26     9    11    1
    27    10    12    1
    28    16    15    2
    29    12    13    2
    30    11    15    1
    31    11    14    2
    32    13    14    1
