@<TRIPOS>MOLECULE
47932_out_ligand_01.pdbqt
 28 32 0 0 0
SMALL
GASTEIGER

@<TRIPOS>ATOM
      1  C         21.9740  -21.5600  -12.6880 C.2     1  UNL1        0.0850
      2  C         22.0890  -22.4950  -11.6380 C.2     1  UNL1        0.0600
      3  C         20.9370  -22.3560  -10.8890 C.2     1  UNL1        0.0600
      4  N         20.2170  -21.3750  -11.5150 N.pl3   1  UNL1       -0.2720
      5  N         20.8200  -20.8790  -12.6160 N.2     1  UNL1       -0.1740
      6  C         18.9300  -20.8470  -11.1200 C.3     1  UNL1        0.1530
      7  C         17.8310  -21.9030  -11.0910 C.3     1  UNL1        0.0520
      8  C         18.1520  -23.1570  -10.2650 C.3     1  UNL1        0.2750
      9  N         19.1320  -22.8710   -9.2170 N.3     1  UNL1        0.0980
     10  C         20.5120  -23.1080   -9.6650 C.3     1  UNL1        0.3310
     11  C         18.8390  -23.5500   -7.9400 C.3     1  UNL1        0.3130
     12  C         18.7150  -22.6790   -6.7060 C.2     1  UNL1       -0.0030
     13  C         19.5810  -21.5840   -6.5130 C.2     1  UNL1        0.0110
     14  C         19.4900  -20.7540   -5.3960 C.2     1  UNL1        0.0020
     15  C         18.5250  -20.9880   -4.4150 C.2     1  UNL1        0.0140
     16  C         17.6490  -22.0780   -4.5590 C.2     1  UNL1       -0.0080
     17  C         16.5840  -22.5900   -3.7650 C.2     1  UNL1        0.0300
     18  C         17.7620  -22.8960   -5.6860 C.2     1  UNL1        0.0500
     19  C         16.0780  -23.6950   -4.4070 C.2     1  UNL1        0.0890
     20  N         16.7960  -23.8750   -5.5570 N.pl3   1  UNL1       -0.3650
     21  H         16.6440  -24.6210   -6.2200 H       1  UNL1        0.1650
     22  C         22.9350  -21.2880  -13.8110 C.3     1  UNL1        0.1750
     23  O         22.6310  -20.0430  -14.4560 O.3     1  UNL1       -0.3890
     24  H         22.9060  -19.3690  -13.7980 H       1  UNL1        0.2100
     25  C         24.3670  -21.2070  -13.2950 C.3     1  UNL1        0.0200
     26  C         25.3120  -20.2300  -14.0510 C.3     1  UNL1        0.0070
     27  C         26.4440  -21.2470  -13.8000 C.3     1  UNL1        0.0010
     28  C         25.3510  -22.3320  -13.7220 C.3     1  UNL1        0.0070
@<TRIPOS>BOND
     1    23    22    1
     2    23    24    1
     3    26    27    1
     4    26    25    1
     5    22    25    1
     6    22     1    1
     7    27    28    1
     8    28    25    1
     9     1     5    2
    10     1     2    1
    11     5     4    1
    12     2     3    2
    13     4     6    1
    14     4     3    1
    15     6     7    1
    16     7     8    1
    17     3    10    1
    18     8     9    1
    19    10     9    1
    20     9    11    1
    21    11    12    1
    22    12    13    2
    23    12    18    1
    24    13    14    1
    25    21    20    1
    26    18    20    1
    27    18    16    2
    28    20    19    1
    29    14    15    2
    30    16    15    1
    31    16    17    1
    32    19    17    2
