@<TRIPOS>MOLECULE
47952_out_ligand_01.pdbqt
 29 31 0 0 0
SMALL
GASTEIGER

@<TRIPOS>ATOM
      1  C         17.5600  -23.6450   -6.4160 C.3     1  UNL1        0.1550
      2  C         17.6460  -23.9760   -4.9280 C.3     1  UNL1        0.0610
      3  C         16.9290  -22.9150   -4.0990 C.3     1  UNL1        0.1700
      4  O         15.9330  -22.2000   -4.8310 O.3     1  UNL1       -0.3890
      5  C         15.2090  -23.0230   -5.7500 C.3     1  UNL1        0.1950
      6  C         16.1120  -23.4510   -6.9260 C.3     1  UNL1        0.1370
      7  O         18.3670  -24.4780   -7.2580 O.2     1  UNL1       -0.3440
      8  C         19.5620  -24.0920   -7.7790 C.2     1  UNL1        0.0690
      9  C         19.9130  -22.7720   -7.4700 C.2     1  UNL1        0.0380
     10  C         21.1120  -22.2150   -7.9250 C.2     1  UNL1        0.0200
     11  C         21.9840  -22.9810   -8.7010 C.2     1  UNL1        0.0320
     12  C         21.6250  -24.2920   -9.0340 C.2     1  UNL1        0.0200
     13  C         20.4200  -24.8430   -8.5760 C.2     1  UNL1        0.0380
     14  C         23.2780  -22.4530   -9.2120 C.2     1  UNL1        0.2490
     15  N         24.2860  -23.3480   -9.4410 N.am    1  UNL1       -0.3660
     16  H         25.1060  -22.9750   -9.9050 H       1  UNL1        0.1590
     17  H         24.1210  -24.3390   -9.5210 H       1  UNL1        0.1590
     18  O         23.4360  -21.2630   -9.4560 O.2     1  UNL1       -0.2680
     19  N         16.0910  -22.4720   -8.0210 N.am    1  UNL1       -0.3520
     20  C         15.8340  -22.8540   -9.3230 C.2     1  UNL1        0.2230
     21  O         15.4800  -23.9880   -9.6380 O.2     1  UNL1       -0.2730
     22  H         16.6740  -21.6400   -7.9280 H       1  UNL1        0.1630
     23  C         15.9860  -21.7400  -10.3370 C.3     1  UNL1        0.1610
     24  C         17.3980  -21.6510  -10.8480 C.2     1  UNL1        0.0430
     25  C         18.2460  -22.7530  -10.7930 C.2     1  UNL1        0.0270
     26  C         19.5520  -22.6170  -11.2510 C.2     1  UNL1        0.0030
     27  C         19.9790  -21.3910  -11.7410 C.2     1  UNL1        0.0190
     28  C         19.0760  -20.3400  -11.7520 C.2     1  UNL1        0.1170
     29  N         17.8020  -20.4380  -11.3120 N.2     1  UNL1       -0.2650
@<TRIPOS>BOND
     1    28    27    2
     2    28    29    1
     3    27    26    1
     4    29    24    2
     5    26    25    2
     6    24    25    1
     7    24    23    1
     8    23    20    1
     9    16    15    1
    10    21    20    2
    11    17    15    1
    12    18    14    2
    13    15    14   am
    14    20    19   am
    15    14    11    1
    16    12    11    2
    17    12    13    1
    18    11    10    1
    19    13     8    2
    20    19    22    1
    21    19     6    1
    22    10     9    2
    23     8     9    1
    24     8     7    1
    25     7     1    1
    26     6     1    1
    27     6     5    1
    28     1     2    1
    29     5     4    1
    30     2     3    1
    31     4     3    1
