@<TRIPOS>MOLECULE
4796_out_ligand_01.pdbqt
 29 32 0 0 0
SMALL
GASTEIGER

@<TRIPOS>ATOM
      1  O         20.6200  -24.1990   -9.5290 O.2     1  UNL1       -0.2670
      2  C         20.0170  -23.1830   -9.8510 C.2     1  UNL1        0.2560
      3  N         20.5470  -22.0790  -10.4970 N.am    1  UNL1       -0.3230
      4  H         19.9540  -21.2630  -10.5640 H       1  UNL1        0.1690
      5  C         18.5770  -23.0660   -9.4910 C.2     1  UNL1        0.0350
      6  C         17.6820  -22.3170  -10.2670 C.2     1  UNL1        0.0170
      7  C         16.3360  -22.2420   -9.9010 C.2     1  UNL1        0.0040
      8  C         15.8810  -22.9130   -8.7660 C.2     1  UNL1        0.0370
      9  C         16.7740  -23.6580   -7.9910 C.2     1  UNL1        0.0770
     10  C         18.1150  -23.7570   -8.3640 C.2     1  UNL1        0.0540
     11  O         16.3830  -24.3830   -6.8880 O.2     1  UNL1       -0.3110
     12  C         16.3970  -23.7400   -5.6720 C.2     1  UNL1        0.0760
     13  C         15.2220  -23.1030   -5.2730 C.2     1  UNL1        0.0370
     14  C         15.1670  -22.4620   -4.0350 C.2     1  UNL1        0.0030
     15  C         16.2800  -22.4730   -3.1940 C.2     1  UNL1        0.0000
     16  C         17.4470  -23.1320   -3.5840 C.2     1  UNL1        0.0030
     17  C         17.5050  -23.7740   -4.8210 C.2     1  UNL1        0.0370
     18  C         21.8630  -21.9290  -10.9850 C.2     1  UNL1        0.0360
     19  C         22.8880  -21.7950  -10.0120 C.2     1  UNL1        0.0300
     20  C         24.2300  -21.6350  -10.3780 C.2     1  UNL1        0.0200
     21  C         24.5120  -21.6100  -11.7270 C.2     1  UNL1        0.0480
     22  C         23.5200  -21.7350  -12.6840 C.2     1  UNL1        0.0500
     23  C         25.7850  -21.4580  -12.4270 C.2     1  UNL1        0.2590
     24  C         22.1870  -21.8940  -12.3460 C.2     1  UNL1        0.0470
     25  C         24.1670  -21.6590  -13.9930 C.2     1  UNL1        0.2590
     26  O         23.6080  -21.7220  -15.0690 O.2     1  UNL1       -0.2670
     27  N         25.4980  -21.5010  -13.7560 N.am    1  UNL1       -0.2890
     28  H         26.1890  -21.4140  -14.4840 H       1  UNL1        0.1720
     29  O         26.8680  -21.3190  -11.8950 O.2     1  UNL1       -0.2670
@<TRIPOS>BOND
     1    26    25    2
     2    28    27    1
     3    25    27   am
     4    25    22    1
     5    27    23   am
     6    22    24    1
     7    22    21    2
     8    23    29    2
     9    23    21    1
    10    24    18    2
    11    21    20    1
    12    18     3    1
    13    18    19    1
    14     4     3    1
    15     3     2   am
    16    20    19    2
    17     6     7    1
    18     6     5    2
    19     7     8    2
    20     2     1    2
    21     2     5    1
    22     5    10    1
    23     8     9    1
    24    10     9    2
    25     9    11    1
    26    11    12    1
    27    12    13    2
    28    12    17    1
    29    13    14    1
    30    17    16    2
    31    14    15    2
    32    16    15    1
