@<TRIPOS>MOLECULE
47965_out_ligand_01.pdbqt
 28 31 0 0 0
SMALL
GASTEIGER

@<TRIPOS>ATOM
      1  C         21.4500  -22.1380  -11.2060 C.2     1  UNL1        0.0320
      2  C         20.5350  -21.6930  -12.1700 C.2     1  UNL1        0.0180
      3  C         19.1870  -21.5390  -11.8320 C.2     1  UNL1        0.0190
      4  C         18.7450  -21.8460  -10.5380 C.2     1  UNL1        0.0450
      5  C         19.6520  -22.3160   -9.5800 C.2     1  UNL1       -0.0380
      6  C         21.0050  -22.4550   -9.9150 C.2     1  UNL1        0.0250
      7  C         19.1530  -22.6240   -8.1980 C.3     1  UNL1        0.0770
      8  C         17.7130  -23.1210   -8.3160 C.3     1  UNL1        0.1690
      9  O         16.8980  -22.1470   -9.0000 O.3     1  UNL1       -0.3070
     10  C         17.3140  -21.6400  -10.1880 C.2     1  UNL1        0.2940
     11  O         16.5660  -21.0160  -10.9290 O.2     1  UNL1       -0.2590
     12  C         22.8970  -22.3180  -11.5210 C.2     1  UNL1        0.2560
     13  O         23.5990  -22.8730  -10.6830 O.2     1  UNL1       -0.2670
     14  N         23.3000  -21.7940  -12.7340 N.am    1  UNL1       -0.3230
     15  H         22.6220  -21.2490  -13.2510 H       1  UNL1        0.1690
     16  C         24.5890  -21.8530  -13.3060 C.2     1  UNL1        0.0350
     17  C         25.5220  -20.8190  -13.2350 C.2     1  UNL1        0.0290
     18  C         26.7830  -20.9600  -13.8240 C.2     1  UNL1        0.0020
     19  C         27.1210  -22.1380  -14.4870 C.2     1  UNL1        0.0000
     20  C         26.1990  -23.1770  -14.5610 C.2     1  UNL1        0.0020
     21  C         24.9390  -23.0350  -13.9720 C.2     1  UNL1        0.0290
     22  C         17.1240  -23.3980   -6.9440 C.2     1  UNL1       -0.0280
     23  C         17.9650  -23.4280   -5.8170 C.2     1  UNL1        0.0130
     24  C         17.4380  -23.6560   -4.5460 C.2     1  UNL1        0.0430
     25  C         16.0710  -23.8510   -4.3930 C.2     1  UNL1        0.1160
     26  F         15.5670  -24.0680   -3.1720 F       1  UNL1       -0.2060
     27  C         15.2190  -23.8200   -5.4900 C.2     1  UNL1        0.0430
     28  C         15.7440  -23.5920   -6.7640 C.2     1  UNL1        0.0130
@<TRIPOS>BOND
     1    20    19    2
     2    20    21    1
     3    19    18    1
     4    21    16    2
     5    18    17    2
     6    16    17    1
     7    16    14    1
     8    15    14    1
     9    14    12   am
    10     2     3    1
    11     2     1    2
    12     3     4    2
    13    12     1    1
    14    12    13    2
    15     1     6    1
    16    11    10    2
    17     4    10    1
    18     4     5    1
    19    10     9    1
    20     6     5    2
    21     5     7    1
    22     9     8    1
    23     8     7    1
    24     8    22    1
    25    22    28    2
    26    22    23    1
    27    28    27    1
    28    23    24    2
    29    27    25    2
    30    24    25    1
    31    25    26    1
