@<TRIPOS>MOLECULE
47968_out_ligand_01.pdbqt
 31 35 0 0 0
SMALL
GASTEIGER

@<TRIPOS>ATOM
      1  N         20.2420  -22.6570   -9.2960 N.am    1  UNL1       -0.2440
      2  C         19.8520  -21.9160  -10.3960 C.2     1  UNL1        0.2660
      3  O         18.8120  -21.3430  -10.6660 O.2     1  UNL1       -0.2670
      4  C         20.9740  -21.8940  -11.3280 C.2     1  UNL1        0.0480
      5  C         21.0920  -21.3000  -12.5720 C.2     1  UNL1        0.0210
      6  C         22.3080  -21.4580  -13.2460 C.2     1  UNL1        0.0380
      7  C         23.3660  -22.1850  -12.6550 C.2     1  UNL1        0.0770
      8  C         23.2120  -22.7910  -11.4050 C.2     1  UNL1        0.0550
      9  C         22.0000  -22.6160  -10.7650 C.2     1  UNL1        0.0510
     10  C         21.5400  -23.1050   -9.4700 C.2     1  UNL1        0.2660
     11  O         22.2740  -23.7750   -8.7660 O.2     1  UNL1       -0.2670
     12  C         19.4230  -22.9200   -8.1490 C.2     1  UNL1        0.0470
     13  C         19.3880  -22.0310   -7.0560 C.2     1  UNL1        0.0480
     14  C         18.5780  -22.3360   -5.9730 C.2     1  UNL1        0.0500
     15  C         18.3520  -21.6070   -4.7240 C.2     1  UNL1        0.2590
     16  C         17.8060  -23.4780   -5.9270 C.2     1  UNL1        0.0480
     17  N         17.4640  -22.3450   -4.0040 N.am    1  UNL1       -0.2890
     18  O         18.8700  -20.5530   -4.4160 O.2     1  UNL1       -0.2670
     19  C         17.0880  -23.4800   -4.6540 C.2     1  UNL1        0.2590
     20  H         17.1230  -22.0810   -3.0930 H       1  UNL1        0.1720
     21  O         16.3170  -24.3390   -4.2810 O.2     1  UNL1       -0.2670
     22  C         17.8010  -24.3790   -6.9640 C.2     1  UNL1        0.0200
     23  C         18.6150  -24.0900   -8.0720 C.2     1  UNL1        0.0310
     24  O         24.5650  -22.3980  -13.2990 O.2     1  UNL1       -0.3110
     25  C         25.1550  -21.3130  -13.9060 C.2     1  UNL1        0.0760
     26  C         25.0820  -21.0940  -15.2840 C.2     1  UNL1        0.0380
     27  C         25.6710  -19.9540  -15.8360 C.2     1  UNL1        0.0220
     28  C         26.3150  -19.0360  -15.0050 C.2     1  UNL1        0.0110
     29 BR         27.1120  -17.4940  -15.7550 Br      1  UNL1       -0.0510
     30  C         26.3690  -19.2420  -13.6280 C.2     1  UNL1        0.0220
     31  C         25.7790  -20.3810  -13.0760 C.2     1  UNL1        0.0380
@<TRIPOS>BOND
     1    27    26    1
     2    27    28    2
     3    29    28    1
     4    26    25    2
     5    28    30    1
     6    25    24    1
     7    25    31    1
     8    30    31    2
     9    24     7    1
    10     6     7    2
    11     6     5    1
    12     7     8    1
    13     5     4    2
    14     8     9    2
    15     4     9    1
    16     4     2    1
    17     9    10    1
    18     3     2    2
    19     2     1   am
    20    10     1   am
    21    10    11    2
    22     1    12    1
    23    12    23    2
    24    12    13    1
    25    23    22    1
    26    13    14    2
    27    22    16    2
    28    14    16    1
    29    14    15    1
    30    16    19    1
    31    15    18    2
    32    15    17   am
    33    19    21    2
    34    19    17   am
    35    17    20    1
