@<TRIPOS>MOLECULE
47976_out_ligand_01.pdbqt
 32 36 0 0 0
SMALL
GASTEIGER

@<TRIPOS>ATOM
      1  C         23.0610  -22.4410  -12.2170 C.2     1  UNL1        0.0770
      2  C         22.0830  -21.6100  -12.8060 C.2     1  UNL1        0.0380
      3  C         20.8510  -21.4050  -12.1770 C.2     1  UNL1        0.0210
      4  C         20.6460  -22.0340  -10.9630 C.2     1  UNL1        0.0480
      5  C         21.6080  -22.8270  -10.3820 C.2     1  UNL1        0.0510
      6  C         22.8340  -23.0480  -10.9780 C.2     1  UNL1        0.0550
      7  C         21.0720  -23.3190   -9.1170 C.2     1  UNL1        0.2660
      8  O         21.7360  -24.0540   -8.4090 O.2     1  UNL1       -0.2670
      9  N         19.7980  -22.8010   -8.9790 N.am    1  UNL1       -0.2440
     10  C         19.4900  -22.0130  -10.0730 C.2     1  UNL1        0.2660
     11  O         18.4960  -21.3740  -10.3640 O.2     1  UNL1       -0.2670
     12  C         18.9220  -23.0420   -7.8690 C.2     1  UNL1        0.0470
     13  C         17.9850  -24.1140   -7.8890 C.2     1  UNL1        0.0310
     14  C         17.1120  -24.3810   -6.8210 C.2     1  UNL1        0.0200
     15  C         17.1900  -23.5580   -5.7250 C.2     1  UNL1        0.0480
     16  C         18.0880  -22.5110   -5.6740 C.2     1  UNL1        0.0500
     17  C         16.4400  -23.5590   -4.4700 C.2     1  UNL1        0.2590
     18  C         18.9570  -22.2310   -6.7180 C.2     1  UNL1        0.0480
     19  C         17.9090  -21.8440   -4.3850 C.2     1  UNL1        0.2590
     20  O         18.5310  -20.8770   -3.9950 O.2     1  UNL1       -0.2670
     21  N         16.9230  -22.5210   -3.7350 N.am    1  UNL1       -0.2890
     22  H         16.5890  -22.2800   -2.8160 H       1  UNL1        0.1720
     23  O         15.5640  -24.3470   -4.1730 O.2     1  UNL1       -0.2670
     24  O         24.3030  -22.6420  -12.7800 O.2     1  UNL1       -0.3110
     25  C         25.0170  -21.5240  -13.1430 C.2     1  UNL1        0.0760
     26  C         24.9810  -21.1510  -14.4830 C.2     1  UNL1        0.0380
     27  C         25.6650  -20.0100  -14.9010 C.2     1  UNL1        0.0100
     28  C         26.3770  -19.2220  -13.9830 C.2     1  UNL1       -0.0560
     29  C         27.1000  -17.9950  -14.4720 C.3     1  UNL1        0.0490
     30  C         26.3900  -19.5870  -12.6190 C.2     1  UNL1       -0.0530
     31  C         25.6980  -20.7380  -12.2110 C.2     1  UNL1        0.0440
     32  C         27.1210  -18.7640  -11.5950 C.3     1  UNL1        0.0490
@<TRIPOS>BOND
     1    27    26    1
     2    27    28    2
     3    26    25    2
     4    29    28    1
     5    28    30    1
     6    25    24    1
     7    25    31    1
     8     2     1    2
     9     2     3    1
    10    24     1    1
    11    30    31    2
    12    30    32    1
    13     1     6    1
    14     3     4    2
    15     6     5    2
    16     4     5    1
    17     4    10    1
    18     5     7    1
    19    11    10    2
    20    10     9   am
    21     7     9   am
    22     7     8    2
    23     9    12    1
    24    13    12    2
    25    13    14    1
    26    12    18    1
    27    14    15    2
    28    18    16    2
    29    15    16    1
    30    15    17    1
    31    16    19    1
    32    17    23    2
    33    17    21   am
    34    19    20    2
    35    19    21   am
    36    21    22    1
