@<TRIPOS>MOLECULE
47974_out_ligand_01.pdbqt
 30 33 0 0 0
SMALL
GASTEIGER

@<TRIPOS>ATOM
      1  N         20.2620  -22.6890   -9.2370 N.am    1  UNL1       -0.2440
      2  C         19.8790  -21.9690  -10.3530 C.2     1  UNL1        0.2660
      3  O         18.8380  -21.4110  -10.6510 O.2     1  UNL1       -0.2670
      4  C         21.0140  -21.9500  -11.2690 C.2     1  UNL1        0.0480
      5  C         21.1510  -21.3570  -12.5110 C.2     1  UNL1        0.0210
      6  C         22.3810  -21.5060  -13.1620 C.2     1  UNL1        0.0380
      7  C         23.4220  -22.2510  -12.5650 C.2     1  UNL1        0.0770
      8  C         23.2630  -22.8240  -11.3010 C.2     1  UNL1        0.0550
      9  C         22.0380  -22.6570  -10.6830 C.2     1  UNL1        0.0510
     10  C         21.5620  -23.1350   -9.3890 C.2     1  UNL1        0.2660
     11  O         22.2880  -23.8060   -8.6760 O.2     1  UNL1       -0.2670
     12  C         19.4340  -22.9420   -8.0960 C.2     1  UNL1        0.0460
     13  C         18.6770  -24.1210   -7.9810 C.2     1  UNL1        0.0310
     14  C         17.8610  -24.3750   -6.8660 C.2     1  UNL1        0.0190
     15  C         17.7770  -23.4460   -5.8300 C.2     1  UNL1        0.0320
     16  C         18.5330  -22.2760   -5.9140 C.2     1  UNL1        0.0190
     17  C         19.3450  -22.0300   -7.0320 C.2     1  UNL1        0.0310
     18  C         16.9330  -23.6630   -4.6260 C.2     1  UNL1        0.2490
     19  N         17.3510  -23.1070   -3.4500 N.am    1  UNL1       -0.3660
     20  H         18.3010  -22.7920   -3.3100 H       1  UNL1        0.1590
     21  H         16.8280  -23.3770   -2.6260 H       1  UNL1        0.1590
     22  O         15.9150  -24.3420   -4.6690 O.2     1  UNL1       -0.2680
     23  O         24.6610  -22.3900  -13.1530 O.2     1  UNL1       -0.3110
     24  C         25.2620  -21.2490  -13.6320 C.2     1  UNL1        0.0760
     25  C         25.9460  -20.3570  -12.8020 C.2     1  UNL1        0.0380
     26  C         26.5060  -19.1970  -13.3430 C.2     1  UNL1        0.0220
     27  C         26.3630  -18.9310  -14.7040 C.2     1  UNL1        0.0110
     28 BR         27.1210  -17.3600  -15.4350 Br      1  UNL1       -0.0510
     29  C         25.6610  -19.8080  -15.5310 C.2     1  UNL1        0.0220
     30  C         25.1020  -20.9670  -14.9900 C.2     1  UNL1        0.0380
@<TRIPOS>BOND
     1    29    30    1
     2    29    27    2
     3    28    27    1
     4    30    24    2
     5    27    26    1
     6    24    23    1
     7    24    25    1
     8    26    25    2
     9     6     7    2
    10     6     5    1
    11    23     7    1
    12     7     8    1
    13     5     4    2
    14     8     9    2
    15     4     9    1
    16     4     2    1
    17     9    10    1
    18     3     2    2
    19     2     1   am
    20    10     1   am
    21    10    11    2
    22     1    12    1
    23    12    13    2
    24    12    17    1
    25    13    14    1
    26    17    16    2
    27    14    15    2
    28    16    15    1
    29    15    18    1
    30    22    18    2
    31    18    19   am
    32    19    20    1
    33    19    21    1
