@<TRIPOS>MOLECULE
47988_out_ligand_01.pdbqt
 37 41 0 0 0
SMALL
GASTEIGER

@<TRIPOS>ATOM
      1  C         19.7280  -23.2700   -9.2360 C.2     1  UNL1        0.0800
      2  C         19.9470  -22.4960  -10.3780 C.2     1  UNL1        0.0270
      3  C         21.2250  -22.4480  -10.9440 C.2     1  UNL1        0.0310
      4  C         22.2860  -23.1590  -10.3690 C.2     1  UNL1        0.0340
      5  C         22.0560  -23.9100   -9.2040 C.2     1  UNL1        0.0310
      6  C         20.7800  -23.9690   -8.6360 C.2     1  UNL1        0.0270
      7  N         23.5900  -23.1910  -10.9020 N.am    1  UNL1       -0.3260
      8  C         24.5470  -22.1900  -10.8640 C.2     1  UNL1        0.2400
      9  O         24.4730  -21.1420  -10.2260 O.2     1  UNL1       -0.2710
     10  H         23.8620  -24.0480  -11.3770 H       1  UNL1        0.1690
     11  C         25.8330  -22.5440  -11.6190 C.3     1  UNL1        0.2350
     12  N         25.6570  -22.5060  -13.0530 N.am    1  UNL1       -0.3040
     13  C         25.2620  -23.5730  -13.8490 C.2     1  UNL1        0.2590
     14  O         24.9640  -24.6960  -13.5010 O.2     1  UNL1       -0.2670
     15  C         25.2000  -23.0400  -15.2260 C.2     1  UNL1        0.0450
     16  C         24.8890  -23.6240  -16.4350 C.2     1  UNL1        0.0180
     17  C         25.5060  -21.7100  -15.1490 C.2     1  UNL1        0.0170
     18  C         24.9020  -22.8020  -17.5740 C.2     1  UNL1        0.0020
     19  C         25.2150  -21.4260  -17.4830 C.2     1  UNL1        0.0120
     20  C         25.5280  -20.8470  -16.2350 C.2     1  UNL1       -0.0230
     21  C         25.8570  -19.5110  -15.9330 C.2     1  UNL1        0.0120
     22  C         26.1330  -19.1280  -14.5990 C.2     1  UNL1        0.0030
     23  C         26.0970  -20.0560  -13.5430 C.2     1  UNL1        0.0310
     24  C         25.7800  -21.3600  -13.8520 C.2     1  UNL1        0.0500
     25  S         18.0970  -23.3600   -8.5470 S.O2    1  UNL1        0.2630
     26  O         17.1290  -23.3740   -9.6240 O.2     1  UNL1       -0.2000
     27  O         18.1140  -24.4080   -7.5500 O.2     1  UNL1       -0.2000
     28  N         17.9720  -21.9080   -7.6920 N.pl3   1  UNL1       -0.2800
     29  H         18.6430  -21.2190   -8.0290 H       1  UNL1        0.1790
     30  C         17.7260  -21.9610   -6.2910 C.2     1  UNL1        0.0490
     31  C         18.6610  -21.4690   -5.3710 C.2     1  UNL1       -0.0350
     32  C         18.3860  -21.6010   -4.0050 C.2     1  UNL1        0.0090
     33  C         19.9620  -20.8500   -5.8000 C.3     1  UNL1        0.0500
     34  C         17.1980  -22.1920   -3.5670 C.2     1  UNL1        0.0070
     35  C         16.2650  -22.6770   -4.4850 C.2     1  UNL1       -0.0600
     36  C         14.9690  -23.2740   -4.0220 C.3     1  UNL1        0.0480
     37  C         16.5370  -22.5500   -5.8500 C.2     1  UNL1        0.0370
@<TRIPOS>BOND
     1    18    19    2
     2    18    16    1
     3    19    20    1
     4    16    15    2
     5    20    21    1
     6    20    17    2
     7    21    22    2
     8    15    17    1
     9    15    13    1
    10    17    24    1
    11    22    23    1
    12    24    23    2
    13    24    12    1
    14    13    14    2
    15    13    12   am
    16    12    11    1
    17    11     8    1
    18    10     7    1
    19     3     2    1
    20     3     4    2
    21     7     8   am
    22     7     4    1
    23     8     9    2
    24     2     1    2
    25     4     5    1
    26    26    25    2
    27     1     6    1
    28     1    25    1
    29     5     6    2
    30    25    28    1
    31    25    27    2
    32    29    28    1
    33    28    30    1
    34    30    37    2
    35    30    31    1
    36    37    35    1
    37    33    31    1
    38    31    32    2
    39    35    36    1
    40    35    34    2
    41    32    34    1
