@<TRIPOS>MOLECULE
47990_out_ligand_01.pdbqt
 32 34 0 0 0
SMALL
GASTEIGER

@<TRIPOS>ATOM
      1  C         18.5400  -23.3300   -9.1280 C.2     1  UNL1        0.0750
      2  C         19.5640  -24.0960   -8.5590 C.2     1  UNL1        0.0270
      3  C         20.8700  -23.9630   -9.0390 C.2     1  UNL1        0.0310
      4  C         21.1620  -23.0700  -10.0850 C.2     1  UNL1        0.0340
      5  C         20.1250  -22.3090  -10.6410 C.2     1  UNL1        0.0310
      6  C         18.8150  -22.4300  -10.1610 C.2     1  UNL1        0.0270
      7  N         22.5100  -22.9930  -10.4970 N.am    1  UNL1       -0.3270
      8  C         23.4540  -22.0470  -10.1360 C.2     1  UNL1        0.2260
      9  O         23.2580  -21.0930   -9.3810 O.2     1  UNL1       -0.2730
     10  H         22.8090  -23.7340  -11.1250 H       1  UNL1        0.1690
     11  C         24.8580  -22.2880  -10.6840 C.3     1  UNL1        0.1440
     12  C         25.4320  -21.2030  -11.5740 C.2     1  UNL1       -0.0160
     13  C         26.3180  -20.2570  -11.0180 C.2     1  UNL1        0.0100
     14  C         26.8800  -19.2360  -11.8010 C.2     1  UNL1        0.0010
     15  C         26.5870  -19.1460  -13.1630 C.2     1  UNL1        0.0020
     16  C         25.7130  -20.0660  -13.7400 C.2     1  UNL1        0.0370
     17  C         25.1430  -21.0750  -12.9460 C.2     1  UNL1        0.1090
     18  N         24.1650  -21.9390  -13.5880 N.pl3   1  UNL1       -0.1150
     19  O         24.5980  -22.9170  -14.2100 O.2     1  UNL1       -0.5320
     20  O         22.9810  -21.5970  -13.4940 O.2     1  UNL1       -0.5320
     21  S         16.8850  -23.4730   -8.4860 S.O2    1  UNL1        0.2450
     22  O         16.8920  -24.5410   -7.5030 O.2     1  UNL1       -0.2060
     23  O         15.9900  -23.4910   -9.6240 O.2     1  UNL1       -0.2060
     24  N         16.7630  -21.9900   -7.6410 N.pl3   1  UNL1       -0.1810
     25  H         17.5800  -21.4280   -7.9000 H       1  UNL1        0.1460
     26  C         16.6300  -22.1230   -6.2140 C.2     1  UNL1        0.0280
     27  C         15.3740  -22.4620   -5.6880 C.2     1  UNL1        0.0250
     28  C         15.2040  -22.6420   -4.3160 C.2     1  UNL1        0.0020
     29  C         16.2860  -22.4710   -3.4530 C.2     1  UNL1        0.0010
     30  C         17.5410  -22.1330   -3.9720 C.2     1  UNL1        0.0080
     31  C         17.7300  -21.9560   -5.3560 C.2     1  UNL1       -0.0400
     32  C         19.0970  -21.5960   -5.8600 C.3     1  UNL1        0.0500
@<TRIPOS>BOND
     1    19    18    2
     2    16    15    2
     3    16    17    1
     4    18    20    2
     5    18    17    1
     6    15    14    1
     7    17    12    2
     8    14    13    2
     9    12    13    1
    10    12    11    1
    11    10     7    1
    12    11     8    1
    13     5     6    1
    14     5     4    2
    15     7     8   am
    16     7     4    1
    17     6     1    2
    18     8     9    2
    19     4     3    1
    20    23    21    2
    21     1     2    1
    22     1    21    1
    23     3     2    2
    24    21    24    1
    25    21    22    2
    26    25    24    1
    27    24    26    1
    28    26    27    2
    29    26    31    1
    30    32    31    1
    31    27    28    1
    32    31    30    2
    33    28    29    2
    34    30    29    1
