@<TRIPOS>MOLECULE
47996_out_ligand_01.pdbqt
 29 32 0 0 0
SMALL
GASTEIGER

@<TRIPOS>ATOM
      1  N         19.2130  -22.4470   -9.2940 N.am    1  UNL1       -0.3220
      2  C         19.1610  -23.5800   -8.5020 C.2     1  UNL1        0.2570
      3  O         19.8620  -24.5790   -8.6000 O.2     1  UNL1       -0.2670
      4  H         18.4310  -21.8100   -9.2030 H       1  UNL1        0.1690
      5  C         20.1700  -22.1430  -10.2870 C.2     1  UNL1        0.0420
      6  C         21.5370  -22.3570  -10.0820 C.2     1  UNL1        0.0540
      7  C         22.4560  -22.0690  -11.0960 C.2     1  UNL1        0.0760
      8  C         22.0340  -21.5420  -12.3150 C.2     1  UNL1        0.0250
      9  C         20.6780  -21.2970  -12.5150 C.2     1  UNL1        0.0100
     10  C         19.7350  -21.5890  -11.5120 C.2     1  UNL1       -0.0350
     11  C         18.2830  -21.3060  -11.7950 C.3     1  UNL1        0.0500
     12  S         24.1760  -22.3750  -10.8100 S.O2    1  UNL1        0.2390
     13  O         24.7910  -21.1320  -10.4150 O.2     1  UNL1       -0.2060
     14  O         24.6820  -23.1810  -11.9000 O.2     1  UNL1       -0.2060
     15  N         24.1520  -23.4080   -9.4820 N.3     1  UNL1       -0.2250
     16  H         24.1130  -22.8550   -8.6260 H       1  UNL1        0.1360
     17  H         24.9080  -24.0910   -9.4720 H       1  UNL1        0.1360
     18  C         18.0580  -23.5770   -7.5080 C.2     1  UNL1        0.0430
     19  C         16.9520  -24.4180   -7.7730 C.2     1  UNL1        0.0180
     20  C         15.8420  -24.4410   -6.9180 C.2     1  UNL1        0.0090
     21  C         15.8520  -23.6240   -5.8020 C.2     1  UNL1       -0.0460
     22  C         16.9440  -22.8290   -5.5470 C.2     1  UNL1       -0.0120
     23  C         14.8010  -23.4700   -4.7400 C.2     1  UNL1        0.0440
     24  C         16.7510  -22.1240   -4.3850 C.2     1  UNL1       -0.0460
     25  C         18.0890  -22.7600   -6.3450 C.2     1  UNL1       -0.0090
     26  C         17.7440  -21.2750   -3.9290 C.2     1  UNL1        0.0080
     27  C         15.4160  -22.4280   -3.7710 C.2     1  UNL1        0.0440
     28  C         18.9290  -21.1700   -4.6680 C.2     1  UNL1        0.0010
     29  C         19.1090  -21.9020   -5.8570 C.2     1  UNL1        0.0130
@<TRIPOS>BOND
     1     9     8    2
     2     9    10    1
     3     8     7    1
     4    14    12    2
     5    11    10    1
     6    10     5    2
     7     7    12    1
     8     7     6    2
     9    12    13    2
    10    12    15    1
    11     5     6    1
    12     5     1    1
    13    15    17    1
    14    15    16    1
    15     1     4    1
    16     1     2   am
    17     3     2    2
    18     2    18    1
    19    19    18    2
    20    19    20    1
    21    18    25    1
    22    20    21    2
    23    25    29    1
    24    25    22    2
    25    29    28    2
    26    21    22    1
    27    21    23    1
    28    22    24    1
    29    23    27    2
    30    28    26    1
    31    24    26    2
    32    24    27    1
