@<TRIPOS>MOLECULE
48000_out_ligand_01.pdbqt
 28 31 0 0 0
SMALL
GASTEIGER

@<TRIPOS>ATOM
      1  N         20.1450  -22.5100   -9.3230 N.am    1  UNL1       -0.3230
      2  C         19.9730  -23.6860   -8.6170 C.2     1  UNL1        0.2570
      3  O         20.6210  -24.7180   -8.7170 O.2     1  UNL1       -0.2670
      4  H         19.5650  -21.7270   -9.0430 H       1  UNL1        0.1690
      5  C         21.0650  -22.2590  -10.3610 C.2     1  UNL1        0.0350
      6  C         22.4310  -22.5410  -10.2770 C.2     1  UNL1        0.0310
      7  C         23.2810  -22.2670  -11.3530 C.2     1  UNL1        0.0270
      8  C         22.7600  -21.7180  -12.5250 C.2     1  UNL1        0.0740
      9  C         21.4000  -21.4220  -12.6230 C.2     1  UNL1        0.0270
     10  C         20.5580  -21.6960  -11.5420 C.2     1  UNL1        0.0310
     11  S         23.8420  -21.3470  -13.8730 S.O2    1  UNL1        0.2390
     12  O         23.8760  -22.4700  -14.7810 O.2     1  UNL1       -0.2060
     13  O         25.0420  -20.7260  -13.3630 O.2     1  UNL1       -0.2060
     14  N         23.0020  -20.1310  -14.6690 N.3     1  UNL1       -0.2250
     15  H         23.0360  -19.2710  -14.1210 H       1  UNL1        0.1360
     16  H         22.0550  -20.4470  -14.8820 H       1  UNL1        0.1360
     17  C         18.9050  -23.6200   -7.5910 C.2     1  UNL1        0.0430
     18  C         17.8940  -24.6080   -7.6510 C.2     1  UNL1        0.0180
     19  C         16.8720  -24.6520   -6.6920 C.2     1  UNL1        0.0090
     20  C         16.8700  -23.7020   -5.6850 C.2     1  UNL1       -0.0460
     21  C         17.8470  -22.7380   -5.6550 C.2     1  UNL1       -0.0120
     22  C         15.8960  -23.5330   -4.5550 C.2     1  UNL1        0.0440
     23  C         17.6430  -21.8940   -4.5930 C.2     1  UNL1       -0.0460
     24  C         18.8910  -22.6240   -6.5780 C.2     1  UNL1       -0.0090
     25  C         18.5070  -20.8310   -4.3880 C.2     1  UNL1        0.0080
     26  C         16.4360  -22.2930   -3.7960 C.2     1  UNL1        0.0440
     27  C         19.5650  -20.6430   -5.2870 C.2     1  UNL1        0.0010
     28  C         19.7580  -21.5200   -6.3720 C.2     1  UNL1        0.0130
@<TRIPOS>BOND
     1    16    14    1
     2    12    11    2
     3    14    15    1
     4    14    11    1
     5    11    13    2
     6    11     8    1
     7     9     8    2
     8     9    10    1
     9     8     7    1
    10    10     5    2
    11     7     6    2
    12     5     6    1
    13     5     1    1
    14     1     4    1
    15     1     2   am
    16     3     2    2
    17     2    17    1
    18    18    17    2
    19    18    19    1
    20    17    24    1
    21    19    20    2
    22    24    28    1
    23    24    21    2
    24    28    27    2
    25    20    21    1
    26    20    22    1
    27    21    23    1
    28    27    25    1
    29    23    25    2
    30    23    26    1
    31    22    26    2
