@<TRIPOS>MOLECULE
48002_out_ligand_01.pdbqt
 33 36 0 0 0
SMALL
GASTEIGER

@<TRIPOS>ATOM
      1  C         20.8120  -22.5340  -10.6850 C.2     1  UNL1        0.0340
      2  C         19.7560  -21.7600  -11.1780 C.2     1  UNL1        0.0310
      3  C         18.4620  -21.9210  -10.6730 C.2     1  UNL1        0.0270
      4  C         18.2240  -22.8560   -9.6650 C.2     1  UNL1        0.0800
      5  C         19.2630  -23.6480   -9.1740 C.2     1  UNL1        0.0270
      6  C         20.5530  -23.4810   -9.6840 C.2     1  UNL1        0.0310
      7  S         16.5800  -23.0590   -9.0290 S.O2    1  UNL1        0.2630
      8  O         15.7760  -23.7300  -10.0260 O.2     1  UNL1       -0.2000
      9  O         16.1710  -21.7810   -8.4810 O.2     1  UNL1       -0.2000
     10  N         16.8190  -24.0760   -7.7030 N.pl3   1  UNL1       -0.2800
     11  H         17.6930  -24.5920   -7.7790 H       1  UNL1        0.1790
     12  C         16.4460  -23.6000   -6.4090 C.2     1  UNL1        0.0530
     13  C         15.2180  -24.0300   -5.8960 C.2     1  UNL1        0.0310
     14  C         14.7920  -23.5930   -4.6470 C.2     1  UNL1        0.0030
     15  C         15.5930  -22.7270   -3.9060 C.2     1  UNL1        0.0120
     16  C         16.8280  -22.2790   -4.4030 C.2     1  UNL1       -0.0240
     17  C         17.6230  -21.4050   -3.6440 C.2     1  UNL1        0.0120
     18  C         17.2730  -22.7090   -5.6780 C.2     1  UNL1        0.0010
     19  C         18.8470  -20.9460   -4.1270 C.2     1  UNL1        0.0010
     20  C         19.2940  -21.3530   -5.3780 C.2     1  UNL1        0.0010
     21  C         18.5160  -22.2240   -6.1450 C.2     1  UNL1        0.0140
     22  N         22.1390  -22.4300  -11.1380 N.am    1  UNL1       -0.3250
     23  C         23.1860  -21.7320  -10.5630 C.2     1  UNL1        0.2460
     24  O         23.1440  -21.0610   -9.5350 O.2     1  UNL1       -0.2710
     25  H         22.3880  -22.9760  -11.9570 H       1  UNL1        0.1690
     26  C         24.4830  -21.8410  -11.3750 C.3     1  UNL1        0.2780
     27  O         24.3800  -21.4050  -12.7260 O.2     1  UNL1       -0.3420
     28  C         24.6260  -22.3170  -13.7150 C.2     1  UNL1        0.0690
     29  C         24.4980  -22.1000  -15.0880 C.2     1  UNL1        0.0370
     30  C         24.8070  -23.1220  -15.9910 C.2     1  UNL1        0.0030
     31  C         25.2460  -24.3610  -15.5280 C.2     1  UNL1        0.0000
     32  C         25.3800  -24.5810  -14.1600 C.2     1  UNL1        0.0030
     33  C         25.0730  -23.5600  -13.2590 C.2     1  UNL1        0.0370
@<TRIPOS>BOND
     1    30    31    2
     2    30    29    1
     3    31    32    1
     4    29    28    2
     5    32    33    2
     6    28    33    1
     7    28    27    1
     8    27    26    1
     9    25    22    1
    10    26    23    1
    11     2     1    2
    12     2     3    1
    13    22     1    1
    14    22    23   am
    15     1     6    1
    16     3     4    2
    17    23    24    2
    18     8     7    2
    19     6     5    2
    20     4     5    1
    21     4     7    1
    22     7     9    2
    23     7    10    1
    24    11    10    1
    25    10    12    1
    26    12    13    2
    27    12    18    1
    28    21    18    1
    29    21    20    2
    30    13    14    1
    31    18    16    2
    32    20    19    1
    33    14    15    2
    34    16    15    1
    35    16    17    1
    36    19    17    2
