@<TRIPOS>MOLECULE
4800_out_ligand_01.pdbqt
 32 35 0 0 0
SMALL
GASTEIGER

@<TRIPOS>ATOM
      1  C         21.1560  -21.7750  -11.3250 C.2     1  UNL1        0.0360
      2  C         19.9280  -21.2790  -11.7580 C.2     1  UNL1        0.0320
      3  C         18.7380  -21.8040  -11.2470 C.2     1  UNL1        0.0400
      4  C         18.7630  -22.8100  -10.2780 C.2     1  UNL1        0.0920
      5  C         19.9760  -23.3080   -9.8290 C.2     1  UNL1        0.0680
      6  C         21.1720  -22.7900  -10.3620 C.2     1  UNL1        0.0490
      7  C         20.0950  -24.3890   -8.8260 C.2     1  UNL1        0.2590
      8  O         21.0920  -25.1120   -8.8390 O.2     1  UNL1       -0.2670
      9  N         19.1910  -24.5250   -7.8040 N.am    1  UNL1       -0.3200
     10  C         17.9830  -23.8530   -7.5770 C.2     1  UNL1        0.0700
     11  C         17.4770  -23.8690   -6.2710 C.2     1  UNL1        0.0560
     12  C         16.2690  -23.2340   -5.9760 C.2     1  UNL1        0.0360
     13 CL         15.6650  -23.2600   -4.3650 Cl      1  UNL1       -0.0840
     14  C         15.5440  -22.5920   -6.9760 C.2     1  UNL1        0.0260
     15  C         16.0260  -22.6020   -8.2830 C.2     1  UNL1        0.0410
     16  C         17.2430  -23.2260   -8.5810 C.2     1  UNL1        0.1020
     17  O         17.5520  -23.3230   -9.9100 O.2     1  UNL1       -0.3070
     18  H         19.5230  -25.1610   -7.0880 H       1  UNL1        0.1690
     19  N         22.4020  -21.3220  -11.8050 N.am    1  UNL1       -0.3230
     20  C         23.5210  -22.0870  -12.0830 C.2     1  UNL1        0.2590
     21  O         23.6340  -23.3010  -11.9930 O.2     1  UNL1       -0.2670
     22  H         22.4810  -20.3250  -11.9680 H       1  UNL1        0.1690
     23  C         24.6860  -21.2850  -12.5210 C.2     1  UNL1        0.0680
     24  C         25.6910  -20.9870  -11.5880 C.2     1  UNL1        0.0200
     25  C         26.7850  -20.2070  -11.9640 C.2     1  UNL1        0.0040
     26  C         26.8850  -19.7330  -13.2740 C.2     1  UNL1        0.0400
     27  C         25.8950  -20.0510  -14.2050 C.2     1  UNL1        0.1020
     28  C         24.7740  -20.8000  -13.8310 C.2     1  UNL1        0.1170
     29  O         26.0060  -19.5590  -15.4810 O.2     1  UNL1       -0.3530
     30  C         26.4950  -18.2170  -15.4400 C.3     1  UNL1        0.2100
     31  O         23.8230  -21.1070  -14.7670 O.2     1  UNL1       -0.3520
     32  C         24.2310  -22.2270  -15.5520 C.3     1  UNL1        0.2100
@<TRIPOS>BOND
     1    32    31    1
     2    29    30    1
     3    29    27    1
     4    31    28    1
     5    27    28    1
     6    27    26    2
     7    28    23    2
     8    26    25    1
     9    23    20    1
    10    23    24    1
    11    20    21    2
    12    20    19   am
    13    22    19    1
    14    25    24    2
    15    19     1    1
    16     2     1    2
    17     2     3    1
    18     1     6    1
    19     3     4    2
    20     6     5    2
    21     4    17    1
    22     4     5    1
    23    17    16    1
    24     5     7    1
    25     8     7    2
    26     7     9   am
    27    16    15    1
    28    16    10    2
    29    15    14    2
    30     9    10    1
    31     9    18    1
    32    10    11    1
    33    14    12    1
    34    11    12    2
    35    12    13    1
