@<TRIPOS>MOLECULE
48015_out_ligand_01.pdbqt
 31 34 0 0 0
SMALL
GASTEIGER

@<TRIPOS>ATOM
      1  S         20.4690  -23.0080   -8.7460 S.O2    1  UNL1        0.2630
      2  O         20.1530  -24.4160   -8.8850 O.2     1  UNL1       -0.2000
      3  O         21.3000  -22.5440   -7.6570 O.2     1  UNL1       -0.2000
      4  C         21.1810  -22.4700  -10.2810 C.2     1  UNL1        0.0790
      5  C         20.4140  -21.7110  -11.1700 C.2     1  UNL1        0.0260
      6  C         20.9750  -21.2990  -12.3810 C.2     1  UNL1        0.0100
      7  C         22.2960  -21.6470  -12.7100 C.2     1  UNL1       -0.0400
      8  C         23.0500  -22.4060  -11.8030 C.2     1  UNL1        0.0100
      9  C         22.4910  -22.8330  -10.5970 C.2     1  UNL1        0.0260
     10  C         22.9150  -21.1700  -13.9990 C.3     1  UNL1        0.1630
     11  N         24.1930  -21.7960  -14.2210 N.am    1  UNL1       -0.3330
     12  C         24.6250  -22.1430  -15.4650 C.2     1  UNL1        0.3600
     13  O         24.0820  -21.8400  -16.5150 O.2     1  UNL1       -0.2390
     14  H         24.6700  -22.2500  -13.4560 H       1  UNL1        0.1650
     15  O         25.7470  -22.8940  -15.3460 O.3     1  UNL1       -0.3040
     16  C         25.6860  -23.9600  -14.3870 C.3     1  UNL1        0.1760
     17  C         25.2480  -25.2530  -15.0550 C.3     1  UNL1        0.0340
     18  N         18.9800  -22.2080   -8.7230 N.pl3   1  UNL1       -0.2800
     19  H         18.6740  -21.9820   -9.6670 H       1  UNL1        0.1790
     20  C         17.9810  -22.6780   -7.8190 C.2     1  UNL1        0.0530
     21  C         16.9830  -23.5410   -8.3180 C.2     1  UNL1        0.0310
     22  C         15.9580  -24.0200   -7.4890 C.2     1  UNL1        0.0100
     23  C         15.9410  -23.6260   -6.1630 C.2     1  UNL1       -0.0460
     24  C         16.9190  -22.7870   -5.6930 C.2     1  UNL1       -0.0110
     25  C         14.9720  -23.9950   -5.0780 C.2     1  UNL1        0.0440
     26  C         16.7220  -22.5240   -4.3620 C.2     1  UNL1       -0.0460
     27  C         17.9670  -22.2730   -6.4620 C.2     1  UNL1        0.0030
     28  C         17.6050  -21.6940   -3.6930 C.2     1  UNL1        0.0080
     29  C         15.5020  -23.2250   -3.8410 C.2     1  UNL1        0.0440
     30  C         18.6790  -21.1430   -4.4050 C.2     1  UNL1        0.0020
     31  C         18.8640  -21.4220   -5.7730 C.2     1  UNL1        0.0140
@<TRIPOS>BOND
     1    13    12    2
     2    12    15    1
     3    12    11   am
     4    15    16    1
     5    17    16    1
     6    11    10    1
     7    11    14    1
     8    10     7    1
     9     7     6    2
    10     7     8    1
    11     6     5    1
    12     8     9    2
    13     5     4    2
    14     9     4    1
    15     4     1    1
    16    19    18    1
    17     2     1    2
    18     1    18    1
    19     1     3    2
    20    18    20    1
    21    21    20    2
    22    21    22    1
    23    20    27    1
    24    22    23    2
    25    27    31    1
    26    27    24    2
    27    23    24    1
    28    23    25    1
    29    31    30    2
    30    24    26    1
    31    25    29    2
    32    30    28    1
    33    26    29    1
    34    26    28    2
