@<TRIPOS>MOLECULE
48017_out_ligand_01.pdbqt
 32 35 0 0 0
SMALL
GASTEIGER

@<TRIPOS>ATOM
      1  N         21.1590  -23.0080   -8.2460 N.am    1  UNL1       -0.3600
      2  C         19.9870  -22.6200   -7.6240 C.2     1  UNL1        0.2300
      3  O         19.9530  -21.7690   -6.7370 O.2     1  UNL1       -0.2720
      4  H         21.0430  -23.5310   -9.1070 H       1  UNL1        0.1620
      5  C         22.3730  -22.2280   -8.1030 C.3     1  UNL1        0.1270
      6  C         23.5840  -22.9060   -8.7600 C.3     1  UNL1        0.0580
      7  C         23.7370  -22.5180  -10.2160 C.2     1  UNL1       -0.0570
      8  C         24.9200  -21.9180  -10.6730 C.2     1  UNL1        0.0090
      9  C         25.0150  -21.4500  -11.9830 C.2     1  UNL1        0.0250
     10  C         23.9270  -21.5960  -12.8460 C.2     1  UNL1        0.0740
     11  C         22.7480  -22.2070  -12.4140 C.2     1  UNL1        0.0250
     12  C         22.6580  -22.6720  -11.1020 C.2     1  UNL1        0.0090
     13  S         24.0230  -20.9380  -14.4880 S.O2    1  UNL1        0.2390
     14  O         23.9050  -22.0250  -15.4300 O.2     1  UNL1       -0.2060
     15  O         25.1100  -19.9860  -14.5390 O.2     1  UNL1       -0.2060
     16  N         22.6110  -20.0250  -14.5680 N.3     1  UNL1       -0.2250
     17  H         22.6950  -19.2070  -15.1710 H       1  UNL1        0.1360
     18  H         21.8400  -20.6330  -14.8510 H       1  UNL1        0.1360
     19  C         18.7170  -23.3230   -8.1390 C.2     1  UNL1        0.1490
     20  C         17.6550  -23.3710   -7.0590 C.2     1  UNL1       -0.0070
     21  C         17.8500  -24.1270   -5.8920 C.2     1  UNL1        0.0110
     22  C         16.4890  -22.6100   -7.1890 C.2     1  UNL1        0.0830
     23  C         16.8990  -24.1080   -4.8710 C.2     1  UNL1        0.0010
     24  C         15.7450  -23.3390   -5.0070 C.2     1  UNL1        0.0030
     25  C         15.5410  -22.5900   -6.1650 C.2     1  UNL1        0.0380
     26  O         16.2120  -21.8330   -8.2870 O.2     1  UNL1       -0.3100
     27  C         17.0100  -21.9630   -9.3990 C.2     1  UNL1        0.0830
     28  C         16.5560  -21.3290  -10.5570 C.2     1  UNL1        0.0380
     29  C         18.2130  -22.6740   -9.4060 C.2     1  UNL1       -0.0070
     30  C         17.2980  -21.4090  -11.7350 C.2     1  UNL1        0.0030
     31  C         18.4960  -22.1200  -11.7540 C.2     1  UNL1        0.0010
     32  C         18.9540  -22.7490  -10.5960 C.3     1  UNL1        0.0110
@<TRIPOS>BOND
     1    14    13    2
     2    17    16    1
     3    18    16    1
     4    16    13    1
     5    15    13    2
     6    13    10    1
     7    10    11    2
     8    10     9    1
     9    11    12    1
    10     9     8    2
    11    31    30    2
    12    31    32    1
    13    30    28    1
    14    12     7    2
    15     8     7    1
    16    32    29    1
    17    28    27    2
    18     7     6    1
    19    29    27    1
    20    29    19    2
    21    27    26    1
    22     4     1    1
    23     6     5    1
    24    26    22    1
    25     1     5    1
    26     1     2   am
    27    19     2    1
    28    19    20    1
    29     2     3    2
    30    22    20    2
    31    22    25    1
    32    20    21    1
    33    25    24    2
    34    21    23    2
    35    24    23    1
