@<TRIPOS>MOLECULE
480_out_ligand_01.pdbqt
 33 35 0 0 0
SMALL
GASTEIGER

@<TRIPOS>ATOM
      1  C         17.1810  -22.9490   -8.9530 C.2     1  UNL1        0.0820
      2  C         16.5460  -22.0300   -9.7860 C.2     1  UNL1        0.0260
      3  C         17.2810  -21.3960  -10.7840 C.2     1  UNL1        0.0100
      4  C         18.6480  -21.6780  -10.9600 C.2     1  UNL1       -0.0350
      5  C         19.3830  -20.9620  -12.0640 C.3     1  UNL1        0.0500
      6  C         19.2840  -22.6190  -10.1150 C.2     1  UNL1        0.0420
      7  C         18.5370  -23.2540   -9.1190 C.2     1  UNL1        0.0550
      8  N         20.6560  -22.8790  -10.3150 N.am    1  UNL1       -0.3250
      9  C         21.7060  -22.7320   -9.4250 C.2     1  UNL1        0.2460
     10  O         21.6460  -22.3010   -8.2790 O.2     1  UNL1       -0.2710
     11  H         20.9250  -23.2740  -11.2100 H       1  UNL1        0.1690
     12  C         23.0530  -23.1470  -10.0320 C.3     1  UNL1        0.2780
     13  O         23.8980  -22.0640  -10.4070 O.2     1  UNL1       -0.3420
     14  C         24.0330  -21.7670  -11.7390 C.2     1  UNL1        0.0750
     15  C         22.9960  -21.8010  -12.6790 C.2     1  UNL1        0.0390
     16  C         23.2400  -21.4540  -14.0110 C.2     1  UNL1        0.0260
     17  C         24.5170  -21.0710  -14.4070 C.2     1  UNL1        0.0340
     18 CL         24.8130  -20.6440  -16.0460 Cl      1  UNL1       -0.0840
     19  C         25.5560  -21.0270  -13.4810 C.2     1  UNL1        0.0330
     20  C         25.3240  -21.3730  -12.1400 C.2     1  UNL1       -0.0270
     21  C         26.4560  -21.3180  -11.1520 C.3     1  UNL1        0.0510
     22  S         16.2380  -23.7800   -7.6990 S.O2    1  UNL1        0.2630
     23  O         15.6010  -24.9450   -8.2730 O.2     1  UNL1       -0.2000
     24  O         15.4510  -22.7750   -7.0130 O.2     1  UNL1       -0.2000
     25  N         17.4270  -24.2590   -6.5940 N.pl3   1  UNL1       -0.2810
     26  H         18.2050  -24.6990   -7.0820 H       1  UNL1        0.1790
     27  C         17.7490  -23.3660   -5.5380 C.2     1  UNL1        0.0430
     28  C         17.3610  -23.6780   -4.2360 C.2     1  UNL1        0.0300
     29  C         17.6420  -22.7910   -3.1990 C.2     1  UNL1        0.0030
     30  C         18.3100  -21.5930   -3.4650 C.2     1  UNL1        0.0070
     31  C         18.7090  -21.2770   -4.7700 C.2     1  UNL1       -0.0600
     32  C         19.3770  -19.9660   -5.0630 C.3     1  UNL1        0.0480
     33  C         18.4120  -22.1680   -5.8090 C.2     1  UNL1        0.0370
@<TRIPOS>BOND
     1    18    17    1
     2    17    16    2
     3    17    19    1
     4    16    15    1
     5    19    20    2
     6    15    14    2
     7    20    14    1
     8    20    21    1
     9     5     4    1
    10    14    13    1
    11    11     8    1
    12     4     3    2
    13     4     6    1
    14     3     2    1
    15    13    12    1
    16     8     6    1
    17     8     9   am
    18     6     7    2
    19    12     9    1
    20     2     1    2
    21     9    10    2
    22     7     1    1
    23     1    22    1
    24    23    22    2
    25    22    24    2
    26    22    25    1
    27    26    25    1
    28    25    27    1
    29    33    27    2
    30    33    31    1
    31    27    28    1
    32    32    31    1
    33    31    30    2
    34    28    29    2
    35    30    29    1
