@<TRIPOS>MOLECULE
48117_out_ligand_01.pdbqt
 33 35 0 0 0
SMALL
GASTEIGER

@<TRIPOS>ATOM
      1  C         21.6730  -23.5970   -9.0550 C.2     1  UNL1        0.0340
      2  C         21.4670  -22.4130   -8.3200 C.2     1  UNL1        0.0310
      3  C         20.3780  -22.2950   -7.4490 C.2     1  UNL1        0.0270
      4  C         19.4830  -23.3640   -7.3220 C.2     1  UNL1        0.0790
      5  C         19.6600  -24.5360   -8.0670 C.2     1  UNL1        0.0270
      6  C         20.7600  -24.6540   -8.9210 C.2     1  UNL1        0.0310
      7  N         22.7920  -23.6300   -9.9120 N.am    1  UNL1       -0.3270
      8  C         22.9600  -22.9310  -11.1010 C.2     1  UNL1        0.2260
      9  O         22.1300  -22.1920  -11.6310 O.2     1  UNL1       -0.2730
     10  H         23.5610  -24.2220   -9.6060 H       1  UNL1        0.1690
     11  C         24.3400  -23.0830  -11.7180 C.3     1  UNL1        0.1440
     12  C         25.0520  -21.7860  -12.0590 C.2     1  UNL1       -0.0160
     13  C         25.7760  -21.1120  -11.0570 C.2     1  UNL1        0.0100
     14  C         26.4890  -19.9400  -11.3500 C.2     1  UNL1        0.0010
     15  C         26.5040  -19.4190  -12.6490 C.2     1  UNL1        0.0020
     16  C         25.7900  -20.0590  -13.6630 C.2     1  UNL1        0.0370
     17  C         25.0690  -21.2250  -13.3560 C.2     1  UNL1        0.1090
     18  N         24.2770  -21.8080  -14.4280 N.pl3   1  UNL1       -0.1150
     19  O         23.1540  -21.3120  -14.6110 O.2     1  UNL1       -0.5320
     20  O         24.7800  -22.7420  -15.0640 O.2     1  UNL1       -0.5320
     21  S         18.0680  -23.2150   -6.2570 S.O2    1  UNL1        0.2580
     22  O         18.3050  -22.1320   -5.3280 O.2     1  UNL1       -0.2010
     23  O         17.7170  -24.5390   -5.8030 O.2     1  UNL1       -0.2010
     24  N         16.8700  -22.7420   -7.3290 N.3     1  UNL1       -0.3150
     25  H         17.0050  -21.8080   -7.7290 H       1  UNL1        0.1720
     26  C         16.1830  -23.7600   -8.1350 C.3     1  UNL1        0.1370
     27  C         15.7180  -23.1770   -9.4790 C.3     1  UNL1        0.0580
     28  C         16.7880  -22.4200  -10.2430 C.2     1  UNL1       -0.0570
     29  C         16.5740  -21.0850  -10.6310 C.2     1  UNL1        0.0070
     30  C         17.5570  -20.3840  -11.3440 C.2     1  UNL1        0.0010
     31  C         18.7580  -21.0110  -11.6840 C.2     1  UNL1        0.0000
     32  C         18.9770  -22.3400  -11.3150 C.2     1  UNL1        0.0010
     33  C         17.9980  -23.0430  -10.6030 C.2     1  UNL1        0.0070
@<TRIPOS>BOND
     1    20    18    2
     2    19    18    2
     3    18    17    1
     4    16    17    1
     5    16    15    2
     6    17    12    2
     7    15    14    1
     8    12    11    1
     9    12    13    1
    10    11     8    1
    11    31    30    2
    12    31    32    1
    13     9     8    2
    14    14    13    2
    15    30    29    1
    16    32    33    2
    17     8     7   am
    18    29    28    2
    19    33    28    1
    20    28    27    1
    21     7    10    1
    22     7     1    1
    23    27    26    1
    24     1     6    2
    25     1     2    1
    26     6     5    1
    27     2     3    2
    28    26    24    1
    29     5     4    2
    30    25    24    1
    31     3     4    1
    32    24    21    1
    33     4    21    1
    34    21    23    2
    35    21    22    2
