@<TRIPOS>MOLECULE
48110_out_ligand_01.pdbqt
 31 33 0 0 0
SMALL
GASTEIGER

@<TRIPOS>ATOM
      1  N         22.9170  -23.0110  -10.7550 N.am    1  UNL1       -0.3530
      2  C         22.5340  -22.0230   -9.8770 C.2     1  UNL1        0.2520
      3  O         23.2690  -21.1160   -9.5020 O.2     1  UNL1       -0.2680
      4  H         22.3140  -23.8150  -10.8610 H       1  UNL1        0.1630
      5  C         21.1480  -22.1930   -9.3280 C.2     1  UNL1        0.0430
      6  C         21.0440  -22.6340   -8.0550 C.2     1  UNL1        0.0290
      7  C         19.8100  -22.8530   -7.2850 C.2     1  UNL1       -0.0350
      8  C         19.3210  -21.8150   -6.4800 C.2     1  UNL1        0.0110
      9  C         18.1380  -21.9790   -5.7550 C.2     1  UNL1        0.0010
     10  C         17.4300  -23.1770   -5.8350 C.2     1  UNL1        0.0000
     11  C         17.9000  -24.2090   -6.6460 C.2     1  UNL1        0.0010
     12  C         19.0800  -24.0450   -7.3730 C.2     1  UNL1        0.0110
     13  C         20.0080  -21.9180  -10.2250 C.2     1  UNL1       -0.0210
     14  C         18.8310  -22.6760  -10.1600 C.2     1  UNL1        0.0120
     15  C         17.7650  -22.4060  -11.0220 C.2     1  UNL1        0.0010
     16  C         17.8680  -21.3800  -11.9590 C.2     1  UNL1        0.0000
     17  C         19.0380  -20.6250  -12.0410 C.2     1  UNL1        0.0010
     18  C         20.1050  -20.8950  -11.1810 C.2     1  UNL1        0.0120
     19  C         24.3000  -23.1650  -11.1430 C.3     1  UNL1        0.1610
     20  C         24.4520  -22.9570  -12.6310 C.2     1  UNL1       -0.0400
     21  C         25.1440  -23.9020  -13.4070 C.2     1  UNL1        0.0100
     22  C         25.2490  -23.7450  -14.7890 C.2     1  UNL1        0.0250
     23  C         24.6690  -22.6320  -15.3980 C.2     1  UNL1        0.0740
     24  C         23.9660  -21.6870  -14.6450 C.2     1  UNL1        0.0250
     25  C         23.8580  -21.8540  -13.2620 C.2     1  UNL1        0.0100
     26  S         24.8200  -22.4350  -17.1520 S.O2    1  UNL1        0.2390
     27  O         26.0400  -23.0790  -17.5870 O.2     1  UNL1       -0.2060
     28  O         24.4980  -21.0670  -17.4830 O.2     1  UNL1       -0.2060
     29  N         23.5770  -23.4240  -17.7150 N.3     1  UNL1       -0.2250
     30  H         23.5680  -24.2870  -17.1680 H       1  UNL1        0.1360
     31  H         22.6680  -22.9670  -17.7150 H       1  UNL1        0.1360
@<TRIPOS>BOND
     1    31    29    1
     2    29    30    1
     3    29    26    1
     4    27    26    2
     5    28    26    2
     6    26    23    1
     7    23    22    2
     8    23    24    1
     9    22    21    1
    10    24    25    2
    11    21    20    2
    12    25    20    1
    13    20    19    1
    14    17    16    2
    15    17    18    1
    16    16    15    1
    17    18    13    2
    18    19     1    1
    19    15    14    2
    20     4     1    1
    21     1     2   am
    22    13    14    1
    23    13     5    1
    24     2     3    2
    25     2     5    1
    26     5     6    2
    27     6     7    1
    28    12     7    2
    29    12    11    1
    30     7     8    1
    31    11    10    2
    32     8     9    2
    33    10     9    1
