@<TRIPOS>MOLECULE
4815_out_ligand_01.pdbqt
 37 39 0 0 0
SMALL
GASTEIGER

@<TRIPOS>ATOM
      1  C         24.2760  -21.9300  -10.2660 C.ar    1  UNL1        0.2310
      2  N         24.0790  -23.1850   -9.9220 N.ar    1  UNL1       -0.1140
      3  N         23.2070  -23.1720   -8.8530 N.ar    1  UNL1       -0.1240
      4  C         22.9390  -21.9060   -8.6140 C.ar    1  UNL1        0.1870
      5  O         23.5820  -21.0570   -9.4720 O.2     1  UNL1       -0.2670
      6  S         25.3100  -21.3950  -11.5560 S.3     1  UNL1       -0.0730
      7  C         24.3510  -21.9230  -13.0050 C.3     1  UNL1        0.1860
      8  C         22.8700  -21.5690  -12.9270 C.2     1  UNL1        0.2310
      9  N         22.1930  -22.1640  -11.8730 N.am    1  UNL1       -0.3270
     10  H         22.7590  -22.7210  -11.2430 H       1  UNL1        0.1690
     11  O         22.3590  -20.8850  -13.8100 O.2     1  UNL1       -0.2720
     12  C         20.8260  -22.0470  -11.5450 C.2     1  UNL1        0.0340
     13  C         20.0090  -20.9930  -11.9560 C.2     1  UNL1        0.0300
     14  C         18.6680  -20.9380  -11.5610 C.2     1  UNL1        0.0190
     15  C         18.1260  -21.9500  -10.7630 C.2     1  UNL1        0.0320
     16  C         18.9360  -23.0070  -10.3450 C.2     1  UNL1        0.0190
     17  C         20.2780  -23.0520  -10.7350 C.2     1  UNL1        0.0300
     18  C         16.7070  -21.8400  -10.3390 C.2     1  UNL1        0.2490
     19  N         16.0400  -20.6970  -10.6820 N.am    1  UNL1       -0.3660
     20  H         16.5380  -19.8490  -10.9170 H       1  UNL1        0.1590
     21  H         15.1270  -20.5880  -10.2620 H       1  UNL1        0.1590
     22  O         16.1590  -22.7170   -9.6850 O.2     1  UNL1       -0.2680
     23  C         22.0360  -21.3110   -7.5980 C.3     1  UNL1        0.2110
     24  N         20.8750  -22.1630   -7.4110 N.am    1  UNL1       -0.3490
     25  C         19.8490  -21.7760   -6.5780 C.2     1  UNL1        0.2520
     26  O         19.8900  -20.7610   -5.8930 O.2     1  UNL1       -0.2680
     27  H         20.7020  -22.8550   -8.1240 H       1  UNL1        0.1630
     28  C         18.6330  -22.6380   -6.5610 C.2     1  UNL1        0.0320
     29  C         18.7220  -23.9160   -7.1260 C.2     1  UNL1        0.0170
     30  C         17.6120  -24.7600   -7.1420 C.2     1  UNL1        0.0020
     31  C         16.4030  -24.3290   -6.5990 C.2     1  UNL1        0.0160
     32  C         16.2850  -23.0460   -6.0430 C.2     1  UNL1        0.0480
     33  C         17.4120  -22.2020   -6.0310 C.2     1  UNL1        0.0330
     34  C         14.9770  -22.5640   -5.4630 C.3     1  UNL1        0.4170
     35  F         15.1240  -22.0380   -4.2140 F       1  UNL1       -0.1660
     36  F         14.0660  -23.5700   -5.3400 F       1  UNL1       -0.1660
     37  F         14.3730  -21.5980   -6.2080 F       1  UNL1       -0.1660
@<TRIPOS>BOND
     1    11     8    2
     2     7     8    1
     3     7     6    1
     4     8     9   am
     5    13    14    1
     6    13    12    2
     7     9    12    1
     8     9    10    1
     9    14    15    2
    10     6     1    1
    11    12    17    1
    12    20    19    1
    13    15    16    1
    14    15    18    1
    15    17    16    2
    16    19    18   am
    17    19    21    1
    18    18    22    2
    19     1     2   ar
    20     1     5   ar
    21     2     3   ar
    22     5     4   ar
    23     3     4   ar
    24     4    23    1
    25    27    24    1
    26    23    24    1
    27    24    25   am
    28    30    29    1
    29    30    31    2
    30    29    28    2
    31    31    32    1
    32    25    28    1
    33    25    26    2
    34    28    33    1
    35    37    34    1
    36    32    33    2
    37    32    34    1
    38    34    36    1
    39    34    35    1
