@<TRIPOS>MOLECULE
4817_out_ligand_01.pdbqt
 36 39 0 0 0
SMALL
GASTEIGER

@<TRIPOS>ATOM
      1  C         22.9150  -22.6600   -9.2730 C.2     1  UNL1        0.3090
      2  O         23.0800  -22.2290   -8.1390 O.2     1  UNL1       -0.2620
      3  N         22.0590  -23.6730   -9.6340 N.am    1  UNL1       -0.3500
      4  H         21.9060  -23.7890  -10.6340 H       1  UNL1        0.1620
      5  C         21.0960  -24.2350   -8.7030 C.3     1  UNL1        0.1640
      6  C         19.6150  -23.7980   -8.9660 C.3     1  UNL1        0.2740
      7  C         19.1140  -23.0090   -7.7420 C.2     1  UNL1       -0.0120
      8  C         19.9900  -22.0630   -7.1660 C.2     1  UNL1        0.0100
      9  C         19.6320  -21.3430   -6.0340 C.2     1  UNL1        0.0020
     10  C         18.3900  -21.5580   -5.4480 C.2     1  UNL1        0.0120
     11  C         17.4900  -22.4900   -5.9830 C.2     1  UNL1       -0.0250
     12  C         16.2470  -22.6830   -5.3560 C.2     1  UNL1        0.0120
     13  C         17.8320  -23.2310   -7.1460 C.2     1  UNL1       -0.0170
     14  C         15.3260  -23.6000   -5.8520 C.2     1  UNL1        0.0010
     15  C         15.6330  -24.3330   -6.9870 C.2     1  UNL1        0.0010
     16  C         16.8620  -24.1490   -7.6250 C.2     1  UNL1        0.0130
     17  N         19.4680  -23.0130  -10.2210 N.3     1  UNL1        0.0990
     18  C         18.0940  -22.9870  -10.7350 C.3     1  UNL1        0.2730
     19  C         18.0950  -21.8260  -11.7180 C.3     1  UNL1        0.0320
     20  C         19.2510  -20.9360  -11.2850 C.3     1  UNL1        0.0320
     21  C         19.8060  -21.5930  -10.0330 C.3     1  UNL1        0.2730
     22  C         23.6730  -22.0190  -10.4560 C.2     1  UNL1        0.3130
     23  N         23.3230  -22.5990  -11.6570 N.am    1  UNL1       -0.3190
     24  H         22.6180  -23.3290  -11.5780 H       1  UNL1        0.1690
     25  O         24.4650  -21.1140  -10.2350 O.2     1  UNL1       -0.2620
     26  C         23.8230  -22.3060  -12.9360 C.2     1  UNL1        0.0350
     27  C         23.2280  -21.2460  -13.6280 C.2     1  UNL1        0.0300
     28  C         23.6690  -20.8950  -14.9080 C.2     1  UNL1        0.0190
     29  C         24.7170  -21.5990  -15.5110 C.2     1  UNL1        0.0320
     30  C         25.3030  -22.6690  -14.8270 C.2     1  UNL1        0.0190
     31  C         24.8590  -23.0170  -13.5440 C.2     1  UNL1        0.0300
     32  C         25.1480  -21.1910  -16.8750 C.2     1  UNL1        0.2490
     33  N         24.3740  -20.2800  -17.5370 N.am    1  UNL1       -0.3660
     34  H         24.6180  -20.1240  -18.5070 H       1  UNL1        0.1590
     35  H         23.4190  -20.0930  -17.2680 H       1  UNL1        0.1590
     36  O         26.1410  -21.6730  -17.4060 O.2     1  UNL1       -0.2680
@<TRIPOS>BOND
     1    34    33    1
     2    33    35    1
     3    33    32   am
     4    36    32    2
     5    32    29    1
     6    29    28    2
     7    29    30    1
     8    28    27    1
     9    30    31    2
    10    27    26    2
    11    31    26    1
    12    26    23    1
    13    19    20    1
    14    19    18    1
    15    23    24    1
    16    23    22   am
    17    20    21    1
    18    18    17    1
    19     4     3    1
    20    22    25    2
    21    22     1    1
    22    17    21    1
    23    17     6    1
    24     3     1   am
    25     3     5    1
    26     1     2    2
    27     6     5    1
    28     6     7    1
    29     7     8    2
    30     7    13    1
    31    16    13    1
    32    16    15    2
    33     8     9    1
    34    13    11    2
    35    15    14    1
    36     9    10    2
    37    11    10    1
    38    11    12    1
    39    14    12    2
