@<TRIPOS>MOLECULE
48316_out_ligand_01.pdbqt
 31 33 0 0 0
SMALL
GASTEIGER

@<TRIPOS>ATOM
      1  C         19.3720  -21.8080  -11.0840 C.2     1  UNL1        0.0350
      2  C         18.7220  -20.7860  -11.7770 C.2     1  UNL1        0.0290
      3  C         17.3480  -20.5700  -11.6020 C.2     1  UNL1        0.0030
      4  C         16.6130  -21.3720  -10.7300 C.2     1  UNL1        0.0170
      5  C         17.2540  -22.4050  -10.0400 C.2     1  UNL1        0.0340
      6  C         18.6270  -22.6170  -10.2180 C.2     1  UNL1        0.0460
      7  N         20.7500  -22.0840  -11.1820 N.am    1  UNL1       -0.3230
      8  C         21.6480  -21.6300  -12.1280 C.2     1  UNL1        0.2590
      9  O         21.3680  -20.9300  -13.1010 O.2     1  UNL1       -0.2670
     10  H         21.1400  -22.6660  -10.4430 H       1  UNL1        0.1690
     11  C         23.0800  -22.0490  -11.9310 C.2     1  UNL1        0.0650
     12  C         23.7080  -22.7080  -13.0040 C.2     1  UNL1        0.0200
     13  C         25.0300  -23.1540  -12.9040 C.2     1  UNL1        0.0010
     14  C         25.7380  -22.9640  -11.7230 C.2     1  UNL1        0.0030
     15  C         25.1350  -22.3060  -10.6530 C.2     1  UNL1        0.0380
     16  C         23.8230  -21.8220  -10.7620 C.2     1  UNL1        0.0840
     17  O         23.2670  -21.1980   -9.6700 O.2     1  UNL1       -0.3500
     18  C         23.1130  -22.1060   -8.5630 C.3     1  UNL1        0.1790
     19  C         21.6810  -22.6730   -8.5960 C.3     1  UNL1        0.0020
     20  C         21.7040  -24.2100   -8.6630 C.3     1  UNL1        0.0110
     21  C         20.8860  -22.2100   -7.3780 C.3     1  UNL1        0.0110
     22  C         16.5330  -23.2630   -9.0620 C.2     1  UNL1        0.2520
     23  O         15.6000  -23.9620   -9.4400 O.2     1  UNL1       -0.2680
     24  N         16.9650  -23.2010   -7.7540 N.am    1  UNL1       -0.3520
     25  H         17.7050  -22.5580   -7.5010 H       1  UNL1        0.1630
     26  C         16.4650  -24.1210   -6.7360 C.3     1  UNL1        0.0840
     27  C         15.2330  -23.5340   -6.0370 C.3     1  UNL1        0.0250
     28  C         15.5500  -22.3010   -5.1880 C.3     1  UNL1        0.0020
     29  C         16.9470  -22.3200   -4.5650 C.3     1  UNL1        0.0000
     30  C         17.4860  -23.7370   -4.4010 C.3     1  UNL1        0.0020
     31  C         17.5840  -24.4760   -5.7370 C.3     1  UNL1        0.0250
@<TRIPOS>BOND
     1     9     8    2
     2    12    13    1
     3    12    11    2
     4    13    14    2
     5     8    11    1
     6     8     7   am
     7    11    16    1
     8     2     3    1
     9     2     1    2
    10    14    15    1
    11     3     4    2
    12     7     1    1
    13     7    10    1
    14     1     6    1
    15    16    15    2
    16    16    17    1
    17     4     5    1
    18     6     5    2
    19     5    22    1
    20    17    18    1
    21    23    22    2
    22    22    24   am
    23    20    19    1
    24    19    18    1
    25    19    21    1
    26    24    25    1
    27    24    26    1
    28    26    27    1
    29    26    31    1
    30    27    28    1
    31    31    30    1
    32    28    29    1
    33    29    30    1
