@<TRIPOS>MOLECULE
48322_out_ligand_01.pdbqt
 35 38 0 0 0
SMALL
GASTEIGER

@<TRIPOS>ATOM
      1  C         20.1130  -22.8700   -8.3810 C.3     1  UNL1        0.1780
      2  C         21.3710  -23.6120   -8.8680 C.2     1  UNL1        0.2360
      3  N         22.5200  -22.8600   -8.9710 N.am    1  UNL1       -0.3560
      4  H         22.5590  -22.0140   -8.4130 H       1  UNL1        0.1620
      5  O         21.3210  -24.7920   -9.2200 O.2     1  UNL1       -0.2720
      6  C         23.7700  -23.4130   -9.4270 C.3     1  UNL1        0.1610
      7  C         24.1960  -22.7240  -10.6980 C.2     1  UNL1       -0.0400
      8  C         25.3990  -22.0050  -10.7620 C.2     1  UNL1        0.0100
      9  C         25.7630  -21.3380  -11.9340 C.2     1  UNL1        0.0250
     10  C         24.9180  -21.3920  -13.0470 C.2     1  UNL1        0.0740
     11  C         23.7080  -22.0870  -12.9940 C.2     1  UNL1        0.0250
     12  C         23.3520  -22.7520  -11.8210 C.2     1  UNL1        0.0100
     13  S         25.3580  -20.5410  -14.5380 S.O2    1  UNL1        0.2390
     14  O         25.7680  -19.2020  -14.1950 O.2     1  UNL1       -0.2060
     15  O         26.1670  -21.4210  -15.3510 O.2     1  UNL1       -0.2060
     16  N         23.8690  -20.4470  -15.3240 N.3     1  UNL1       -0.2250
     17  H         23.0860  -20.3100  -14.6850 H       1  UNL1        0.1360
     18  H         23.7500  -21.2840  -15.8990 H       1  UNL1        0.1360
     19  S         20.4720  -21.5600   -7.1410 S.3     1  UNL1       -0.0910
     20  C         19.0840  -21.8140   -6.0630 C.2     1  UNL1        0.0950
     21  C         18.9960  -21.1440   -4.8530 C.2     1  UNL1        0.0400
     22  C         17.8840  -21.3780   -4.0520 C.2     1  UNL1        0.0160
     23  C         16.9030  -22.2820   -4.4750 C.2     1  UNL1       -0.0070
     24  C         15.7650  -22.5550   -3.6950 C.2     1  UNL1        0.0140
     25  C         17.0890  -22.9280   -5.7150 C.2     1  UNL1        0.0680
     26  C         14.8160  -23.4750   -4.1350 C.2     1  UNL1        0.0010
     27  C         14.9970  -24.1190   -5.3540 C.2     1  UNL1        0.0020
     28  C         16.1250  -23.8360   -6.1300 C.2     1  UNL1        0.0320
     29  N         18.1570  -22.6940   -6.4970 N.2     1  UNL1       -0.2410
     30  C         19.3150  -22.3070   -9.5500 C.2     1  UNL1       -0.0350
     31  C         17.9100  -22.3630   -9.5790 C.2     1  UNL1        0.0090
     32  C         17.1960  -21.8240  -10.6510 C.2     1  UNL1        0.0010
     33  C         17.8740  -21.2220  -11.7080 C.2     1  UNL1        0.0000
     34  C         19.2660  -21.1620  -11.6970 C.2     1  UNL1        0.0010
     35  C         19.9840  -21.7010  -10.6280 C.2     1  UNL1        0.0090
@<TRIPOS>BOND
     1    18    16    1
     2    15    13    2
     3    16    17    1
     4    16    13    1
     5    13    14    2
     6    13    10    1
     7    10    11    2
     8    10     9    1
     9    11    12    1
    10     9     8    2
    11    12     7    2
    12    33    34    2
    13    33    32    1
    14    34    35    1
    15     8     7    1
    16     7     6    1
    17    32    31    2
    18    35    30    2
    19    31    30    1
    20    30     1    1
    21     6     3    1
    22     5     2    2
    23     3     2   am
    24     3     4    1
    25     2     1    1
    26     1    19    1
    27    19    20    1
    28    29    20    2
    29    29    25    1
    30    28    25    1
    31    28    27    2
    32    20    21    1
    33    25    23    2
    34    27    26    1
    35    21    22    2
    36    23    22    1
    37    23    24    1
    38    26    24    2
