@<TRIPOS>MOLECULE
48329_out_ligand_01.pdbqt
 32 35 0 0 0
SMALL
GASTEIGER

@<TRIPOS>ATOM
      1  C         24.2890  -21.8120  -12.9730 C.2     1  UNL1        0.0340
      2  C         25.5960  -21.5080  -12.5800 C.2     1  UNL1        0.0170
      3  C         25.8820  -21.3180  -11.2280 C.2     1  UNL1        0.0030
      4  C         24.8730  -21.4380  -10.2670 C.2     1  UNL1        0.0290
      5  C         23.5670  -21.7550  -10.6450 C.2     1  UNL1        0.0350
      6  C         23.2840  -21.9470  -12.0030 C.2     1  UNL1        0.0460
      7  N         22.4990  -21.9110   -9.7380 N.am    1  UNL1       -0.3230
      8  C         22.1220  -23.0660   -9.0760 C.2     1  UNL1        0.2560
      9  O         22.6960  -24.1480   -9.1010 O.2     1  UNL1       -0.2670
     10  H         21.9970  -21.0640   -9.5040 H       1  UNL1        0.1690
     11  C         20.9090  -22.9290   -8.2190 C.2     1  UNL1        0.0320
     12  C         20.7440  -21.8550   -7.3370 C.2     1  UNL1        0.0180
     13  C         19.5880  -21.7650   -6.5540 C.2     1  UNL1        0.0130
     14  C         18.5740  -22.7340   -6.6390 C.2     1  UNL1       -0.0260
     15  C         18.7480  -23.7950   -7.5430 C.2     1  UNL1        0.0130
     16  C         19.9010  -23.8900   -8.3300 C.2     1  UNL1        0.0180
     17  C         17.3590  -22.6330   -5.8130 C.2     1  UNL1       -0.0260
     18  C         16.0860  -22.5690   -6.4040 C.2     1  UNL1        0.0120
     19  C         14.9320  -22.4710   -5.6220 C.2     1  UNL1        0.0010
     20  C         15.0320  -22.4380   -4.2340 C.2     1  UNL1        0.0000
     21  C         16.2840  -22.5010   -3.6270 C.2     1  UNL1        0.0010
     22  C         17.4370  -22.5970   -4.4120 C.2     1  UNL1        0.0120
     23  C         23.9200  -22.0330  -14.4000 C.2     1  UNL1        0.2510
     24  O         23.0260  -21.3700  -14.9140 O.2     1  UNL1       -0.2680
     25  N         24.6520  -22.9790  -15.0830 N.am    1  UNL1       -0.3540
     26  H         25.5530  -23.2570  -14.7120 H       1  UNL1        0.1620
     27  C         24.5050  -23.1480  -16.5190 C.3     1  UNL1        0.1550
     28  C         25.3900  -22.1780  -17.3010 C.3     1  UNL1        0.1390
     29  C         26.5110  -21.5510  -16.4870 C.3     1  UNL1        0.0350
     30  C         26.7830  -20.2940  -17.2760 C.3     1  UNL1        0.0290
     31  C         25.3900  -19.8790  -17.7010 C.3     1  UNL1        0.1680
     32  O         24.6070  -21.0780  -17.8130 O.3     1  UNL1       -0.3840
@<TRIPOS>BOND
     1    32    31    1
     2    32    28    1
     3    31    30    1
     4    28    27    1
     5    28    29    1
     6    30    29    1
     7    27    25    1
     8    25    26    1
     9    25    23   am
    10    24    23    2
    11    23     1    1
    12     1     2    2
    13     1     6    1
    14     2     3    1
    15     6     5    2
    16     3     4    2
    17     5     4    1
    18     5     7    1
    19     7    10    1
    20     7     8   am
    21     9     8    2
    22     8    11    1
    23    16    11    2
    24    16    15    1
    25    11    12    1
    26    15    14    2
    27    12    13    2
    28    14    13    1
    29    14    17    1
    30    18    17    2
    31    18    19    1
    32    17    22    1
    33    19    20    2
    34    22    21    2
    35    20    21    1
