@<TRIPOS>MOLECULE
48339_out_ligand_01.pdbqt
 31 33 0 0 0
SMALL
GASTEIGER

@<TRIPOS>ATOM
      1  N         21.9200  -23.1160   -8.6940 N.am    1  UNL1       -0.3560
      2  C         20.7770  -23.8900   -8.6550 C.2     1  UNL1        0.2360
      3  O         20.8020  -25.0800   -8.9640 O.2     1  UNL1       -0.2720
      4  H         21.8220  -22.1170   -8.5100 H       1  UNL1        0.1620
      5  C         19.4980  -23.1170   -8.2580 C.3     1  UNL1        0.1780
      6  S         18.3220  -24.2480   -7.3850 S.3     1  UNL1       -0.0910
      7  C         18.1490  -23.4050   -5.8270 C.2     1  UNL1        0.0940
      8  C         18.5160  -22.0690   -5.7340 C.2     1  UNL1        0.0390
      9  C         18.3620  -21.4150   -4.5150 C.2     1  UNL1        0.0040
     10  C         17.8440  -22.1100   -3.4300 C.2     1  UNL1        0.0190
     11  C         17.4920  -23.4360   -3.6130 C.2     1  UNL1        0.1180
     12  N         17.6230  -24.0960   -4.7870 N.2     1  UNL1       -0.2540
     13  C         18.7780  -22.4390   -9.4200 C.2     1  UNL1       -0.0350
     14  C         19.5250  -21.8920  -10.4790 C.2     1  UNL1        0.0090
     15  C         18.8900  -21.2440  -11.5400 C.2     1  UNL1        0.0010
     16  C         17.5030  -21.1260  -11.5580 C.2     1  UNL1        0.0000
     17  C         16.7470  -21.6560  -10.5150 C.2     1  UNL1        0.0010
     18  C         17.3790  -22.3050   -9.4530 C.2     1  UNL1        0.0090
     19  C         23.1940  -23.6090   -9.1500 C.3     1  UNL1        0.1610
     20  C         23.5960  -22.9220  -10.4310 C.2     1  UNL1       -0.0400
     21  C         22.6180  -22.5670  -11.3750 C.2     1  UNL1        0.0100
     22  C         22.9720  -21.9030  -12.5500 C.2     1  UNL1        0.0250
     23  C         24.3150  -21.6000  -12.7860 C.2     1  UNL1        0.0740
     24  C         25.3000  -21.9320  -11.8510 C.2     1  UNL1        0.0250
     25  C         24.9370  -22.5920  -10.6760 C.2     1  UNL1        0.0100
     26  S         24.7750  -20.7510  -14.2720 S.O2    1  UNL1        0.2390
     27  O         25.4540  -21.6830  -15.1400 O.2     1  UNL1       -0.2060
     28  O         25.3380  -19.4690  -13.9150 O.2     1  UNL1       -0.2060
     29  N         23.2680  -20.4180  -14.9470 N.3     1  UNL1       -0.2250
     30  H         22.5060  -20.9210  -14.4950 H       1  UNL1        0.1360
     31  H         23.1180  -19.4070  -14.9340 H       1  UNL1        0.1360
@<TRIPOS>BOND
     1    27    26    2
     2    29    31    1
     3    29    30    1
     4    29    26    1
     5    26    28    2
     6    26    23    1
     7    23    22    2
     8    23    24    1
     9    22    21    1
    10    24    25    2
    11    16    15    2
    12    16    17    1
    13    15    14    1
    14    21    20    2
    15    25    20    1
    16    17    18    2
    17    14    13    2
    18    20    19    1
    19    18    13    1
    20    13     5    1
    21    19     1    1
    22     3     2    2
    23     1     2   am
    24     1     4    1
    25     2     5    1
    26     5     6    1
    27     6     7    1
    28     7     8    2
    29     7    12    1
    30     8     9    1
    31    12    11    2
    32     9    10    2
    33    11    10    1
