@<TRIPOS>MOLECULE
48345_out_ligand_01.pdbqt
 28 30 0 0 0
SMALL
GASTEIGER

@<TRIPOS>ATOM
      1  C         20.2730  -21.7570  -10.9330 C.2     1  UNL1        0.0360
      2  C         19.2370  -21.2780  -11.7440 C.2     1  UNL1        0.0310
      3  C         17.9000  -21.5180  -11.4140 C.2     1  UNL1        0.0270
      4  C         17.5770  -22.2420  -10.2640 C.2     1  UNL1        0.0490
      5 CL         15.8980  -22.4550   -9.9170 Cl      1  UNL1       -0.0830
      6  C         18.6030  -22.7280   -9.4460 C.2     1  UNL1        0.0550
      7  C         19.9460  -22.4730   -9.7800 C.2     1  UNL1        0.0480
      8  N         21.5900  -21.4680  -11.3460 N.am    1  UNL1       -0.3230
      9  C         22.7020  -22.2850  -11.2600 C.2     1  UNL1        0.2590
     10  O         22.7070  -23.4360  -10.8350 O.2     1  UNL1       -0.2670
     11  H         21.7260  -20.5570  -11.7720 H       1  UNL1        0.1690
     12  C         23.9970  -21.7110  -11.7420 C.2     1  UNL1        0.0700
     13  C         24.9710  -21.3690  -10.7900 C.2     1  UNL1        0.0200
     14  C         26.1980  -20.8280  -11.1880 C.2     1  UNL1        0.0010
     15  C         26.4650  -20.6220  -12.5400 C.2     1  UNL1        0.0030
     16  C         25.5060  -20.9560  -13.4940 C.2     1  UNL1        0.0430
     17  C         24.2840  -21.4960  -13.0910 C.2     1  UNL1        0.1320
     18  F         23.3930  -21.8060  -14.0470 F       1  UNL1       -0.2050
     19  C         18.3630  -23.4980   -8.2010 C.2     1  UNL1        0.2530
     20  O         19.0300  -24.4990   -7.9680 O.2     1  UNL1       -0.2680
     21  N         17.3390  -23.0530   -7.3960 N.am    1  UNL1       -0.3520
     22  H         16.7620  -22.2850   -7.7180 H       1  UNL1        0.1630
     23  C         16.9050  -23.7940   -6.2180 C.3     1  UNL1        0.0840
     24  C         15.3700  -23.7480   -6.1050 C.3     1  UNL1        0.0250
     25  C         14.9020  -23.8620   -4.6600 C.3     1  UNL1        0.0020
     26  C         15.4320  -22.7120   -3.8020 C.3     1  UNL1        0.0000
     27  C         16.7960  -22.1870   -4.2590 C.3     1  UNL1        0.0020
     28  C         17.6130  -23.2650   -4.9590 C.3     1  UNL1        0.0250
@<TRIPOS>BOND
     1    18    17    1
     2    16    17    1
     3    16    15    2
     4    17    12    2
     5    15    14    1
     6    11     8    1
     7     2     3    1
     8     2     1    2
     9    12     9    1
    10    12    13    1
    11     3     4    2
    12     8     9   am
    13     8     1    1
    14     9    10    2
    15    14    13    2
    16     1     7    1
    17     4     5    1
    18     4     6    1
    19     7     6    2
    20     6    19    1
    21    19    20    2
    22    19    21   am
    23    22    21    1
    24    21    23    1
    25    23    24    1
    26    23    28    1
    27    24    25    1
    28    28    27    1
    29    25    26    1
    30    27    26    1
