@<TRIPOS>MOLECULE
48366_out_ligand_01.pdbqt
 28 30 0 0 0
SMALL
GASTEIGER

@<TRIPOS>ATOM
      1  C         19.3840  -21.9620  -10.7070 C.2     1  UNL1        0.0350
      2  C         18.6670  -21.0560  -11.4890 C.2     1  UNL1        0.0290
      3  C         17.2870  -20.9040  -11.3200 C.2     1  UNL1        0.0030
      4  C         16.6050  -21.6680  -10.3720 C.2     1  UNL1        0.0170
      5  C         17.3090  -22.5950   -9.5970 C.2     1  UNL1        0.0340
      6  C         18.6960  -22.7270   -9.7570 C.2     1  UNL1        0.0460
      7  N         20.7740  -22.1650  -10.8020 N.am    1  UNL1       -0.3230
      8  C         21.6300  -21.7890  -11.8180 C.2     1  UNL1        0.2590
      9  O         21.2910  -21.2070  -12.8450 O.2     1  UNL1       -0.2670
     10  H         21.2090  -22.6440  -10.0200 H       1  UNL1        0.1690
     11  C         23.0890  -22.1350  -11.6360 C.2     1  UNL1        0.0650
     12  C         23.6860  -22.8640  -12.6830 C.2     1  UNL1        0.0200
     13  C         25.0270  -23.2400  -12.6290 C.2     1  UNL1        0.0010
     14  C         25.7940  -22.8930  -11.5240 C.2     1  UNL1        0.0030
     15  C         25.2220  -22.1700  -10.4750 C.2     1  UNL1        0.0380
     16  C         23.8740  -21.7800  -10.5150 C.2     1  UNL1        0.0840
     17  O         23.2700  -21.0700   -9.5060 O.2     1  UNL1       -0.3550
     18  C         22.8180  -21.7870   -8.3600 C.3     1  UNL1        0.2100
     19  C         16.6410  -23.4390   -8.5690 C.2     1  UNL1        0.2520
     20  O         15.7540  -24.2190   -8.8980 O.2     1  UNL1       -0.2680
     21  N         17.0550  -23.2630   -7.2640 N.am    1  UNL1       -0.3520
     22  H         17.7550  -22.5660   -7.0530 H       1  UNL1        0.1630
     23  C         16.5370  -24.0810   -6.1740 C.3     1  UNL1        0.0840
     24  C         15.0920  -23.6920   -5.8370 C.3     1  UNL1        0.0250
     25  C         14.9870  -22.3430   -5.1270 C.3     1  UNL1        0.0020
     26  C         15.8910  -22.2770   -3.9000 C.3     1  UNL1        0.0000
     27  C         17.3360  -22.6220   -4.2450 C.3     1  UNL1        0.0020
     28  C         17.4380  -23.9830   -4.9340 C.3     1  UNL1        0.0250
@<TRIPOS>BOND
     1     9     8    2
     2    12    13    1
     3    12    11    2
     4    13    14    2
     5     8    11    1
     6     8     7   am
     7    11    16    1
     8    14    15    1
     9     2     3    1
    10     2     1    2
    11     3     4    2
    12     7     1    1
    13     7    10    1
    14     1     6    1
    15    16    15    2
    16    16    17    1
    17     4     5    1
    18     6     5    2
    19     5    19    1
    20    17    18    1
    21    20    19    2
    22    19    21   am
    23    21    22    1
    24    21    23    1
    25    23    24    1
    26    23    28    1
    27    24    25    1
    28    25    26    1
    29    28    27    1
    30    27    26    1
