@<TRIPOS>MOLECULE
48378_out_ligand_01.pdbqt
 26 29 0 0 0
SMALL
GASTEIGER

@<TRIPOS>ATOM
      1  C         23.5040  -23.0390  -10.1890 C.cat   1  UNL1        0.7570
      2  N         23.3800  -22.1720  -11.2360 N.2     1  UNL1        0.0450
      3  N         22.1920  -21.6920  -11.6150 N.pl3   1  UNL1       -0.1290
      4  C         21.1230  -22.1180  -10.9010 C.ar    1  UNL1        0.1390
      5  C         19.7390  -21.8350  -11.0130 C.ar    1  UNL1        0.0250
      6  C         18.9720  -21.0300  -11.8790 C.2     1  UNL1        0.0160
      7  C         17.5840  -20.9770  -11.7230 C.2     1  UNL1        0.0010
      8  C         16.9580  -21.7120  -10.7210 C.2     1  UNL1        0.0020
      9  C         17.6950  -22.5160   -9.8460 C.2     1  UNL1        0.0300
     10  C         19.0890  -22.5630  -10.0050 C.ar    1  UNL1        0.0490
     11  N         20.0670  -23.2580   -9.3120 N.ar    1  UNL1       -0.3280
     12  C         21.3030  -22.9940   -9.8480 C.ar    1  UNL1        0.1810
     13  N         22.4820  -23.4930   -9.4340 N.pl3   1  UNL1       -0.0400
     14  C         19.8550  -24.1260   -8.1630 C.3     1  UNL1        0.1350
     15  C         18.4950  -23.9300   -7.4890 C.3     1  UNL1        0.0580
     16  C         18.5380  -22.9420   -6.3480 C.2     1  UNL1       -0.0570
     17  C         19.2870  -21.7630   -6.4570 C.2     1  UNL1        0.0070
     18  C         19.3020  -20.8350   -5.4140 C.2     1  UNL1        0.0010
     19  C         18.5650  -21.0760   -4.2550 C.2     1  UNL1        0.0000
     20  C         17.8150  -22.2450   -4.1380 C.2     1  UNL1        0.0010
     21  C         17.8020  -23.1750   -5.1780 C.2     1  UNL1        0.0070
     22  N         24.7890  -23.5030   -9.8230 N.pl3   1  UNL1       -0.1510
     23  H         25.2870  -23.7410  -10.6810 H       1  UNL1        0.1990
     24  N         24.9340  -24.3640   -8.7070 N.3     1  UNL1       -0.2350
     25  H         25.7490  -24.0840   -8.1510 H       1  UNL1        0.1430
     26  H         25.1710  -25.3040   -9.0450 H       1  UNL1        0.1430
@<TRIPOS>BOND
     1     6     7    1
     2     6     5    2
     3     7     8    2
     4     3     2    1
     5     3     4    1
     6     2     1    2
     7     5     4   ar
     8     5    10   ar
     9     4    12   ar
    10     8     9    1
    11    23    22    1
    12     1    22    1
    13     1    13    1
    14    10     9    2
    15    10    11   ar
    16    12    13    1
    17    12    11   ar
    18    22    24    1
    19    11    14    1
    20    26    24    1
    21    24    25    1
    22    14    15    1
    23    15    16    1
    24    17    16    2
    25    17    18    1
    26    16    21    1
    27    18    19    2
    28    21    20    2
    29    19    20    1
