@<TRIPOS>MOLECULE
48386_out_ligand_01.pdbqt
 42 47 0 0 0
SMALL
GASTEIGER

@<TRIPOS>ATOM
      1  C         18.6490  -20.7140  -11.4990 C.3     1  UNL1        0.1850
      2  C         19.9470  -21.4680  -11.7600 C.2     1  UNL1        0.2310
      3  O         20.1130  -22.5990  -11.3120 O.2     1  UNL1       -0.2720
      4  N         20.8500  -20.7480  -12.5290 N.am    1  UNL1       -0.3270
      5  H         20.5860  -19.8080  -12.7950 H       1  UNL1        0.1690
      6  C         22.1650  -21.1190  -12.8800 C.2     1  UNL1        0.0340
      7  C         22.8250  -22.0040  -12.0140 C.2     1  UNL1        0.0310
      8  C         24.1230  -22.4430  -12.2920 C.2     1  UNL1        0.0270
      9  C         24.7700  -21.9890  -13.4420 C.2     1  UNL1        0.0750
     10  C         24.1230  -21.1150  -14.3180 C.2     1  UNL1        0.0270
     11  C         22.8250  -20.6760  -14.0290 C.2     1  UNL1        0.0310
     12  S         26.3930  -22.5920  -13.8260 S.O2    1  UNL1        0.2470
     13  O         27.1140  -21.5670  -14.5490 O.2     1  UNL1       -0.2050
     14  O         26.9510  -23.1620  -12.6160 O.2     1  UNL1       -0.2050
     15  N         26.0570  -23.9080  -14.8150 N.pl3   1  UNL1       -0.1590
     16  H         26.8400  -24.5560  -14.8060 H       1  UNL1        0.1480
     17  C         25.6100  -23.5210  -16.1320 C.2     1  UNL1        0.1580
     18  N         26.3830  -22.8300  -16.9320 N.2     1  UNL1       -0.2400
     19  C         25.6970  -22.5650  -18.1030 C.2     1  UNL1        0.1260
     20  C         24.4010  -23.0340  -18.1520 C.2     1  UNL1        0.0720
     21  S         24.0170  -23.8230  -16.6770 S.3     1  UNL1       -0.0680
     22  S         17.2100  -21.7670  -11.8370 S.3     1  UNL1       -0.0790
     23  C         16.7640  -22.1140  -10.1540 C.2     1  UNL1        0.2110
     24  N         15.5010  -22.5530   -9.9250 N.2     1  UNL1       -0.1220
     25  N         15.1210  -22.9270   -8.7040 N.pl3   1  UNL1       -0.1430
     26  C         16.0460  -22.8140   -7.7200 C.ar    1  UNL1        0.1370
     27  C         15.9950  -23.1230   -6.3390 C.ar    1  UNL1        0.0250
     28  C         17.3150  -22.3520   -8.0150 C.ar    1  UNL1        0.1650
     29  C         14.9970  -23.6450   -5.4910 C.2     1  UNL1        0.0160
     30  C         17.2540  -22.8160   -5.8040 C.ar    1  UNL1        0.0490
     31  C         15.2800  -23.8510   -4.1370 C.2     1  UNL1        0.0010
     32  C         16.5370  -23.5460   -3.6240 C.2     1  UNL1        0.0020
     33  C         17.5450  -23.0240   -4.4440 C.2     1  UNL1        0.0300
     34  N         18.0230  -22.3060   -6.8390 N.ar    1  UNL1       -0.3250
     35  N         17.7530  -22.0080   -9.2420 N.pl3   1  UNL1       -0.2010
     36  C         19.3890  -21.8100   -6.7310 C.3     1  UNL1        0.1690
     37  C         20.3460  -22.6460   -7.5430 C.2     1  UNL1       -0.0400
     38  C         21.5960  -22.1400   -7.9300 C.2     1  UNL1        0.0090
     39  C         22.4680  -22.9130   -8.6990 C.2     1  UNL1        0.0010
     40  C         22.1000  -24.1990   -9.0930 C.2     1  UNL1        0.0000
     41  C         20.8620  -24.7140   -8.7180 C.2     1  UNL1        0.0010
     42  C         19.9880  -23.9430   -7.9490 C.2     1  UNL1        0.0090
@<TRIPOS>BOND
     1    20    19    2
     2    20    21    1
     3    19    18    1
     4    18    17    2
     5    21    17    1
     6    17    15    1
     7    15    16    1
     8    15    12    1
     9    13    12    2
    10    10    11    1
    11    10     9    2
    12    11     6    2
    13    12     9    1
    14    12    14    2
    15     9     8    1
    16     6     4    1
    17     6     7    1
    18     5     4    1
    19     4     2   am
    20     8     7    2
    21    22     1    1
    22    22    23    1
    23     2     1    1
    24     2     3    2
    25    23    24    2
    26    23    35    1
    27    24    25    1
    28    35    28    1
    29    40    41    2
    30    40    39    1
    31    41    42    1
    32    25    26    1
    33    39    38    2
    34    28    26   ar
    35    28    34   ar
    36    42    37    2
    37    38    37    1
    38    26    27   ar
    39    37    36    1
    40    34    36    1
    41    34    30   ar
    42    27    30   ar
    43    27    29    1
    44    30    33    1
    45    29    31    2
    46    33    32    2
    47    31    32    1
