@<TRIPOS>MOLECULE
483_out_ligand_01.pdbqt
 36 38 0 0 0
SMALL
GASTEIGER

@<TRIPOS>ATOM
      1  C         19.6310  -22.4050  -10.6420 C.2     1  UNL1       -0.0360
      2  C         18.2860  -22.0200  -10.5960 C.2     1  UNL1        0.0130
      3  C         17.4360  -22.5410   -9.6170 C.2     1  UNL1        0.0250
      4  C         17.9390  -23.4480   -8.6850 C.2     1  UNL1        0.0740
      5  C         19.2860  -23.8240   -8.7070 C.2     1  UNL1        0.0250
      6  C         20.1270  -23.3100   -9.6960 C.2     1  UNL1        0.0130
      7  C         20.5280  -21.8650  -11.6640 C.2     1  UNL1        0.0170
      8  C         21.8580  -21.7070  -11.5800 C.2     1  UNL1        0.0760
      9  C         22.7980  -22.0490  -10.4810 C.2     1  UNL1        0.2590
     10  O         22.9630  -21.2650   -9.5480 O.2     1  UNL1       -0.2670
     11  N         23.5050  -23.2150  -10.6150 N.am    1  UNL1       -0.2640
     12  H         23.4900  -23.7750  -11.4640 H       1  UNL1        0.1900
     13  N         24.5840  -23.4340   -9.7450 N.am    1  UNL1       -0.2740
     14  H         24.3450  -23.3440   -8.7590 H       1  UNL1        0.1890
     15  C         25.8860  -23.2240  -10.1770 C.2     1  UNL1        0.1860
     16  S         27.1190  -24.3390   -9.9580 S.2     1  UNL1       -0.0400
     17  N         26.0240  -21.9750  -10.7520 N.am    1  UNL1       -0.3610
     18  H         25.3190  -21.2930  -10.5090 H       1  UNL1        0.1620
     19  C         26.9250  -21.5950  -11.8520 C.3     1  UNL1        0.0830
     20  C         26.7220  -20.1130  -12.2210 C.3     1  UNL1        0.0250
     21  C         25.8640  -19.8880  -13.4710 C.3     1  UNL1        0.0020
     22  C         24.7660  -20.9300  -13.6170 C.3     1  UNL1        0.0000
     23  C         25.3170  -22.3560  -13.6810 C.3     1  UNL1        0.0020
     24  C         26.7130  -22.5040  -13.0690 C.3     1  UNL1        0.0250
     25  S         16.8690  -24.1040   -7.4240 S.O2    1  UNL1        0.2450
     26  O         17.6920  -24.7850   -6.4470 O.2     1  UNL1       -0.2060
     27  O         15.7650  -24.7660   -8.0860 O.2     1  UNL1       -0.2060
     28  N         16.2780  -22.6560   -6.7340 N.pl3   1  UNL1       -0.1800
     29  H         15.2930  -22.7970   -6.4920 H       1  UNL1        0.1460
     30  C         17.0170  -22.2290   -5.5710 C.2     1  UNL1        0.0440
     31  C         18.1740  -21.4620   -5.7340 C.2     1  UNL1        0.0260
     32  C         18.9290  -21.0870   -4.6190 C.2     1  UNL1        0.0020
     33  C         18.5320  -21.4780   -3.3400 C.2     1  UNL1        0.0020
     34  C         17.3780  -22.2470   -3.1700 C.2     1  UNL1        0.0260
     35  C         16.6230  -22.6230   -4.2830 C.2     1  UNL1        0.0560
     36 CL         15.1960  -23.5630   -4.0400 Cl      1  UNL1       -0.0820
@<TRIPOS>BOND
     1    23    22    1
     2    23    24    1
     3    22    21    1
     4    21    20    1
     5    24    19    1
     6    20    19    1
     7    19    17    1
     8     7     8    2
     9     7     1    1
    10     8     9    1
    11    12    11    1
    12    17    18    1
    13    17    15    1
    14     1     2    2
    15     1     6    1
    16    11     9   am
    17    11    13    1
    18     2     3    1
    19     9    10    2
    20    15    16    2
    21    15    13    1
    22    13    14    1
    23     6     5    2
    24     3     4    2
    25     5     4    1
    26     4    25    1
    27    27    25    2
    28    25    28    1
    29    25    26    2
    30    28    29    1
    31    28    30    1
    32    31    30    2
    33    31    32    1
    34    30    35    1
    35    32    33    2
    36    35    36    1
    37    35    34    2
    38    33    34    1
