@<TRIPOS>MOLECULE
48412_out_ligand_01.pdbqt
 35 39 0 0 0
SMALL
GASTEIGER

@<TRIPOS>ATOM
      1  C         23.1300  -22.4900  -11.1020 C.2     1  UNL1        0.2110
      2  N         22.7220  -21.6960  -12.1260 N.2     1  UNL1       -0.1220
      3  N         21.4460  -21.3360  -12.2450 N.pl3   1  UNL1       -0.1430
      4  C         20.5920  -21.8260  -11.3120 C.ar    1  UNL1        0.1370
      5  C         19.1940  -21.6720  -11.1350 C.ar    1  UNL1        0.0250
      6  C         18.1900  -20.9720  -11.8340 C.2     1  UNL1        0.0160
      7  C         16.8700  -21.0200  -11.3740 C.2     1  UNL1        0.0010
      8  C         16.5440  -21.7500  -10.2340 C.2     1  UNL1        0.0020
      9  C         17.5200  -22.4590   -9.5260 C.2     1  UNL1        0.0300
     10  C         18.8440  -22.4140   -9.9950 C.ar    1  UNL1        0.0490
     11  N         20.0020  -23.0060   -9.5210 N.ar    1  UNL1       -0.3290
     12  C         21.0700  -22.6340  -10.2980 C.ar    1  UNL1        0.1650
     13  N         22.3550  -22.9970  -10.1270 N.pl3   1  UNL1       -0.2010
     14  S         24.8330  -23.0170  -11.1560 S.3     1  UNL1       -0.0790
     15  C         24.9200  -23.6050  -12.8800 C.3     1  UNL1        0.1850
     16  C         25.6570  -22.6590  -13.8210 C.2     1  UNL1        0.2330
     17  N         24.9010  -21.5990  -14.2640 N.am    1  UNL1       -0.3040
     18  H         23.9240  -21.5290  -14.0110 H       1  UNL1        0.1710
     19  O         26.8430  -22.8520  -14.0750 O.2     1  UNL1       -0.2720
     20  C         25.3600  -20.7100  -15.1940 C.ar    1  UNL1        0.1960
     21  N         25.3010  -20.7340  -16.5030 N.ar    1  UNL1       -0.1230
     22  N         25.8810  -19.6070  -17.0600 N.ar    1  UNL1       -0.1440
     23  C         26.3440  -18.7750  -16.1460 C.ar    1  UNL1        0.1040
     24  S         26.1110  -19.3320  -14.5280 S.2     1  UNL1       -0.0330
     25  C         27.0010  -17.4580  -16.4660 C.3     1  UNL1        0.0390
     26  C         26.2890  -16.7400  -17.6120 C.3     1  UNL1        0.0160
     27  C         27.1210  -16.5520  -15.2410 C.3     1  UNL1        0.0160
     28  C         20.1040  -23.9300   -8.4010 C.3     1  UNL1        0.1350
     29  C         18.8190  -24.0400   -7.5780 C.3     1  UNL1        0.0580
     30  C         18.7420  -23.0310   -6.4580 C.2     1  UNL1       -0.0570
     31  C         17.8870  -23.2450   -5.3670 C.2     1  UNL1        0.0070
     32  C         17.8030  -22.3010   -4.3430 C.2     1  UNL1        0.0010
     33  C         18.5680  -21.1350   -4.4020 C.2     1  UNL1        0.0000
     34  C         19.4140  -20.9120   -5.4850 C.2     1  UNL1        0.0010
     35  C         19.5030  -21.8550   -6.5090 C.2     1  UNL1        0.0070
@<TRIPOS>BOND
     1    26    25    1
     2    22    21   ar
     3    22    23   ar
     4    21    20   ar
     5    25    23    1
     6    25    27    1
     7    23    24   ar
     8    20    24   ar
     9    20    17    1
    10    17    18    1
    11    17    16   am
    12    19    16    2
    13    16    15    1
    14    15    14    1
    15     3     2    1
    16     3     4    1
    17     2     1    2
    18     6     7    1
    19     6     5    2
    20     7     8    2
    21     4     5   ar
    22     4    12   ar
    23    14     1    1
    24     5    10   ar
    25     1    13    1
    26    12    13    1
    27    12    11   ar
    28     8     9    1
    29    10     9    2
    30    10    11   ar
    31    11    28    1
    32    28    29    1
    33    29    30    1
    34    35    30    2
    35    35    34    1
    36    30    31    1
    37    34    33    2
    38    31    32    2
    39    33    32    1
