@<TRIPOS>MOLECULE
48420_out_ligand_01.pdbqt
 33 36 0 0 0
SMALL
GASTEIGER

@<TRIPOS>ATOM
      1  N         20.5300  -23.4480   -9.0240 N.am    1  UNL1       -0.3260
      2  C         20.1290  -22.8930   -7.8160 C.2     1  UNL1        0.2350
      3  O         20.7560  -22.0370   -7.1900 O.2     1  UNL1       -0.2720
      4  H         19.8990  -24.1230   -9.4400 H       1  UNL1        0.1690
      5  C         21.7100  -23.1850   -9.7510 C.2     1  UNL1        0.0350
      6  C         22.9110  -23.6350   -9.1860 C.2     1  UNL1        0.0290
      7  C         24.1320  -23.4330   -9.8350 C.2     1  UNL1        0.0030
      8  C         24.1650  -22.7770  -11.0620 C.2     1  UNL1        0.0170
      9  C         22.9710  -22.3220  -11.6340 C.2     1  UNL1        0.0340
     10  C         21.7480  -22.5150  -10.9740 C.2     1  UNL1        0.0460
     11  C         22.9800  -21.5900  -12.9250 C.2     1  UNL1        0.2510
     12  O         21.9420  -21.1290  -13.3820 O.2     1  UNL1       -0.2680
     13  N         24.2060  -21.4910  -13.5470 N.am    1  UNL1       -0.3540
     14  H         24.9880  -22.0230  -13.1890 H       1  UNL1        0.1620
     15  C         24.3670  -20.8180  -14.8240 C.3     1  UNL1        0.1550
     16  C         25.0200  -21.7060  -15.8870 C.3     1  UNL1        0.1390
     17  C         24.9450  -21.1630  -17.3050 C.3     1  UNL1        0.0350
     18  C         25.0670  -22.4250  -18.1180 C.3     1  UNL1        0.0290
     19  C         24.2610  -23.4070  -17.2920 C.3     1  UNL1        0.1680
     20  O         24.3790  -22.9990  -15.9200 O.3     1  UNL1       -0.3840
     21  C         18.7500  -23.3710   -7.3060 C.3     1  UNL1        0.1440
     22  C         18.4320  -22.9020   -5.8830 C.2     1  UNL1       -0.0410
     23  C         18.6190  -21.5760   -5.4590 C.2     1  UNL1        0.0080
     24  C         18.2800  -21.1880   -4.1590 C.2     1  UNL1        0.0010
     25  C         17.7480  -22.1150   -3.2670 C.2     1  UNL1        0.0000
     26  C         17.5480  -23.4330   -3.6730 C.2     1  UNL1        0.0010
     27  C         17.8860  -23.8230   -4.9700 C.2     1  UNL1        0.0080
     28  C         17.6190  -23.1460   -8.3180 C.2     1  UNL1       -0.0410
     29  C         17.7520  -22.1180   -9.2680 C.2     1  UNL1        0.0080
     30  C         16.7360  -21.8610  -10.1900 C.2     1  UNL1        0.0010
     31  C         15.5710  -22.6250  -10.1760 C.2     1  UNL1        0.0000
     32  C         15.4210  -23.6460   -9.2400 C.2     1  UNL1        0.0010
     33  C         16.4350  -23.9030   -8.3140 C.2     1  UNL1        0.0080
@<TRIPOS>BOND
     1    18    17    1
     2    18    19    1
     3    17    16    1
     4    19    20    1
     5    20    16    1
     6    16    15    1
     7    15    13    1
     8    13    14    1
     9    13    11   am
    10    12    11    2
    11    11     9    1
    12     9     8    2
    13     9    10    1
    14     8     7    1
    15    10     5    2
    16    30    31    2
    17    30    29    1
    18    31    32    1
    19     7     6    2
    20     5     6    1
    21     5     1    1
    22     4     1    1
    23    29    28    2
    24    32    33    2
    25     1     2   am
    26    28    33    1
    27    28    21    1
    28     2    21    1
    29     2     3    2
    30    21    22    1
    31    22    23    2
    32    22    27    1
    33    23    24    1
    34    27    26    2
    35    24    25    2
    36    26    25    1
