@<TRIPOS>MOLECULE
48421_out_ligand_01.pdbqt
 36 41 0 0 0
SMALL
GASTEIGER

@<TRIPOS>ATOM
      1  C         23.2500  -22.5590  -11.3100 C.2     1  UNL1        0.2110
      2  N         22.8390  -21.7270  -12.3110 N.2     1  UNL1       -0.1220
      3  N         21.5640  -21.3520  -12.4080 N.pl3   1  UNL1       -0.1430
      4  C         20.7180  -21.8470  -11.4690 C.ar    1  UNL1        0.1370
      5  C         19.3250  -21.6810  -11.2640 C.ar    1  UNL1        0.0250
      6  C         18.3120  -20.9730  -11.9430 C.2     1  UNL1        0.0160
      7  C         16.9980  -21.0400  -11.4760 C.2     1  UNL1        0.0010
      8  C         16.6830  -21.7900  -10.3500 C.2     1  UNL1        0.0020
      9  C         17.6700  -22.4930   -9.6540 C.2     1  UNL1        0.0300
     10  C         18.9880  -22.4280  -10.1270 C.ar    1  UNL1        0.0490
     11  N         20.1520  -23.0170   -9.6630 N.ar    1  UNL1       -0.3290
     12  C         21.1990  -22.6860  -10.4800 C.ar    1  UNL1        0.1650
     13  N         22.4760  -23.0920  -10.3490 N.pl3   1  UNL1       -0.2010
     14  S         24.9870  -22.9120  -11.2050 S.3     1  UNL1       -0.0790
     15  C         25.2030  -23.7980  -12.7740 C.3     1  UNL1        0.1850
     16  C         25.4170  -22.8420  -13.9390 C.2     1  UNL1        0.2330
     17  O         25.0490  -23.1470  -15.0720 O.2     1  UNL1       -0.2720
     18  N         26.0350  -21.6670  -13.5570 N.am    1  UNL1       -0.3050
     19  H         26.4290  -21.5560  -12.6360 H       1  UNL1        0.1710
     20  C         26.2460  -20.6430  -14.4300 C.ar    1  UNL1        0.1730
     21  N         26.1510  -20.6160  -15.7350 N.ar    1  UNL1       -0.2280
     22  C         26.3800  -19.3260  -16.1690 C.ar    1  UNL1        0.0500
     23  C         26.6540  -18.4010  -15.1770 C.ar    1  UNL1        0.0110
     24  C         26.3190  -18.9720  -17.6130 C.3     1  UNL1        0.0600
     25  S         26.6650  -19.1710  -13.6620 S.2     1  UNL1       -0.0550
     26  C         26.8570  -16.9430  -15.3940 C.3     1  UNL1        0.0480
     27  C         27.1210  -16.6600  -16.8850 C.3     1  UNL1        0.0060
     28  C         26.1750  -17.4540  -17.8030 C.3     1  UNL1        0.0060
     29  C         20.2880  -23.8390   -8.4720 C.3     1  UNL1        0.1350
     30  C         18.9930  -23.9790   -7.6700 C.3     1  UNL1        0.0580
     31  C         18.8460  -22.9360   -6.5900 C.2     1  UNL1       -0.0570
     32  C         19.6580  -21.7950   -6.5930 C.2     1  UNL1        0.0070
     33  C         19.5560  -20.8500   -5.5740 C.2     1  UNL1        0.0010
     34  C         18.6430  -21.0390   -4.5390 C.2     1  UNL1        0.0000
     35  C         17.8280  -22.1700   -4.5270 C.2     1  UNL1        0.0010
     36  C         17.9240  -23.1120   -5.5520 C.2     1  UNL1        0.0070
@<TRIPOS>BOND
     1    28    24    1
     2    28    27    1
     3    24    22    1
     4    27    26    1
     5    22    21   ar
     6    22    23   ar
     7    21    20   ar
     8    26    23    1
     9    23    25   ar
    10    17    16    2
    11    20    25   ar
    12    20    18    1
    13    16    18   am
    14    16    15    1
    15    18    19    1
    16    15    14    1
    17     3     2    1
    18     3     4    1
    19     2     1    2
    20     6     7    1
    21     6     5    2
    22     7     8    2
    23     4     5   ar
    24     4    12   ar
    25     1    14    1
    26     1    13    1
    27     5    10   ar
    28    12    13    1
    29    12    11   ar
    30     8     9    1
    31    10    11   ar
    32    10     9    2
    33    11    29    1
    34    29    30    1
    35    30    31    1
    36    32    31    2
    37    32    33    1
    38    31    36    1
    39    33    34    2
    40    36    35    2
    41    34    35    1
