@<TRIPOS>MOLECULE
4843_out_ligand_01.pdbqt
 29 32 0 0 0
SMALL
GASTEIGER

@<TRIPOS>ATOM
      1  C         14.7460  -22.1570   -5.0250 C.3     1  UNL1        0.0480
      2  C         15.8520  -22.7130   -5.8730 C.2     1  UNL1       -0.0600
      3  C         16.7650  -23.6240   -5.3370 C.2     1  UNL1        0.0090
      4  C         17.7610  -24.1730   -6.1440 C.2     1  UNL1        0.0400
      5  C         17.8660  -23.8040   -7.4890 C.2     1  UNL1        0.1020
      6  C         16.9640  -22.8960   -8.0400 C.2     1  UNL1        0.0690
      7  C         15.9440  -22.3750   -7.2310 C.2     1  UNL1        0.0390
      8  N         16.9740  -22.5030   -9.3840 N.am    1  UNL1       -0.3200
      9  C         17.9980  -22.5160  -10.2950 C.2     1  UNL1        0.2590
     10  O         17.7790  -22.1230  -11.4430 O.2     1  UNL1       -0.2670
     11  C         19.3830  -22.8520   -9.9030 C.2     1  UNL1        0.0680
     12  C         20.4220  -22.2190  -10.6120 C.2     1  UNL1        0.0490
     13  C         21.7660  -22.4800  -10.3220 C.2     1  UNL1        0.0360
     14  C         22.0670  -23.4010   -9.3210 C.2     1  UNL1        0.0320
     15  C         21.0410  -24.0450   -8.6230 C.2     1  UNL1        0.0400
     16  C         19.7020  -23.7620   -8.9050 C.2     1  UNL1        0.0920
     17  O         18.7780  -24.5070   -8.2300 O.2     1  UNL1       -0.3070
     18  H         16.1520  -22.0330   -9.7440 H       1  UNL1        0.1690
     19  N         22.7350  -21.7990  -11.0870 N.am    1  UNL1       -0.3230
     20  C         23.6630  -22.3540  -11.9500 C.2     1  UNL1        0.2560
     21  O         23.8610  -23.5480  -12.1450 O.2     1  UNL1       -0.2670
     22  H         22.7920  -20.8000  -10.9340 H       1  UNL1        0.1690
     23  C         24.5210  -21.3700  -12.6680 C.2     1  UNL1        0.0320
     24  C         24.1780  -21.0180  -13.9810 C.2     1  UNL1        0.0180
     25  C         24.9570  -20.0970  -14.6880 C.2     1  UNL1        0.0200
     26  C         26.0680  -19.5210  -14.0760 C.2     1  UNL1        0.0110
     27 BR         27.1210  -18.2730  -15.0300 Br      1  UNL1       -0.0510
     28  C         26.4070  -19.8510  -12.7640 C.2     1  UNL1        0.0200
     29  C         25.6320  -20.7730  -12.0560 C.2     1  UNL1        0.0180
@<TRIPOS>BOND
     1    27    26    1
     2    25    26    2
     3    25    24    1
     4    26    28    1
     5    24    23    2
     6    28    29    2
     7    23    29    1
     8    23    20    1
     9    21    20    2
    10    20    19   am
    11    10     9    2
    12    19    22    1
    13    19    13    1
    14    12    13    1
    15    12    11    2
    16    13    14    2
    17     9    11    1
    18     9     8   am
    19    11    16    1
    20    18     8    1
    21     8     6    1
    22    14    15    1
    23    16    15    2
    24    16    17    1
    25    17     5    1
    26     6     5    2
    27     6     7    1
    28     5     4    1
    29     7     2    2
    30     4     3    2
    31     2     3    1
    32     2     1    1
