@<TRIPOS>MOLECULE
48432_out_ligand_01.pdbqt
 37 42 0 0 0
SMALL
GASTEIGER

@<TRIPOS>ATOM
      1  C         23.0500  -22.5450  -10.8130 C.2     1  UNL1        0.2110
      2  N         22.6920  -21.7640  -11.8750 N.2     1  UNL1       -0.1220
      3  N         21.4230  -21.4090  -12.0590 N.pl3   1  UNL1       -0.1430
      4  C         20.5270  -21.8770  -11.1490 C.ar    1  UNL1        0.1370
      5  C         19.1210  -21.7320  -11.0460 C.ar    1  UNL1        0.0250
      6  C         18.1470  -21.0680  -11.8200 C.2     1  UNL1        0.0160
      7  C         16.8060  -21.1160  -11.4270 C.2     1  UNL1        0.0010
      8  C         16.4310  -21.8120  -10.2820 C.2     1  UNL1        0.0020
      9  C         17.3740  -22.4890   -9.5030 C.2     1  UNL1        0.0300
     10  C         18.7190  -22.4410   -9.9020 C.ar    1  UNL1        0.0490
     11  N         19.8560  -23.0090   -9.3520 N.ar    1  UNL1       -0.3290
     12  C         20.9580  -22.6590  -10.0910 C.ar    1  UNL1        0.1650
     13  N         22.2320  -23.0240   -9.8560 N.pl3   1  UNL1       -0.2010
     14  S         24.7370  -23.0910  -10.7500 S.3     1  UNL1       -0.0790
     15  C         25.5530  -21.5010  -11.0850 C.3     1  UNL1        0.1850
     16  C         26.0870  -21.4330  -12.5110 C.2     1  UNL1        0.2310
     17  O         27.1200  -22.0200  -12.8170 O.2     1  UNL1       -0.2720
     18  N         25.3080  -20.6500  -13.3470 N.am    1  UNL1       -0.3260
     19  H         24.4850  -20.2440  -12.9280 H       1  UNL1        0.1690
     20  C         25.5530  -20.3020  -14.7020 C.2     1  UNL1        0.0450
     21  C         26.1260  -19.0700  -15.0420 C.2     1  UNL1        0.0300
     22  C         26.3210  -18.7140  -16.3770 C.2     1  UNL1        0.0030
     23  C         25.9380  -19.5840  -17.3960 C.2     1  UNL1        0.0120
     24  C         25.3740  -20.8270  -17.0970 C.2     1  UNL1       -0.0240
     25  C         24.9850  -21.6700  -18.1530 C.2     1  UNL1        0.0120
     26  C         25.1840  -21.2190  -15.7400 C.2     1  UNL1        0.0010
     27  C         24.4160  -22.9120  -17.9040 C.2     1  UNL1        0.0010
     28  C         24.2350  -23.3300  -16.5920 C.2     1  UNL1        0.0010
     29  C         24.6140  -22.4980  -15.5280 C.2     1  UNL1        0.0140
     30  C         19.9070  -23.9260   -8.2250 C.3     1  UNL1        0.1350
     31  C         18.6150  -23.9640   -7.4040 C.3     1  UNL1        0.0580
     32  C         18.5970  -22.9610   -6.2770 C.2     1  UNL1       -0.0570
     33  C         19.3080  -21.7590   -6.3760 C.2     1  UNL1        0.0070
     34  C         19.2690  -20.8290   -5.3380 C.2     1  UNL1        0.0010
     35  C         18.5190  -21.0880   -4.1950 C.2     1  UNL1        0.0000
     36  C         17.8080  -22.2810   -4.0850 C.2     1  UNL1        0.0010
     37  C         17.8490  -23.2150   -5.1180 C.2     1  UNL1        0.0070
@<TRIPOS>BOND
     1    25    27    2
     2    25    24    1
     3    27    28    1
     4    23    24    2
     5    23    22    1
     6    24    26    1
     7    28    29    2
     8    22    21    2
     9    26    29    1
    10    26    20    2
    11    21    20    1
    12    20    18    1
    13    18    19    1
    14    18    16   am
    15    17    16    2
    16    16    15    1
    17     3     2    1
    18     3     4    1
    19     2     1    2
    20     6     7    1
    21     6     5    2
    22     7     8    2
    23     4     5   ar
    24     4    12   ar
    25    15    14    1
    26     5    10   ar
    27     1    14    1
    28     1    13    1
    29     8     9    1
    30    12    13    1
    31    12    11   ar
    32    10     9    2
    33    10    11   ar
    34    11    30    1
    35    30    31    1
    36    31    32    1
    37    33    32    2
    38    33    34    1
    39    32    37    1
    40    34    35    2
    41    37    36    2
    42    35    36    1
