@<TRIPOS>MOLECULE
48455_out_ligand_01.pdbqt
 34 36 0 0 0
SMALL
GASTEIGER

@<TRIPOS>ATOM
      1  C         19.1260  -23.3380   -8.2790 C.3     1  UNL1        0.1800
      2  S         19.3720  -22.2410   -6.8210 S.3     1  UNL1       -0.0710
      3  C         17.9480  -22.7000   -5.8740 C.2     1  UNL1        0.1920
      4  N         18.1350  -23.5570   -4.8630 N.2     1  UNL1       -0.1990
      5  C         17.0300  -23.8770   -4.1850 C.2     1  UNL1        0.1660
      6  C         15.7690  -23.4130   -4.4450 C.3     1  UNL1        0.0840
      7  C         15.6790  -22.5390   -5.5060 C.2     1  UNL1        0.0370
      8  C         14.3500  -21.9650   -5.8980 C.3     1  UNL1        0.0700
      9  N         16.7590  -22.1690   -6.2330 N.2     1  UNL1       -0.2280
     10  O         17.2390  -24.7390   -3.1540 O.2     1  UNL1       -0.3450
     11  H         16.5440  -25.4040   -3.3280 H       1  UNL1        0.2190
     12  C         20.4620  -24.0370   -8.6190 C.2     1  UNL1        0.2360
     13  O         20.5790  -25.2340   -8.8700 O.2     1  UNL1       -0.2720
     14  N         21.5610  -23.1940   -8.5800 N.am    1  UNL1       -0.3560
     15  H         21.3680  -22.1950   -8.6130 H       1  UNL1        0.1620
     16  C         22.8590  -23.6200   -9.0440 C.3     1  UNL1        0.1610
     17  C         23.2380  -22.9110  -10.3220 C.2     1  UNL1       -0.0400
     18  C         22.2610  -22.6070  -11.2880 C.2     1  UNL1        0.0100
     19  C         22.6210  -21.9860  -12.4860 C.2     1  UNL1        0.0250
     20  C         23.9640  -21.6650  -12.7140 C.2     1  UNL1        0.0740
     21  C         24.9480  -21.9830  -11.7770 C.2     1  UNL1        0.0250
     22  C         24.5810  -22.6090  -10.5860 C.2     1  UNL1        0.0100
     23  S         24.4090  -20.8660  -14.2350 S.O2    1  UNL1        0.2390
     24  O         24.6860  -21.8820  -15.2250 O.2     1  UNL1       -0.2060
     25  O         25.3280  -19.7860  -13.9430 O.2     1  UNL1       -0.2060
     26  N         22.9570  -20.1120  -14.6510 N.3     1  UNL1       -0.2250
     27  H         22.1910  -20.7600  -14.4470 H       1  UNL1        0.1360
     28  H         22.9370  -19.7870  -15.6170 H       1  UNL1        0.1360
     29  C         18.5090  -22.5500   -9.4270 C.2     1  UNL1       -0.0350
     30  C         17.1080  -22.4510   -9.5270 C.2     1  UNL1        0.0090
     31  C         16.5160  -21.7190  -10.5610 C.2     1  UNL1        0.0010
     32  C         17.3120  -21.0670  -11.5010 C.2     1  UNL1        0.0000
     33  C         18.7010  -21.1470  -11.4120 C.2     1  UNL1        0.0010
     34  C         19.2940  -21.8800  -10.3800 C.2     1  UNL1        0.0090
@<TRIPOS>BOND
     1    28    26    1
     2    24    23    2
     3    26    27    1
     4    26    23    1
     5    23    25    2
     6    23    20    1
     7    20    19    2
     8    20    21    1
     9    19    18    1
    10    21    22    2
    11    32    33    2
    12    32    31    1
    13    33    34    1
    14    18    17    2
    15    22    17    1
    16    31    30    2
    17    34    29    2
    18    17    16    1
    19    30    29    1
    20    29     1    1
    21    16    14    1
    22    13    12    2
    23    12    14   am
    24    12     1    1
    25    15    14    1
    26     1     2    1
    27     2     3    1
    28     9     3    1
    29     9     7    2
    30     8     7    1
    31     3     4    2
    32     7     6    1
    33     4     5    2
    34     6     5    1
    35     5    10    1
    36    11    10    1
