@<TRIPOS>MOLECULE
48456_out_ligand_01.pdbqt
 44 49 0 0 0
SMALL
GASTEIGER

@<TRIPOS>ATOM
      1  C         18.5310  -22.4800  -10.7930 C.2     1  UNL1        0.0450
      2  C         18.5200  -21.3670  -11.6360 C.2     1  UNL1        0.0300
      3  C         19.6980  -20.7170  -11.9660 C.2     1  UNL1        0.0030
      4  C         20.9060  -21.1550  -11.4360 C.2     1  UNL1        0.0140
      5  C         20.9920  -22.2580  -10.5520 C.2     1  UNL1        0.0030
      6  C         22.2350  -22.6990   -9.9750 C.2     1  UNL1        0.0450
      7  C         22.2570  -23.8320   -9.1600 C.2     1  UNL1        0.0300
      8  C         21.0860  -24.5140   -8.8680 C.2     1  UNL1        0.0030
      9  C         19.8720  -24.0740   -9.3940 C.2     1  UNL1        0.0140
     10  C         19.7770  -22.9480  -10.2470 C.2     1  UNL1        0.0030
     11  N         17.3230  -23.1550  -10.4770 N.am    1  UNL1       -0.3260
     12  C         16.1050  -22.6260  -10.0830 C.2     1  UNL1        0.2310
     13  O         15.8710  -21.4400   -9.8580 O.2     1  UNL1       -0.2720
     14  H         17.2910  -24.1470  -10.6640 H       1  UNL1        0.1690
     15  C         15.0170  -23.6580   -9.7910 C.3     1  UNL1        0.1850
     16  S         15.5130  -25.0480   -8.7240 S.3     1  UNL1       -0.0830
     17  C         16.0310  -24.1730   -7.3350 C.ar    1  UNL1        0.1680
     18  N         15.2480  -24.0880   -6.2220 N.ar    1  UNL1       -0.3330
     19  C         15.9480  -23.3710   -5.2840 C.ar    1  UNL1        0.0630
     20  H         14.3350  -24.5000   -6.1050 H       1  UNL1        0.1680
     21  C         15.6570  -23.0070   -3.9670 C.2     1  UNL1        0.0320
     22  C         17.1350  -23.0310   -5.9280 C.ar    1  UNL1        0.0860
     23  C         16.6280  -22.2530   -3.2960 C.2     1  UNL1        0.0090
     24  C         17.8310  -21.8730   -3.9170 C.2     1  UNL1       -0.0600
     25  C         18.8400  -21.0670   -3.1540 C.3     1  UNL1        0.0480
     26  C         18.0920  -22.2690   -5.2430 C.2     1  UNL1        0.0400
     27  N         17.1680  -23.5450   -7.2030 N.ar    1  UNL1       -0.2230
     28  N         23.4200  -21.9420  -10.1980 N.am    1  UNL1       -0.3260
     29  C         24.4110  -22.1310  -11.1610 C.2     1  UNL1        0.2310
     30  O         24.3850  -22.9560  -12.0700 O.2     1  UNL1       -0.2720
     31  H         23.5890  -21.1860   -9.5500 H       1  UNL1        0.1690
     32  C         25.5680  -21.1480  -10.9540 C.3     1  UNL1        0.1850
     33  S         27.0490  -21.5790  -11.9070 S.3     1  UNL1       -0.0830
     34  C         26.8390  -20.5100  -13.2440 C.ar    1  UNL1        0.1680
     35  N         26.9950  -19.2110  -13.2430 N.ar    1  UNL1       -0.2230
     36  C         26.7590  -18.8360  -14.5470 C.ar    1  UNL1        0.0860
     37  C         26.7930  -17.5620  -15.1350 C.2     1  UNL1        0.0400
     38  C         26.4650  -19.9420  -15.3420 C.ar    1  UNL1        0.0630
     39  C         26.5430  -17.4390  -16.5130 C.2     1  UNL1       -0.0600
     40  C         26.5740  -16.0900  -17.1730 C.3     1  UNL1        0.0480
     41  C         26.2420  -18.5790  -17.2760 C.2     1  UNL1        0.0090
     42  C         26.2000  -19.8580  -16.7090 C.2     1  UNL1        0.0320
     43  N         26.5220  -21.0030  -14.4750 N.ar    1  UNL1       -0.3330
     44  H         26.4380  -21.9850  -14.7000 H       1  UNL1        0.1680
@<TRIPOS>BOND
     1    41    42    2
     2    41    39    1
     3    40    39    1
     4    42    38    1
     5    39    37    2
     6    38    36   ar
     7    38    43   ar
     8    37    36    1
     9    44    43    1
    10    36    35   ar
    11    43    34   ar
    12    34    35   ar
    13    34    33    1
    14    30    29    2
    15     3     2    1
    16     3     4    2
    17    33    32    1
    18     2     1    2
    19     4     5    1
    20    29    32    1
    21    29    28   am
    22     1    11    1
    23     1    10    1
    24    14    11    1
    25     5    10    2
    26     5     6    1
    27    11    12   am
    28    10     9    1
    29    28     6    1
    30    28    31    1
    31    12    13    2
    32    12    15    1
    33     6     7    2
    34    15    16    1
    35     9     8    2
    36     7     8    1
    37    16    17    1
    38    17    27   ar
    39    17    18   ar
    40    27    22   ar
    41    18    20    1
    42    18    19   ar
    43    22    19   ar
    44    22    26    1
    45    19    21    1
    46    26    24    2
    47    21    23    2
    48    24    23    1
    49    24    25    1
