@<TRIPOS>MOLECULE
48450_out_ligand_01.pdbqt
 34 38 0 0 0
SMALL
GASTEIGER

@<TRIPOS>ATOM
      1  C         21.0940  -22.4220  -10.8740 C.2     1  UNL1        0.0350
      2  C         22.3130  -22.8850  -10.3560 C.2     1  UNL1        0.0310
      3  C         23.5120  -22.6600  -11.0370 C.2     1  UNL1        0.0270
      4  C         23.4950  -21.9600  -12.2450 C.2     1  UNL1        0.0750
      5  C         22.2890  -21.5090  -12.7830 C.2     1  UNL1        0.0270
      6  C         21.0930  -21.7360  -12.0920 C.2     1  UNL1        0.0310
      7  N         19.9360  -22.6930  -10.1190 N.am    1  UNL1       -0.3230
      8  C         18.6610  -22.1950  -10.3080 C.2     1  UNL1        0.2590
      9  O         18.3180  -21.4050  -11.1820 O.2     1  UNL1       -0.2670
     10  H         20.0610  -23.3290   -9.3380 H       1  UNL1        0.1690
     11  C         17.6200  -22.6660   -9.3520 C.2     1  UNL1        0.0670
     12  C         16.5100  -23.3900   -9.8260 C.2     1  UNL1        0.0200
     13  C         15.5130  -23.8520   -8.9650 C.2     1  UNL1        0.0020
     14  C         15.5860  -23.6070   -7.5900 C.2     1  UNL1        0.0150
     15  C         16.6830  -22.8840   -7.0820 C.ar    1  UNL1        0.0120
     16  C         17.6610  -22.4390   -7.9720 C.ar    1  UNL1        0.1030
     17  C         17.0930  -22.4520   -5.7870 C.ar    1  UNL1        0.0110
     18  O         18.6350  -21.7630   -7.2880 O.2     1  UNL1       -0.3080
     19  C         18.2910  -21.7730   -5.9720 C.ar    1  UNL1        0.0870
     20  C         19.0270  -21.1890   -4.9440 C.2     1  UNL1        0.0380
     21  C         18.5020  -21.3090   -3.6530 C.2     1  UNL1        0.0030
     22  C         17.3000  -21.9840   -3.4220 C.2     1  UNL1        0.0010
     23  C         16.5820  -22.5620   -4.4790 C.2     1  UNL1        0.0150
     24  S         25.0160  -21.7050  -13.1250 S.O2    1  UNL1        0.2480
     25  O         25.7270  -20.6580  -12.4140 O.2     1  UNL1       -0.2050
     26  O         25.6570  -22.9790  -13.3640 O.2     1  UNL1       -0.2050
     27  N         24.5360  -21.0250  -14.5620 N.pl3   1  UNL1       -0.1480
     28  H         24.6810  -20.0230  -14.6050 H       1  UNL1        0.1490
     29  C         24.9070  -21.6780  -15.7300 C.cat   1  UNL1        0.2150
     30  N         24.0770  -22.5740  -16.2670 N.2     1  UNL1       -0.2300
     31  C         24.4350  -23.0500  -17.4720 C.2     1  UNL1        0.1210
     32  C         25.5530  -22.6260  -18.1520 C.2     1  UNL1        0.0390
     33  C         26.2990  -21.6570  -17.5210 C.2     1  UNL1        0.1210
     34  N         25.9870  -21.1470  -16.3140 N.2     1  UNL1       -0.2300
@<TRIPOS>BOND
     1    32    33    1
     2    32    31    2
     3    33    34    2
     4    31    30    1
     5    34    29    1
     6    30    29    2
     7    29    27    1
     8    28    27    1
     9    27    24    1
    10    26    24    2
    11    24    25    2
    12    24     4    1
    13     5     4    2
    14     5     6    1
    15     4     3    1
    16     6     1    2
    17     9     8    2
    18     3     2    2
    19     1     2    1
    20     1     7    1
    21     8     7   am
    22     8    11    1
    23     7    10    1
    24    12    11    2
    25    12    13    1
    26    11    16    1
    27    13    14    2
    28    16    18   ar
    29    16    15   ar
    30    14    15    1
    31    18    19   ar
    32    15    17   ar
    33    19    17   ar
    34    19    20    1
    35    17    23    1
    36    20    21    2
    37    23    22    2
    38    21    22    1
