@<TRIPOS>MOLECULE
48478_out_ligand_01.pdbqt
 31 34 0 0 0
SMALL
GASTEIGER

@<TRIPOS>ATOM
      1  C         20.7870  -22.8490   -9.7250 C.2     1  UNL1        0.0320
      2  C         20.2270  -22.0480  -10.7260 C.2     1  UNL1        0.0170
      3  C         20.9880  -21.6810  -11.8390 C.2     1  UNL1        0.0100
      4  C         22.3200  -22.1000  -11.9590 C.2     1  UNL1       -0.0300
      5  C         22.8790  -22.8900  -10.9430 C.2     1  UNL1        0.0100
      6  C         22.1210  -23.2590   -9.8280 C.2     1  UNL1        0.0170
      7  C         19.9410  -23.2180   -8.5550 C.2     1  UNL1        0.2560
      8  O         19.7970  -24.4060   -8.2920 O.2     1  UNL1       -0.2670
      9  N         19.4290  -22.1470   -7.8450 N.am    1  UNL1       -0.3230
     10  H         19.7570  -21.2270   -8.1100 H       1  UNL1        0.1690
     11  C         18.5720  -22.1900   -6.7270 C.2     1  UNL1        0.0350
     12  C         19.0040  -21.5400   -5.5650 C.2     1  UNL1        0.0290
     13  C         18.2140  -21.5360   -4.4130 C.2     1  UNL1        0.0030
     14  C         16.9790  -22.1800   -4.4130 C.2     1  UNL1        0.0160
     15  C         16.5210  -22.8280   -5.5680 C.2     1  UNL1        0.0500
     16  C         17.3290  -22.8290   -6.7200 C.2     1  UNL1        0.0450
     17  C         15.1910  -23.5410   -5.5830 C.3     1  UNL1        0.4170
     18  F         14.1290  -22.6890   -5.6290 F       1  UNL1       -0.1660
     19  F         14.9880  -24.3210   -4.4830 F       1  UNL1       -0.1660
     20  F         15.0570  -24.3720   -6.6540 F       1  UNL1       -0.1660
     21  C         23.1470  -21.7010  -13.1670 C.3     1  UNL1        0.3110
     22  N         24.5520  -22.1230  -13.0620 N.3     1  UNL1        0.0970
     23  C         24.9440  -23.0180  -14.1630 C.3     1  UNL1        0.2770
     24  C         24.9200  -22.3670  -15.5540 C.3     1  UNL1        0.0690
     25  C         25.4950  -20.9730  -15.5600 C.2     1  UNL1       -0.0490
     26  C         25.7530  -20.3270  -16.7760 C.2     1  UNL1        0.0070
     27  C         25.7160  -20.2930  -14.3480 C.2     1  UNL1       -0.0240
     28  C         26.2460  -19.0230  -16.7900 C.2     1  UNL1        0.0010
     29  C         26.4820  -18.3530  -15.5920 C.2     1  UNL1        0.0010
     30  C         26.2220  -18.9850  -14.3760 C.2     1  UNL1        0.0090
     31  C         25.4860  -20.9800  -13.0170 C.3     1  UNL1        0.3110
@<TRIPOS>BOND
     1    28    26    1
     2    28    29    2
     3    26    25    2
     4    29    30    1
     5    25    24    1
     6    25    27    1
     7    24    23    1
     8    30    27    2
     9    27    31    1
    10    23    22    1
    11    21    22    1
    12    21     4    1
    13    22    31    1
    14     4     3    2
    15     4     5    1
    16     3     2    1
    17     5     6    2
    18     2     1    2
    19     6     1    1
    20     1     7    1
    21     7     8    2
    22     7     9   am
    23    10     9    1
    24     9    11    1
    25    11    16    2
    26    11    12    1
    27    16    15    1
    28    20    17    1
    29    18    17    1
    30    17    15    1
    31    17    19    1
    32    15    14    2
    33    12    13    2
    34    14    13    1
