@<TRIPOS>MOLECULE
48497_out_ligand_01.pdbqt
 37 42 0 0 0
SMALL
GASTEIGER

@<TRIPOS>ATOM
      1  C         23.0270  -22.7270  -10.8870 C.2     1  UNL1        0.2110
      2  N         22.6960  -21.8640  -11.8860 N.2     1  UNL1       -0.1220
      3  N         21.4360  -21.4650  -12.0510 N.pl3   1  UNL1       -0.1430
      4  C         20.5280  -21.9550  -11.1710 C.ar    1  UNL1        0.1370
      5  C         19.1310  -21.7520  -11.0420 C.ar    1  UNL1        0.0250
      6  C         18.1840  -20.9930  -11.7560 C.2     1  UNL1        0.0160
      7  C         16.8400  -21.0260  -11.3690 C.2     1  UNL1        0.0010
      8  C         16.4380  -21.7990  -10.2840 C.2     1  UNL1        0.0020
      9  C         17.3590  -22.5550   -9.5530 C.2     1  UNL1        0.0300
     10  C         18.7070  -22.5170   -9.9450 C.ar    1  UNL1        0.0490
     11  N         19.8270  -23.1470   -9.4280 N.ar    1  UNL1       -0.3290
     12  C         20.9310  -22.8290  -10.1770 C.ar    1  UNL1        0.1650
     13  N         22.1880  -23.2720   -9.9860 N.pl3   1  UNL1       -0.2010
     14  S         24.7600  -23.1200  -10.7470 S.3     1  UNL1       -0.0790
     15  C         25.4760  -21.4690  -11.0310 C.3     1  UNL1        0.1850
     16  C         26.0660  -21.2780  -12.4260 C.2     1  UNL1        0.2310
     17  O         27.1210  -21.8350  -12.7170 O.2     1  UNL1       -0.2720
     18  N         25.2790  -20.5180  -13.2740 N.am    1  UNL1       -0.3260
     19  H         24.4530  -20.1230  -12.8430 H       1  UNL1        0.1690
     20  C         25.4990  -20.1880  -14.6360 C.2     1  UNL1        0.0450
     21  C         26.0870  -18.9710  -14.9990 C.2     1  UNL1        0.0300
     22  C         26.3470  -18.6710  -16.3350 C.2     1  UNL1        0.0030
     23  C         26.0260  -19.5880  -17.3280 C.2     1  UNL1        0.0120
     24  C         25.4270  -20.8130  -17.0080 C.2     1  UNL1       -0.0240
     25  C         25.1100  -21.7140  -18.0390 C.2     1  UNL1        0.0120
     26  C         25.1410  -21.1340  -15.6530 C.2     1  UNL1        0.0010
     27  C         24.4950  -22.9330  -17.7680 C.2     1  UNL1        0.0010
     28  C         24.1820  -23.2620  -16.4590 C.2     1  UNL1        0.0010
     29  C         24.4960  -22.3790  -15.4200 C.2     1  UNL1        0.0140
     30  C         19.8760  -23.9830   -8.2400 C.3     1  UNL1        0.1350
     31  C         18.5750  -23.9790   -7.4340 C.3     1  UNL1        0.0580
     32  C         18.5760  -22.9720   -6.3090 C.2     1  UNL1       -0.0570
     33  C         19.3340  -21.7960   -6.4080 C.2     1  UNL1        0.0070
     34  C         19.3090  -20.8510   -5.3810 C.2     1  UNL1        0.0010
     35  C         18.5310  -21.0740   -4.2450 C.2     1  UNL1        0.0000
     36  C         17.7760  -22.2400   -4.1360 C.2     1  UNL1        0.0010
     37  C         17.7960  -23.1850   -5.1640 C.2     1  UNL1        0.0070
@<TRIPOS>BOND
     1    25    27    2
     2    25    24    1
     3    27    28    1
     4    23    24    2
     5    23    22    1
     6    24    26    1
     7    28    29    2
     8    22    21    2
     9    26    29    1
    10    26    20    2
    11    21    20    1
    12    20    18    1
    13    18    19    1
    14    18    16   am
    15    17    16    2
    16    16    15    1
    17     3     2    1
    18     3     4    1
    19     2     1    2
    20     6     7    1
    21     6     5    2
    22     7     8    2
    23     4     5   ar
    24     4    12   ar
    25     5    10   ar
    26    15    14    1
    27     1    14    1
    28     1    13    1
    29     8     9    1
    30    12    13    1
    31    12    11   ar
    32    10     9    2
    33    10    11   ar
    34    11    30    1
    35    30    31    1
    36    31    32    1
    37    33    32    2
    38    33    34    1
    39    32    37    1
    40    34    35    2
    41    37    36    2
    42    35    36    1
