@<TRIPOS>MOLECULE
4851_out_ligand_01.pdbqt
 38 43 0 0 0
SMALL
GASTEIGER

@<TRIPOS>ATOM
      1  C         22.2460  -22.3210  -10.7770 C.ar    1  UNL1        0.1920
      2  N         23.4030  -22.5910  -10.2220 N.ar    1  UNL1       -0.1220
      3  N         23.2490  -22.4520   -8.8680 N.ar    1  UNL1       -0.1320
      4  C         21.9980  -22.0980   -8.6240 C.ar    1  UNL1        0.1490
      5  N         21.2920  -22.1090   -9.8120 N.ar    1  UNL1       -0.3050
      6  C         21.4670  -21.7280   -7.2840 C.3     1  UNL1        0.2030
      7  N         20.1000  -22.1830   -7.1880 N.am    1  UNL1       -0.3530
      8  C         19.2340  -21.6290   -6.2760 C.2     1  UNL1        0.2260
      9  O         19.5460  -20.6480   -5.6030 O.2     1  UNL1       -0.2730
     10  H         19.8910  -23.0850   -7.5980 H       1  UNL1        0.1620
     11  C         17.8590  -22.3080   -6.1730 C.3     1  UNL1        0.0420
     12  C         17.2390  -22.0840   -4.7730 C.3     1  UNL1        0.0240
     13  C         15.8680  -22.7780   -4.6730 C.3     1  UNL1       -0.0130
     14  C         16.0430  -24.2870   -4.9080 C.3     1  UNL1        0.0090
     15  C         14.9310  -22.2020   -5.7510 C.3     1  UNL1        0.0090
     16  C         16.6390  -24.5360   -6.3030 C.3     1  UNL1       -0.0130
     17  C         15.6980  -23.9560   -7.3720 C.3     1  UNL1        0.0090
     18  C         18.0060  -23.8370   -6.3970 C.3     1  UNL1        0.0240
     19  C         15.5220  -22.4460   -7.1500 C.3     1  UNL1       -0.0130
     20  C         16.8930  -21.7550   -7.2480 C.3     1  UNL1        0.0240
     21  C         19.8690  -21.8630  -10.0330 C.3     1  UNL1        0.0930
     22  C         19.0870  -23.1630  -10.2810 C.3     1  UNL1        0.0260
     23  C         17.5740  -22.9280  -10.3260 C.3     1  UNL1        0.0020
     24  C         17.1830  -21.5580  -10.8870 C.3     1  UNL1        0.0000
     25  C         18.2500  -20.9980  -11.8180 C.3     1  UNL1        0.0020
     26  C         19.5640  -20.7620  -11.0720 C.3     1  UNL1        0.0260
     27  S         21.9780  -22.1690  -12.4730 S.3     1  UNL1       -0.0810
     28  C         23.6940  -22.1440  -13.0720 C.3     1  UNL1        0.1850
     29  C         23.8100  -21.1820  -14.2380 C.2     1  UNL1        0.2330
     30  N         24.9380  -21.3990  -15.0020 N.am    1  UNL1       -0.3040
     31  H         25.5680  -22.1640  -14.7900 H       1  UNL1        0.1710
     32  O         22.9610  -20.3110  -14.4140 O.2     1  UNL1       -0.2720
     33  C         25.2090  -20.6340  -16.1030 C.ar    1  UNL1        0.1960
     34  N         24.6710  -20.6560  -17.2990 N.ar    1  UNL1       -0.1230
     35  N         25.2240  -19.6990  -18.1300 N.ar    1  UNL1       -0.1450
     36  C         26.1580  -18.9960  -17.5220 C.ar    1  UNL1        0.0970
     37  C         26.9160  -17.8860  -18.1530 C.3     1  UNL1        0.0810
     38  S         26.4340  -19.4630  -15.8860 S.2     1  UNL1       -0.0340
@<TRIPOS>BOND
     1    37    36    1
     2    35    36   ar
     3    35    34   ar
     4    36    38   ar
     5    34    33   ar
     6    33    38   ar
     7    33    30    1
     8    30    31    1
     9    30    29   am
    10    32    29    2
    11    29    28    1
    12    28    27    1
    13    27     1    1
    14    25    26    1
    15    25    24    1
    16    26    21    1
    17    24    23    1
    18     1     2   ar
    19     1     5   ar
    20    23    22    1
    21    22    21    1
    22     2     3   ar
    23    21     5    1
    24     5     4   ar
    25     3     4   ar
    26     4     6    1
    27    10     7    1
    28    17    19    1
    29    17    16    1
    30     6     7    1
    31    20    19    1
    32    20    11    1
    33     7     8   am
    34    19    15    1
    35    18    16    1
    36    18    11    1
    37    16    14    1
    38     8    11    1
    39     8     9    2
    40    11    12    1
    41    15    13    1
    42    14    13    1
    43    12    13    1
