@<TRIPOS>MOLECULE
48512_out_ligand_01.pdbqt
 34 36 0 0 0
SMALL
GASTEIGER

@<TRIPOS>ATOM
      1  N         21.8460  -23.3410  -10.0990 N.pl3   1  UNL1       -0.2630
      2  S         23.3110  -22.6400   -9.5730 S.O2    1  UNL1        0.2650
      3  O         23.0690  -21.2930   -9.1040 O.2     1  UNL1       -0.2000
      4  O         23.9680  -23.6220   -8.7300 O.2     1  UNL1       -0.2000
      5  C         24.2560  -22.4980  -11.0700 C.2     1  UNL1        0.0800
      6  C         25.0600  -21.3720  -11.2680 C.2     1  UNL1        0.0260
      7  C         25.7820  -21.2460  -12.4550 C.2     1  UNL1        0.0080
      8  C         25.7240  -22.2480  -13.4320 C.2     1  UNL1       -0.0620
      9  C         26.4770  -22.0870  -14.7220 C.3     1  UNL1        0.0480
     10  C         24.9140  -23.3750  -13.2170 C.2     1  UNL1        0.0080
     11  C         24.1810  -23.5030  -12.0360 C.2     1  UNL1        0.0260
     12  C         21.2470  -24.3310   -9.1610 C.3     1  UNL1        0.2450
     13  C         20.3800  -23.6040   -8.1330 C.2     1  UNL1        0.2410
     14  O         20.8090  -22.6270   -7.5220 O.2     1  UNL1       -0.2710
     15  N         19.1090  -24.1510   -8.0070 N.am    1  UNL1       -0.3260
     16  H         18.8800  -24.9370   -8.6040 H       1  UNL1        0.1690
     17  C         18.0680  -23.7020   -7.1660 C.2     1  UNL1        0.0340
     18  C         17.8380  -24.1840   -5.8780 C.2     1  UNL1        0.0300
     19  C         16.7940  -23.6690   -5.1020 C.2     1  UNL1        0.0190
     20  C         15.9570  -22.6680   -5.6030 C.2     1  UNL1        0.0320
     21  C         16.1860  -22.1740   -6.8930 C.2     1  UNL1        0.0190
     22  C         17.2300  -22.6950   -7.6690 C.2     1  UNL1        0.0300
     23  C         14.8780  -22.1420   -4.7230 C.2     1  UNL1        0.2490
     24  N         13.7650  -21.6170   -5.3210 N.am    1  UNL1       -0.3660
     25  H         13.5190  -21.8230   -6.2780 H       1  UNL1        0.1590
     26  H         13.0060  -21.3820   -4.6930 H       1  UNL1        0.1590
     27  O         14.9600  -22.1920   -3.5020 O.2     1  UNL1       -0.2680
     28  C         20.8990  -22.4230  -10.6880 C.2     1  UNL1        0.0460
     29  C         21.3930  -21.4310  -11.5340 C.2     1  UNL1        0.0300
     30  C         20.5170  -20.5630  -12.1850 C.2     1  UNL1        0.0030
     31  C         19.1390  -20.7000  -12.0100 C.2     1  UNL1        0.0070
     32  C         18.6260  -21.7170  -11.2000 C.2     1  UNL1       -0.0600
     33  C         17.1490  -21.8470  -10.9800 C.3     1  UNL1        0.0480
     34  C         19.5160  -22.5810  -10.5430 C.2     1  UNL1        0.0370
@<TRIPOS>BOND
     1     9     8    1
     2     8    10    2
     3     8     7    1
     4    10    11    1
     5     7     6    2
     6    30    31    2
     7    30    29    1
     8    11     5    2
     9    31    32    1
    10    29    28    2
    11     6     5    1
    12    32    33    1
    13    32    34    2
    14     5     2    1
    15    28    34    1
    16    28     1    1
    17     1     2    1
    18     1    12    1
    19     2     3    2
    20     2     4    2
    21    12    13    1
    22    16    15    1
    23    13    15   am
    24    13    14    2
    25    15    17    1
    26    22    17    2
    27    22    21    1
    28    17    18    1
    29    21    20    2
    30    25    24    1
    31    18    19    2
    32    20    19    1
    33    20    23    1
    34    24    23   am
    35    24    26    1
    36    23    27    2
