@<TRIPOS>MOLECULE
48526_out_ligand_01.pdbqt
 30 34 0 0 0
SMALL
GASTEIGER

@<TRIPOS>ATOM
      1  C         20.8710  -22.6280   -9.4860 C.2     1  UNL1        0.0320
      2  C         22.0120  -23.2140   -8.9280 C.2     1  UNL1        0.0170
      3  C         23.1920  -23.2970   -9.6710 C.2     1  UNL1        0.0100
      4  C         23.2470  -22.8110  -10.9850 C.2     1  UNL1       -0.0300
      5  C         22.0940  -22.2350  -11.5410 C.2     1  UNL1        0.0100
      6  C         20.9100  -22.1490  -10.8010 C.2     1  UNL1        0.0170
      7  C         19.6320  -22.5580   -8.6610 C.2     1  UNL1        0.2560
      8  O         18.5510  -22.5530   -9.2380 O.2     1  UNL1       -0.2670
      9  N         19.8450  -22.5450   -7.2940 N.am    1  UNL1       -0.3230
     10  H         20.7950  -22.6950   -6.9780 H       1  UNL1        0.1690
     11  C         18.8730  -22.4410   -6.2750 C.2     1  UNL1        0.0370
     12  C         18.8150  -21.3750   -5.3570 C.2     1  UNL1        0.0320
     13  C         17.8280  -21.3310   -4.3630 C.2     1  UNL1        0.0420
     14  C         16.9200  -22.3640   -4.3100 C.2     1  UNL1        0.1050
     15  C         16.9720  -23.4090   -5.1990 C.2     1  UNL1        0.1070
     16  O         15.9020  -22.4890   -3.4190 O.2     1  UNL1       -0.3230
     17  C         17.9330  -23.4780   -6.1880 C.2     1  UNL1        0.0690
     18  O         15.9920  -24.3260   -4.9800 O.2     1  UNL1       -0.3230
     19  C         15.3150  -23.7340   -3.8500 C.3     1  UNL1        0.3520
     20  C         24.5270  -22.9060  -11.7920 C.3     1  UNL1        0.3110
     21  N         24.5210  -22.3070  -13.1300 N.3     1  UNL1        0.0970
     22  C         25.3080  -21.0760  -13.2410 C.3     1  UNL1        0.2770
     23  C         24.9500  -20.3290  -14.5350 C.3     1  UNL1        0.0690
     24  C         24.9270  -21.2310  -15.7450 C.2     1  UNL1       -0.0490
     25  C         24.9220  -20.6800  -17.0330 C.2     1  UNL1        0.0070
     26  C         24.8440  -22.6250  -15.5800 C.2     1  UNL1       -0.0240
     27  C         24.8640  -21.5100  -18.1530 C.2     1  UNL1        0.0010
     28  C         24.8030  -22.8920  -17.9940 C.2     1  UNL1        0.0010
     29  C         24.7960  -23.4480  -16.7140 C.2     1  UNL1        0.0090
     30  C         24.8850  -23.2470  -14.1970 C.3     1  UNL1        0.3110
@<TRIPOS>BOND
     1    27    28    2
     2    27    25    1
     3    28    29    1
     4    25    24    2
     5    29    26    2
     6    24    26    1
     7    24    23    1
     8    26    30    1
     9    23    22    1
    10    30    21    1
    11    22    21    1
    12    21    20    1
    13    20     4    1
    14     5     4    2
    15     5     6    1
    16     4     3    1
    17     6     1    2
    18     3     2    2
    19     1     2    1
    20     1     7    1
    21     8     7    2
    22     7     9   am
    23     9    10    1
    24     9    11    1
    25    11    17    2
    26    11    12    1
    27    17    15    1
    28    12    13    2
    29    15    18    1
    30    15    14    2
    31    18    19    1
    32    13    14    1
    33    14    16    1
    34    19    16    1
