@<TRIPOS>MOLECULE
48524_out_ligand_01.pdbqt
 37 39 0 0 0
SMALL
GASTEIGER

@<TRIPOS>ATOM
      1  N         22.0020  -23.3110  -10.0750 N.pl3   1  UNL1       -0.2630
      2  S         23.5310  -22.7380   -9.5800 S.O2    1  UNL1        0.2650
      3  O         23.3610  -21.3940   -9.0610 O.2     1  UNL1       -0.2000
      4  O         24.1970  -23.7540   -8.7920 O.2     1  UNL1       -0.2000
      5  C         24.4250  -22.5870  -11.1160 C.2     1  UNL1        0.0800
      6  C         24.3490  -23.6110  -12.0630 C.2     1  UNL1        0.0260
      7  C         25.0540  -23.4940  -13.2610 C.2     1  UNL1        0.0080
      8  C         25.8420  -22.3630  -13.5150 C.2     1  UNL1       -0.0620
      9  C         26.6320  -22.2600  -14.7870 C.3     1  UNL1        0.0480
     10  C         25.9460  -21.3650  -12.5360 C.2     1  UNL1        0.0080
     11  C         25.2420  -21.4760  -11.3360 C.2     1  UNL1        0.0260
     12  C         21.3280  -24.2500   -9.1470 C.3     1  UNL1        0.2450
     13  C         20.4540  -23.5210   -8.1250 C.2     1  UNL1        0.2410
     14  O         20.8950  -22.5920   -7.4530 O.2     1  UNL1       -0.2710
     15  N         19.1590  -24.0220   -8.0640 N.am    1  UNL1       -0.3260
     16  H         18.9130  -24.7610   -8.7100 H       1  UNL1        0.1690
     17  C         18.1220  -23.6120   -7.1990 C.2     1  UNL1        0.0340
     18  C         17.8830  -24.1710   -5.9410 C.2     1  UNL1        0.0300
     19  C         16.8260  -23.7110   -5.1420 C.2     1  UNL1        0.0190
     20  C         16.0000  -22.6770   -5.5930 C.2     1  UNL1        0.0320
     21  C         16.2260  -22.1250   -6.8570 C.2     1  UNL1        0.0190
     22  C         17.2810  -22.5870   -7.6530 C.2     1  UNL1        0.0300
     23  C         14.8640  -22.1530   -4.7890 C.2     1  UNL1        0.2490
     24  N         13.7920  -21.6360   -5.4640 N.am    1  UNL1       -0.3660
     25  H         12.9880  -21.3930   -4.8990 H       1  UNL1        0.1590
     26  H         13.6320  -21.8130   -6.4460 H       1  UNL1        0.1590
     27  O         14.8660  -22.2070   -3.5640 O.2     1  UNL1       -0.2680
     28  C         21.1860  -22.3960  -10.8260 C.2     1  UNL1        0.0460
     29  C         21.7320  -21.5190  -11.7670 C.2     1  UNL1        0.0300
     30  C         20.8980  -20.6780  -12.5050 C.2     1  UNL1        0.0030
     31  C         19.5170  -20.7190  -12.3120 C.2     1  UNL1        0.0160
     32  C         18.9530  -21.6020  -11.3780 C.2     1  UNL1        0.0500
     33  C         19.8010  -22.4470  -10.6470 C.2     1  UNL1        0.0460
     34  C         17.4560  -21.6670  -11.1950 C.3     1  UNL1        0.4170
     35  F         16.7780  -21.5040  -12.3670 F       1  UNL1       -0.1660
     36  F         17.0480  -22.8660  -10.6950 F       1  UNL1       -0.1660
     37  F         16.9690  -20.7180  -10.3490 F       1  UNL1       -0.1660
@<TRIPOS>BOND
     1     9     8    1
     2     8     7    2
     3     8    10    1
     4     7     6    1
     5    10    11    2
     6    30    31    2
     7    30    29    1
     8    35    34    1
     9    31    32    1
    10     6     5    2
    11    29    28    2
    12    32    34    1
    13    32    33    2
    14    11     5    1
    15    34    36    1
    16    34    37    1
    17     5     2    1
    18    28    33    1
    19    28     1    1
    20     1     2    1
    21     1    12    1
    22     2     3    2
    23     2     4    2
    24    12    13    1
    25    16    15    1
    26    13    15   am
    27    13    14    2
    28    15    17    1
    29    22    17    2
    30    22    21    1
    31    17    18    1
    32    21    20    2
    33    26    24    1
    34    18    19    2
    35    20    19    1
    36    20    23    1
    37    24    25    1
    38    24    23   am
    39    23    27    2
