@<TRIPOS>MOLECULE
48529_out_ligand_01.pdbqt
 33 38 0 0 0
SMALL
GASTEIGER

@<TRIPOS>ATOM
      1  S         19.9600  -23.5440   -9.0270 S.O2    1  UNL1        0.2460
      2  O         20.4520  -24.8720   -8.7270 O.2     1  UNL1       -0.2060
      3  O         19.0710  -23.2930  -10.1390 O.2     1  UNL1       -0.2060
      4  N         21.3330  -22.5330   -9.1280 N.pl3   1  UNL1       -0.1810
      5  H         22.1110  -23.0140   -8.6730 H       1  UNL1        0.1460
      6  C         21.6750  -22.1400  -10.4660 C.2     1  UNL1        0.0230
      7  C         20.7720  -21.3780  -11.2140 C.2     1  UNL1        0.0270
      8  C         21.0580  -21.0040  -12.5320 C.2     1  UNL1        0.0400
      9  C         22.2770  -21.4330  -13.0510 C.ar    1  UNL1        0.0870
     10  O         22.7360  -21.1730  -14.3100 O.2     1  UNL1       -0.3130
     11  C         23.2000  -22.2000  -12.3390 C.ar    1  UNL1        0.0160
     12  C         23.9460  -21.7730  -14.3990 C.ar    1  UNL1        0.0680
     13  C         24.7330  -21.6870  -15.6470 C.3     1  UNL1        0.0660
     14  C         24.2810  -22.4150  -13.2290 C.ar    1  UNL1        0.0520
     15  C         26.2070  -21.9660  -15.3000 C.3     1  UNL1        0.0140
     16  C         26.3830  -23.1960  -14.3890 C.3     1  UNL1        0.0840
     17  C         25.5420  -23.1160  -13.1110 C.2     1  UNL1        0.1630
     18  O         25.8950  -23.6630  -12.0700 O.2     1  UNL1       -0.2920
     19  C         22.8910  -22.5700  -11.0160 C.2     1  UNL1        0.0390
     20  C         19.1770  -22.9120   -7.5600 C.2     1  UNL1        0.0860
     21  C         19.8610  -21.9230   -6.7990 C.2     1  UNL1        0.0280
     22  C         19.2920  -21.3810   -5.6350 C.2     1  UNL1        0.0320
     23  C         18.0520  -21.8480   -5.2650 C.2     1  UNL1        0.0470
     24  C         17.4060  -22.8050   -6.0040 C.2     1  UNL1        0.0180
     25  N         17.2550  -21.5020   -4.1800 N.am    1  UNL1       -0.3220
     26  C         16.1970  -23.0930   -5.4210 C.2     1  UNL1        0.0450
     27  C         17.8960  -23.3960   -7.1660 C.2     1  UNL1        0.0000
     28  C         15.3490  -24.0300   -5.9700 C.2     1  UNL1        0.0180
     29  C         16.0820  -22.2420   -4.2170 C.2     1  UNL1        0.2570
     30  C         15.7730  -24.6710   -7.1420 C.2     1  UNL1        0.0020
     31  C         17.0230  -24.3660   -7.7350 C.2     1  UNL1        0.0140
     32  O         15.1510  -22.2120   -3.4410 O.2     1  UNL1       -0.2670
     33  H         17.4690  -20.8270   -3.4610 H       1  UNL1        0.1690
@<TRIPOS>BOND
     1    13    15    1
     2    13    12    1
     3    15    16    1
     4    12    10   ar
     5    12    14   ar
     6    16    17    1
     7    10     9   ar
     8    14    17    1
     9    14    11   ar
    10    17    18    2
    11     9     8    2
    12     9    11   ar
    13     8     7    1
    14    11    19    2
    15     7     6    2
    16    19     6    1
    17     6     4    1
    18     3     1    2
    19     4     1    1
    20     4     5    1
    21     1     2    2
    22     1    20    1
    23    31    27    1
    24    31    30    2
    25    20    27    2
    26    20    21    1
    27    27    24    1
    28    30    28    1
    29    21    22    2
    30    24    26    1
    31    24    23    2
    32    28    26    2
    33    22    23    1
    34    26    29    1
    35    23    25    1
    36    29    25   am
    37    29    32    2
    38    25    33    1
