@<TRIPOS>MOLECULE
48530_out_ligand_01.pdbqt
 36 40 0 0 0
SMALL
GASTEIGER

@<TRIPOS>ATOM
      1  O         19.2920  -21.1360  -11.5820 O.2     1  UNL1       -0.2670
      2  C         19.5750  -22.0960  -10.8760 C.2     1  UNL1        0.2560
      3  N         20.8170  -22.6940  -10.7440 N.am    1  UNL1       -0.3230
      4  H         20.9080  -23.3990  -10.0260 H       1  UNL1        0.1690
      5  C         18.5030  -22.6950  -10.0330 C.2     1  UNL1        0.0320
      6  C         17.1470  -22.4930  -10.3170 C.2     1  UNL1        0.0170
      7  C         16.1690  -23.0630   -9.4950 C.2     1  UNL1        0.0100
      8  C         16.5340  -23.8360   -8.3830 C.2     1  UNL1       -0.0300
      9  C         17.8960  -24.0140   -8.0950 C.2     1  UNL1        0.0100
     10  C         18.8750  -23.4450   -8.9120 C.2     1  UNL1        0.0170
     11  C         15.4730  -24.4310   -7.4780 C.3     1  UNL1        0.3110
     12  N         15.0410  -23.5200   -6.4080 N.3     1  UNL1        0.0970
     13  C         15.1460  -24.1890   -5.0940 C.3     1  UNL1        0.2770
     14  C         15.3590  -23.2510   -3.8980 C.3     1  UNL1        0.0690
     15  C         16.6040  -22.4460   -4.1510 C.2     1  UNL1       -0.0490
     16  C         17.5400  -22.1670   -3.1530 C.2     1  UNL1        0.0070
     17  C         16.7970  -21.9700   -5.4590 C.2     1  UNL1       -0.0240
     18  C         18.6800  -21.4260   -3.4630 C.2     1  UNL1        0.0010
     19  C         18.8800  -20.9560   -4.7610 C.2     1  UNL1        0.0010
     20  C         17.9380  -21.2190   -5.7570 C.2     1  UNL1        0.0090
     21  C         15.7040  -22.2040   -6.4770 C.3     1  UNL1        0.3110
     22  C         22.0010  -22.3680  -11.4380 C.2     1  UNL1        0.0350
     23  C         21.8600  -21.7370  -12.6820 C.2     1  UNL1        0.0310
     24  C         22.9820  -21.3680  -13.4290 C.2     1  UNL1        0.0270
     25  C         24.2580  -21.6200  -12.9230 C.2     1  UNL1        0.0790
     26  C         24.4150  -22.2720  -11.6980 C.2     1  UNL1        0.0270
     27  C         23.2860  -22.6340  -10.9560 C.2     1  UNL1        0.0310
     28  S         25.6950  -21.1790  -13.8810 S.O2    1  UNL1        0.2600
     29  O         26.7990  -21.9800  -13.3950 O.2     1  UNL1       -0.2000
     30  O         25.7750  -19.7340  -13.9030 O.2     1  UNL1       -0.2000
     31  N         25.2960  -21.7170  -15.4500 N.3     1  UNL1       -0.3070
     32  C         25.4060  -23.1760  -15.6980 C.3     1  UNL1        0.1350
     33  C         24.5990  -23.5390  -16.9420 C.3     1  UNL1        0.0210
     34  C         25.0460  -22.7220  -18.1510 C.3     1  UNL1        0.0030
     35  C         25.0050  -21.2280  -17.8380 C.3     1  UNL1        0.0210
     36  C         25.8040  -20.9020  -16.5780 C.3     1  UNL1        0.1350
@<TRIPOS>BOND
     1    34    35    1
     2    34    33    1
     3    35    36    1
     4    33    32    1
     5    36    31    1
     6    32    31    1
     7    31    28    1
     8    30    28    2
     9    28    29    2
    10    28    25    1
    11    24    25    2
    12    24    23    1
    13    25    26    1
    14    23    22    2
    15    26    27    2
    16     1     2    2
    17    22    27    1
    18    22     3    1
    19     2     3   am
    20     2     5    1
    21     3     4    1
    22     6     5    2
    23     6     7    1
    24     5    10    1
    25     7     8    2
    26    10     9    2
    27     8     9    1
    28     8    11    1
    29    11    12    1
    30    21    12    1
    31    21    17    1
    32    12    13    1
    33    20    17    1
    34    20    19    2
    35    17    15    2
    36    13    14    1
    37    19    18    1
    38    15    14    1
    39    15    16    1
    40    18    16    2
