@<TRIPOS>MOLECULE
48537_out_ligand_01.pdbqt
 31 34 0 0 0
SMALL
GASTEIGER

@<TRIPOS>ATOM
      1  C         21.3400  -22.2030  -10.6630 C.2     1  UNL1        0.0320
      2  C         20.3080  -21.4080  -11.1760 C.2     1  UNL1        0.0170
      3  C         18.9800  -21.6910  -10.8460 C.2     1  UNL1        0.0100
      4  C         18.6650  -22.7690  -10.0030 C.2     1  UNL1       -0.0300
      5  C         19.7020  -23.5750   -9.5130 C.2     1  UNL1        0.0100
      6  C         21.0310  -23.2960   -9.8450 C.2     1  UNL1        0.0170
      7  C         22.7720  -21.9370  -10.9860 C.2     1  UNL1        0.2560
      8  O         23.4250  -21.2470  -10.2130 O.2     1  UNL1       -0.2670
      9  N         23.2050  -22.4820  -12.1790 N.am    1  UNL1       -0.3220
     10  H         22.5000  -22.9090  -12.7780 H       1  UNL1        0.1690
     11  C         24.5000  -22.4480  -12.7490 C.2     1  UNL1        0.0510
     12  C         25.5710  -23.1570  -12.1890 C.2     1  UNL1        0.0300
     13  C         26.8450  -23.1210  -12.7650 C.2     1  UNL1        0.0020
     14  C         27.0730  -22.3740  -13.9140 C.2     1  UNL1        0.0010
     15  C         26.0230  -21.6650  -14.4920 C.2     1  UNL1        0.0200
     16  C         24.7350  -21.6950  -13.9250 C.2     1  UNL1        0.0640
     17  C         23.7030  -20.8950  -14.6460 C.2     1  UNL1        0.1780
     18  O         22.6050  -20.5990  -14.2110 O.2     1  UNL1       -0.6460
     19  O         24.0690  -20.4850  -15.8780 O.3     1  UNL1       -0.7730
     20  H         23.4750  -21.0070  -16.4630 H       1  UNL1        0.1670
     21  C         17.2210  -23.0710   -9.6530 C.3     1  UNL1        0.3110
     22  N         16.9180  -22.8800   -8.2260 N.3     1  UNL1        0.0970
     23  C         16.6080  -24.1710   -7.5920 C.3     1  UNL1        0.2770
     24  C         16.0940  -23.9620   -6.1610 C.3     1  UNL1        0.0690
     25  C         16.9780  -23.0440   -5.3580 C.2     1  UNL1       -0.0490
     26  C         16.8610  -22.9930   -3.9630 C.2     1  UNL1        0.0070
     27  C         17.8810  -22.1920   -6.0160 C.2     1  UNL1       -0.0240
     28  C         17.6560  -22.1200   -3.2210 C.2     1  UNL1        0.0010
     29  C         18.5670  -21.2880   -3.8660 C.2     1  UNL1        0.0010
     30  C         18.6820  -21.3250   -5.2570 C.2     1  UNL1        0.0090
     31  C         18.0510  -22.2450   -7.5210 C.3     1  UNL1        0.3110
@<TRIPOS>BOND
     1    20    19    1
     2    19    17    1
     3    17    18    2
     4    17    16    1
     5    15    16    1
     6    15    14    2
     7    16    11    2
     8    14    13    1
     9    10     9    1
    10    13    12    2
    11    11    12    1
    12    11     9    1
    13     9     7   am
    14     2     3    1
    15     2     1    2
    16     7     1    1
    17     7     8    2
    18     3     4    2
    19     1     6    1
    20     4    21    1
    21     4     5    1
    22     6     5    2
    23    21    22    1
    24    22    23    1
    25    22    31    1
    26    23    24    1
    27    31    27    1
    28    24    25    1
    29    27    25    2
    30    27    30    1
    31    25    26    1
    32    30    29    2
    33    26    28    2
    34    29    28    1
