@<TRIPOS>MOLECULE
48546_out_ligand_01.pdbqt
 28 31 0 0 0
SMALL
GASTEIGER

@<TRIPOS>ATOM
      1  C         22.1750  -22.6190  -10.8890 C.2     1  UNL1        0.0320
      2  C         21.2030  -21.7680  -11.4270 C.2     1  UNL1        0.0170
      3  C         19.8710  -21.8740  -11.0210 C.2     1  UNL1        0.0100
      4  C         19.4900  -22.8210  -10.0590 C.2     1  UNL1       -0.0300
      5  C         20.4720  -23.6640   -9.5170 C.2     1  UNL1        0.0100
      6  C         21.8060  -23.5610   -9.9220 C.2     1  UNL1        0.0170
      7  C         23.5820  -22.4670  -11.3530 C.2     1  UNL1        0.2510
      8  O         24.2130  -21.4520  -11.0840 O.2     1  UNL1       -0.2680
      9  N         24.0890  -23.5000  -12.1140 N.am    1  UNL1       -0.3530
     10  H         23.4490  -24.1820  -12.4930 H       1  UNL1        0.1630
     11  C         25.3970  -23.4130  -12.7260 C.3     1  UNL1        0.1620
     12  C         25.2900  -23.1690  -14.2030 C.2     1  UNL1       -0.0230
     13  C         25.1100  -21.8820  -14.7170 C.2     1  UNL1        0.0120
     14  C         24.9990  -21.6950  -16.0910 C.2     1  UNL1        0.0200
     15  C         25.0690  -22.8080  -16.9110 C.2     1  UNL1        0.1160
     16  N         25.2380  -24.0670  -16.4550 N.2     1  UNL1       -0.2730
     17  C         25.3450  -24.2170  -15.1150 C.2     1  UNL1        0.1240
     18  C         18.0440  -22.9320   -9.6190 C.3     1  UNL1        0.3110
     19  N         17.7840  -22.9480   -8.1760 N.3     1  UNL1        0.0970
     20  C         17.7460  -24.2880   -7.5850 C.3     1  UNL1        0.2770
     21  C         17.1100  -24.2350   -6.1880 C.3     1  UNL1        0.0690
     22  C         17.6770  -23.1330   -5.3270 C.2     1  UNL1       -0.0490
     23  C         17.4460  -23.1300   -3.9460 C.2     1  UNL1        0.0070
     24  C         18.3850  -22.0740   -5.9210 C.2     1  UNL1       -0.0240
     25  C         17.9390  -22.0930   -3.1530 C.2     1  UNL1        0.0010
     26  C         18.6590  -21.0520   -3.7340 C.2     1  UNL1        0.0010
     27  C         18.8830  -21.0420   -5.1110 C.2     1  UNL1        0.0090
     28  C         18.6810  -22.0730   -7.4080 C.3     1  UNL1        0.3110
@<TRIPOS>BOND
     1    15    16    2
     2    15    14    1
     3    16    17    1
     4    14    13    2
     5    17    12    2
     6    13    12    1
     7    12    11    1
     8    11     9    1
     9    10     9    1
    10     9     7   am
    11     2     3    1
    12     2     1    2
    13     7     8    2
    14     7     1    1
    15     3     4    2
    16     1     6    1
    17     4    18    1
    18     4     5    1
    19     6     5    2
    20    18    19    1
    21    19    20    1
    22    19    28    1
    23    20    21    1
    24    28    24    1
    25    21    22    1
    26    24    22    2
    27    24    27    1
    28    22    23    1
    29    27    26    2
    30    23    25    2
    31    26    25    1
