@<TRIPOS>MOLECULE
48545_out_ligand_01.pdbqt
 29 32 0 0 0
SMALL
GASTEIGER

@<TRIPOS>ATOM
      1  C         22.8130  -22.8100  -10.8540 C.2     1  UNL1        0.0320
      2  C         21.4840  -22.5310  -11.1830 C.2     1  UNL1        0.0170
      3  C         20.4520  -22.9530  -10.3430 C.2     1  UNL1        0.0100
      4  C         20.7340  -23.6470   -9.1570 C.2     1  UNL1       -0.0300
      5  C         22.0720  -23.9080   -8.8240 C.2     1  UNL1        0.0100
      6  C         23.1090  -23.4870   -9.6630 C.2     1  UNL1        0.0170
      7  C         23.8890  -22.3460  -11.7750 C.2     1  UNL1        0.2560
      8  N         23.4360  -21.8330  -12.9790 N.am    1  UNL1       -0.3230
      9  H         22.4360  -21.7180  -13.0770 H       1  UNL1        0.1690
     10  O         25.0510  -22.4180  -11.3960 O.2     1  UNL1       -0.2670
     11  C         24.2140  -21.3600  -14.0560 C.2     1  UNL1        0.0350
     12  C         24.9300  -20.1600  -14.0370 C.2     1  UNL1        0.0370
     13  C         25.6950  -19.7450  -15.1450 C.2     1  UNL1       -0.0430
     14  C         26.4430  -18.4410  -15.0670 C.3     1  UNL1        0.0490
     15  C         25.7330  -20.5630  -16.2820 C.2     1  UNL1        0.0170
     16  C         25.0250  -21.7660  -16.3080 C.2     1  UNL1        0.0220
     17 BR         26.7330  -20.0980  -17.8280 Br      1  UNL1       -0.0510
     18  C         24.2710  -22.1620  -15.2010 C.2     1  UNL1        0.0310
     19  C         19.6110  -24.1040   -8.2470 C.3     1  UNL1        0.3110
     20  N         18.4040  -23.2710   -8.3620 N.3     1  UNL1        0.0970
     21  C         17.1880  -24.0020   -7.9700 C.3     1  UNL1        0.2770
     22  C         17.1390  -24.4120   -6.4900 C.3     1  UNL1        0.0690
     23  C         17.6230  -23.3240   -5.5640 C.2     1  UNL1       -0.0490
     24  C         17.4380  -23.4500   -4.1800 C.2     1  UNL1        0.0070
     25  C         18.3140  -22.2110   -6.0770 C.2     1  UNL1       -0.0240
     26  C         17.9170  -22.4680   -3.3130 C.2     1  UNL1        0.0010
     27  C         18.5860  -21.3560   -3.8200 C.2     1  UNL1        0.0010
     28  C         18.7800  -21.2250   -5.1960 C.2     1  UNL1        0.0090
     29  C         18.4920  -22.0290   -7.5710 C.3     1  UNL1        0.3110
@<TRIPOS>BOND
     1    17    15    1
     2    16    15    2
     3    16    18    1
     4    15    13    1
     5    18    11    2
     6    13    14    1
     7    13    12    2
     8    11    12    1
     9    11     8    1
    10     9     8    1
    11     8     7   am
    12     7    10    2
    13     7     1    1
    14     2     1    2
    15     2     3    1
    16     1     6    1
    17     3     4    2
    18     6     5    2
    19     4     5    1
    20     4    19    1
    21    20    19    1
    22    20    21    1
    23    20    29    1
    24    21    22    1
    25    29    25    1
    26    22    23    1
    27    25    23    2
    28    25    28    1
    29    23    24    1
    30    28    27    2
    31    24    26    2
    32    27    26    1
