@<TRIPOS>MOLECULE
48553_out_ligand_01.pdbqt
 35 38 0 0 0
SMALL
GASTEIGER

@<TRIPOS>ATOM
      1  N         24.6570  -23.0170  -10.0300 N.1     1  UNL1       -0.1910
      2  C         24.1250  -22.5510  -10.9540 C.1     1  UNL1        0.1020
      3  C         23.4660  -22.0190  -12.1060 C.2     1  UNL1        0.0770
      4  C         22.1240  -21.8960  -12.1860 C.2     1  UNL1        0.0390
      5  C         24.3360  -21.5880  -13.1700 C.ar    1  UNL1        0.1220
      6  N         24.5100  -20.2970  -13.4970 N.ar    1  UNL1       -0.1680
      7  N         25.4070  -20.3200  -14.5040 N.ar    1  UNL1       -0.2500
      8  C         25.7740  -21.5920  -14.8800 C.ar    1  UNL1        0.1410
      9  C         25.1130  -22.4320  -14.0100 C.ar    1  UNL1        0.1210
     10  C         25.2050  -23.8540  -13.9850 C.1     1  UNL1        0.1060
     11  N         25.2580  -25.0130  -13.9650 N.1     1  UNL1       -0.1910
     12  C         25.9130  -19.0620  -15.0280 C.3     1  UNL1        0.1790
     13  C         27.0740  -18.5170  -14.2060 C.3     1  UNL1        0.1860
     14  O         26.7650  -18.5470  -12.8090 O.3     1  UNL1       -0.3990
     15  H         27.5120  -18.1180  -12.3510 H       1  UNL1        0.2090
     16  N         26.6260  -21.8250  -15.9080 N.pl3   1  UNL1       -0.3830
     17  H         26.2990  -22.3950  -16.7000 H       1  UNL1        0.1570
     18  H         27.6170  -21.9850  -15.7290 H       1  UNL1        0.1570
     19  C         21.1230  -22.2740  -11.2360 C.2     1  UNL1       -0.0060
     20  C         21.2840  -23.1320  -10.1720 C.2     1  UNL1        0.1040
     21  N         20.0740  -23.2520   -9.5300 N.pl3   1  UNL1       -0.3510
     22  C         19.1210  -22.4800  -10.1640 C.2     1  UNL1        0.0450
     23  C         17.7600  -22.2740   -9.8810 C.2     1  UNL1        0.0300
     24  C         19.7530  -21.8640  -11.2500 C.2     1  UNL1        0.0020
     25  C         17.0300  -21.4290  -10.7220 C.2     1  UNL1        0.0020
     26  C         17.6340  -20.8060  -11.8080 C.2     1  UNL1        0.0010
     27  C         18.9890  -21.0140  -12.0820 C.2     1  UNL1        0.0140
     28  C         19.8640  -24.0530   -8.3260 C.3     1  UNL1        0.1700
     29  C         19.3120  -23.2350   -7.1900 C.2     1  UNL1       -0.0010
     30  C         19.8610  -21.9880   -6.8510 C.2     1  UNL1        0.0120
     31  C         19.3290  -21.2410   -5.7960 C.2     1  UNL1        0.0010
     32  C         18.2390  -21.7250   -5.0730 C.2     1  UNL1        0.0030
     33  C         17.6820  -22.9580   -5.4040 C.2     1  UNL1        0.0430
     34  C         18.2180  -23.6960   -6.4550 C.2     1  UNL1        0.1240
     35  F         17.6590  -24.8780   -6.7590 F       1  UNL1       -0.2050
@<TRIPOS>BOND
     1    17    16    1
     2    16    18    1
     3    16     8    1
     4    12     7    1
     5    12    13    1
     6     8     7   ar
     7     8     9   ar
     8     7     6   ar
     9    13    14    1
    10     9    10    1
    11     9     5   ar
    12    10    11    3
    13     6     5   ar
    14     5     3    1
    15    14    15    1
    16     4     3    2
    17     4    19    1
    18     3     2    1
    19    27    26    2
    20    27    24    1
    21    26    25    1
    22    24    19    1
    23    24    22    2
    24    19    20    2
    25     2     1    3
    26    25    23    2
    27    20    21    1
    28    22    23    1
    29    22    21    1
    30    21    28    1
    31    28    29    1
    32    29    30    2
    33    29    34    1
    34    30    31    1
    35    35    34    1
    36    34    33    2
    37    31    32    2
    38    33    32    1
