@<TRIPOS>MOLECULE
48552_out_ligand_01.pdbqt
 32 35 0 0 0
SMALL
GASTEIGER

@<TRIPOS>ATOM
      1  C         20.7610  -21.4330  -11.8220 C.ar    1  UNL1        0.0620
      2  C         20.6060  -22.1760  -10.6640 C.ar    1  UNL1        0.1020
      3  S         21.9940  -23.1500  -10.3780 S.2     1  UNL1       -0.0620
      4  C         22.7760  -22.5820  -11.7760 C.ar    1  UNL1        0.1110
      5  N         24.0080  -23.0330  -12.0930 N.2     1  UNL1       -0.2450
      6  C         24.5170  -22.5010  -13.2240 C.2     1  UNL1        0.0420
      7  C         23.8680  -21.5640  -14.0280 C.2     1  UNL1       -0.0330
      8  C         22.6000  -21.1200  -13.6500 C.2     1  UNL1        0.0260
      9  C         22.0170  -21.6540  -12.4790 C.ar    1  UNL1        0.0280
     10  C         24.5830  -21.0320  -15.2360 C.3     1  UNL1        0.0400
     11  C         25.2820  -22.1530  -16.0070 C.3     1  UNL1        0.0050
     12  C         25.9750  -23.2060  -15.1290 C.3     1  UNL1        0.0060
     13  C         25.9070  -22.9250  -13.6290 C.3     1  UNL1        0.0600
     14  C         19.4540  -22.2060   -9.7600 C.2     1  UNL1        0.2650
     15  O         18.3360  -21.8510  -10.1340 O.2     1  UNL1       -0.2670
     16  N         19.7380  -22.6460   -8.4750 N.am    1  UNL1       -0.3220
     17  H         20.7100  -22.8750   -8.3050 H       1  UNL1        0.1690
     18  C         18.8620  -22.7940   -7.3820 C.2     1  UNL1        0.0350
     19  C         17.9830  -23.8860   -7.4200 C.2     1  UNL1        0.0310
     20  C         17.0810  -24.1190   -6.3760 C.2     1  UNL1        0.0270
     21  C         17.0560  -23.2470   -5.2880 C.2     1  UNL1        0.0740
     22  C         17.9180  -22.1500   -5.2380 C.2     1  UNL1        0.0270
     23  C         18.8220  -21.9300   -6.2840 C.2     1  UNL1        0.0310
     24  S         15.9280  -23.5290   -3.9580 S.O2    1  UNL1        0.2390
     25  O         16.4230  -24.6180   -3.1530 O.2     1  UNL1       -0.2060
     26  O         15.5290  -22.2600   -3.3950 O.2     1  UNL1       -0.2060
     27  N         14.5620  -24.1040   -4.7500 N.3     1  UNL1       -0.2250
     28  H         13.9340  -24.5390   -4.0730 H       1  UNL1        0.1360
     29  H         14.8410  -24.7230   -5.5110 H       1  UNL1        0.1360
     30  N         19.8240  -20.5710  -12.2850 N.pl3   1  UNL1       -0.3970
     31  H         18.8480  -20.6890  -11.9990 H       1  UNL1        0.1560
     32  H         19.9250  -20.0860  -13.1690 H       1  UNL1        0.1560
@<TRIPOS>BOND
     1    11    10    1
     2    11    12    1
     3    10     7    1
     4    12    13    1
     5     7     8    2
     6     7     6    1
     7     8     9    1
     8    13     6    1
     9     6     5    2
    10    32    30    1
    11     9     1   ar
    12     9     4   ar
    13    30    31    1
    14    30     1    1
    15     5     4    1
    16     1     2   ar
    17     4     3   ar
    18     2     3   ar
    19     2    14    1
    20    15    14    2
    21    14    16   am
    22    16    17    1
    23    16    18    1
    24    19    18    2
    25    19    20    1
    26    18    23    1
    27    20    21    2
    28    23    22    2
    29    29    27    1
    30    21    22    1
    31    21    24    1
    32    27    28    1
    33    27    24    1
    34    24    26    2
    35    24    25    2
