@<TRIPOS>MOLECULE
48550_out_ligand_01.pdbqt
 34 37 0 0 0
SMALL
GASTEIGER

@<TRIPOS>ATOM
      1  C         20.5780  -22.6340   -7.6280 C.2     1  UNL1        0.0320
      2  C         20.7140  -23.7690   -8.4380 C.2     1  UNL1        0.0170
      3  C         21.8690  -23.9430   -9.2040 C.2     1  UNL1        0.0100
      4  C         22.9040  -22.9970   -9.1650 C.2     1  UNL1       -0.0300
      5  C         22.7680  -21.8740   -8.3370 C.2     1  UNL1        0.0100
      6  C         21.6150  -21.6960   -7.5700 C.2     1  UNL1        0.0170
      7  C         19.3630  -22.4000   -6.7930 C.2     1  UNL1        0.2560
      8  O         19.1450  -21.2620   -6.3970 O.2     1  UNL1       -0.2670
      9  N         18.5750  -23.5210   -6.5850 N.am    1  UNL1       -0.3220
     10  H         18.8440  -24.3470   -7.1100 H       1  UNL1        0.1690
     11  C         17.3850  -23.6210   -5.8210 C.2     1  UNL1        0.0500
     12  C         17.4000  -23.5970   -4.4190 C.2     1  UNL1        0.0300
     13  C         16.2210  -23.6950   -3.6750 C.2     1  UNL1        0.0020
     14  C         14.9980  -23.8260   -4.3190 C.2     1  UNL1        0.0010
     15  C         14.9590  -23.8630   -5.7090 C.2     1  UNL1        0.0180
     16  C         16.1420  -23.7610   -6.4770 C.2     1  UNL1        0.0740
     17  C         15.9920  -23.8430   -7.9740 C.3     1  UNL1        0.4190
     18  F         17.1750  -23.9220   -8.6520 F       1  UNL1       -0.1660
     19  F         15.3420  -22.7670   -8.5000 F       1  UNL1       -0.1660
     20  F         15.2770  -24.9350   -8.3640 F       1  UNL1       -0.1660
     21  C         24.1540  -23.1930   -9.9990 C.3     1  UNL1        0.3110
     22  N         24.6490  -21.9500  -10.6160 N.3     1  UNL1        0.0920
     23  C         26.0630  -22.0820  -11.0190 C.3     1  UNL1        0.2730
     24  C         26.4620  -21.0860  -12.1080 C.3     1  UNL1        0.0350
     25  C         25.6440  -21.2900  -13.3970 C.3     1  UNL1       -0.0070
     26  C         24.2780  -21.9340  -13.0970 C.3     1  UNL1        0.0350
     27  C         23.7730  -21.5160  -11.7160 C.3     1  UNL1        0.2730
     28  C         26.4150  -21.9990  -14.5330 C.3     1  UNL1        0.0430
     29  C         25.6470  -22.2990  -15.8000 C.2     1  UNL1       -0.0580
     30  C         24.9500  -23.5060  -15.9470 C.2     1  UNL1        0.0070
     31  C         24.2320  -23.7770  -17.1130 C.2     1  UNL1        0.0010
     32  C         24.2100  -22.8480  -18.1500 C.2     1  UNL1        0.0000
     33  C         24.9130  -21.6520  -18.0260 C.2     1  UNL1        0.0010
     34  C         25.6300  -21.3810  -16.8590 C.2     1  UNL1        0.0070
@<TRIPOS>BOND
     1    32    33    2
     2    32    31    1
     3    33    34    1
     4    31    30    2
     5    34    29    2
     6    30    29    1
     7    29    28    1
     8    28    25    1
     9    25    26    1
    10    25    24    1
    11    26    27    1
    12    24    23    1
    13    27    22    1
    14    23    22    1
    15    22    21    1
    16    21     4    1
    17     3     4    2
    18     3     2    1
    19     4     5    1
    20    18    17    1
    21    19    17    1
    22     2     1    2
    23    20    17    1
    24     5     6    2
    25    17    16    1
    26     1     6    1
    27     1     7    1
    28    10     9    1
    29     7     9   am
    30     7     8    2
    31     9    11    1
    32    16    11    2
    33    16    15    1
    34    11    12    1
    35    15    14    2
    36    12    13    2
    37    14    13    1
