@<TRIPOS>MOLECULE
48565_out_ligand_01.pdbqt
 28 31 0 0 0
SMALL
GASTEIGER

@<TRIPOS>ATOM
      1  C         19.7930  -23.2440   -8.7020 C.2     1  UNL1        0.0320
      2  C         19.5450  -22.2400   -9.6460 C.2     1  UNL1        0.0170
      3  C         20.4980  -21.9390  -10.6210 C.2     1  UNL1        0.0100
      4  C         21.7170  -22.6310  -10.6590 C.2     1  UNL1       -0.0300
      5  C         21.9670  -23.6240   -9.7000 C.2     1  UNL1        0.0100
      6  C         21.0140  -23.9280   -8.7230 C.2     1  UNL1        0.0170
      7  C         18.7460  -23.5300   -7.6790 C.2     1  UNL1        0.2560
      8  O         18.5140  -24.6980   -7.3900 O.2     1  UNL1       -0.2670
      9  N         18.1560  -22.4130   -7.1200 N.am    1  UNL1       -0.3200
     10  H         18.5340  -21.5040   -7.3620 H       1  UNL1        0.1690
     11  C         17.1230  -22.3760   -6.1580 C.2     1  UNL1        0.0730
     12  C         17.3280  -22.3220   -4.7800 C.2     1  UNL1        0.0330
     13  C         16.2340  -22.2930   -3.9050 C.2     1  UNL1        0.0020
     14  C         14.9290  -22.3210   -4.3980 C.2     1  UNL1        0.0030
     15  C         14.7130  -22.3800   -5.7720 C.2     1  UNL1        0.0440
     16  C         15.8050  -22.4070   -6.6360 C.2     1  UNL1        0.1430
     17  F         15.5840  -22.4660   -7.9600 F       1  UNL1       -0.2040
     18  C         22.7540  -22.3050  -11.7170 C.3     1  UNL1        0.3110
     19  N         24.0240  -23.0200  -11.5130 N.3     1  UNL1        0.0970
     20  C         24.5830  -23.5240  -12.7770 C.3     1  UNL1        0.2770
     21  C         25.0010  -22.4300  -13.7730 C.3     1  UNL1        0.0690
     22  C         25.7170  -21.2790  -13.1100 C.2     1  UNL1       -0.0490
     23  C         26.3590  -20.3100  -13.8950 C.2     1  UNL1        0.0070
     24  C         25.6890  -21.1390  -11.7110 C.2     1  UNL1       -0.0240
     25  C         26.9870  -19.2210  -13.2930 C.2     1  UNL1        0.0010
     26  C         26.9760  -19.0870  -11.9070 C.2     1  UNL1        0.0010
     27  C         26.3350  -20.0430  -11.1190 C.2     1  UNL1        0.0090
     28  C         25.0390  -22.1890  -10.8350 C.3     1  UNL1        0.3110
@<TRIPOS>BOND
     1    23    25    1
     2    23    22    2
     3    21    22    1
     4    21    20    1
     5    25    26    2
     6    22    24    1
     7    20    19    1
     8    26    27    1
     9    18    19    1
    10    18     4    1
    11    24    27    2
    12    24    28    1
    13    19    28    1
    14     4     3    2
    15     4     5    1
    16     3     2    1
    17     5     6    2
    18     2     1    2
    19     6     1    1
    20     1     7    1
    21    17    16    1
    22     7     8    2
    23     7     9   am
    24    10     9    1
    25     9    11    1
    26    16    11    2
    27    16    15    1
    28    11    12    1
    29    15    14    2
    30    12    13    2
    31    14    13    1
