@<TRIPOS>MOLECULE
48564_out_ligand_01.pdbqt
 31 34 0 0 0
SMALL
GASTEIGER

@<TRIPOS>ATOM
      1  C         20.7440  -22.5400   -7.6810 C.2     1  UNL1        0.0320
      2  C         21.8060  -21.6290   -7.7300 C.2     1  UNL1        0.0170
      3  C         22.8840  -21.8580   -8.5910 C.2     1  UNL1        0.0100
      4  C         22.9090  -22.9870   -9.4230 C.2     1  UNL1       -0.0300
      5  C         21.8340  -23.8860   -9.3790 C.2     1  UNL1        0.0100
      6  C         20.7570  -23.6610   -8.5190 C.2     1  UNL1        0.0170
      7  C         19.5720  -22.3400   -6.7810 C.2     1  UNL1        0.2560
      8  O         19.4660  -21.2660   -6.2000 O.2     1  UNL1       -0.2670
      9  N         18.6830  -23.4000   -6.7330 N.am    1  UNL1       -0.3220
     10  H         18.8600  -24.1510   -7.3930 H       1  UNL1        0.1690
     11  C         17.5150  -23.5260   -5.9390 C.2     1  UNL1        0.0500
     12  C         17.5670  -23.4920   -4.5380 C.2     1  UNL1        0.0300
     13  C         16.4100  -23.6220   -3.7630 C.2     1  UNL1        0.0020
     14  C         15.1750  -23.7890   -4.3740 C.2     1  UNL1        0.0010
     15  C         15.1000  -23.8320   -5.7620 C.2     1  UNL1        0.0180
     16  C         16.2600  -23.7060   -6.5610 C.2     1  UNL1        0.0740
     17  C         16.0650  -23.7520   -8.0540 C.3     1  UNL1        0.4190
     18  F         17.2300  -23.7520   -8.7720 F       1  UNL1       -0.1660
     19  F         15.3500  -22.6910   -8.5210 F       1  UNL1       -0.1660
     20  F         15.3910  -24.8650   -8.4630 F       1  UNL1       -0.1660
     21  C         24.0830  -23.2340  -10.3500 C.3     1  UNL1        0.3110
     22  N         24.7980  -22.0000  -10.7110 N.3     1  UNL1        0.0970
     23  C         26.2480  -22.2190  -10.8460 C.3     1  UNL1        0.2770
     24  C         26.6460  -23.1510  -12.0010 C.3     1  UNL1        0.0690
     25  C         25.8730  -22.8790  -13.2670 C.2     1  UNL1       -0.0490
     26  C         26.2690  -23.4750  -14.4710 C.2     1  UNL1        0.0070
     27  C         24.7150  -22.0790  -13.2310 C.2     1  UNL1       -0.0240
     28  C         25.5360  -23.2620  -15.6380 C.2     1  UNL1        0.0010
     29  C         24.4000  -22.4560  -15.6090 C.2     1  UNL1        0.0010
     30  C         23.9930  -21.8640  -14.4130 C.2     1  UNL1        0.0090
     31  C         24.2840  -21.3880  -11.9530 C.3     1  UNL1        0.3110
@<TRIPOS>BOND
     1    28    29    2
     2    28    26    1
     3    29    30    1
     4    26    25    2
     5    30    27    2
     6    25    27    1
     7    25    24    1
     8    27    31    1
     9    24    23    1
    10    31    22    1
    11    23    22    1
    12    22    21    1
    13    21     4    1
    14     4     5    2
    15     4     3    1
    16     5     6    1
    17    18    17    1
    18     3     2    2
    19    19    17    1
    20     6     1    2
    21    20    17    1
    22    17    16    1
    23     2     1    1
    24     1     7    1
    25    10     9    1
    26     7     9   am
    27     7     8    2
    28     9    11    1
    29    16    11    2
    30    16    15    1
    31    11    12    1
    32    15    14    2
    33    12    13    2
    34    14    13    1
