@<TRIPOS>MOLECULE
48561_out_ligand_01.pdbqt
 33 36 0 0 0
SMALL
GASTEIGER

@<TRIPOS>ATOM
      1  C         20.7310  -21.4630  -11.7260 C.ar    1  UNL1        0.0620
      2  C         20.5610  -22.1710  -10.5470 C.ar    1  UNL1        0.1020
      3  S         21.9650  -23.0930  -10.1880 S.2     1  UNL1       -0.0620
      4  C         22.7690  -22.5560  -11.5850 C.ar    1  UNL1        0.1110
      5  N         24.0140  -22.9870  -11.8590 N.2     1  UNL1       -0.2450
      6  C         24.5600  -22.4900  -12.9930 C.2     1  UNL1        0.0420
      7  C         23.9150  -21.5880  -13.8450 C.2     1  UNL1       -0.0330
      8  C         22.6150  -21.1780  -13.5110 C.2     1  UNL1        0.0260
      9  C         22.0090  -21.6770  -12.3390 C.ar    1  UNL1        0.0280
     10  C         24.5640  -21.0540  -15.0950 C.3     1  UNL1        0.0400
     11  C         25.8060  -20.2100  -14.8110 C.3     1  UNL1        0.0050
     12  C         27.0620  -21.0330  -14.5270 C.3     1  UNL1        0.0010
     13  C         27.0040  -21.8710  -13.2510 C.3     1  UNL1        0.0060
     14  C         25.9560  -22.9820  -13.2920 C.3     1  UNL1        0.0600
     15  C         19.3830  -22.2010   -9.6750 C.2     1  UNL1        0.2650
     16  O         18.2830  -21.8180  -10.0700 O.2     1  UNL1       -0.2670
     17  N         19.6190  -22.6890   -8.3990 N.am    1  UNL1       -0.3220
     18  H         20.5750  -22.9710   -8.2190 H       1  UNL1        0.1690
     19  C         18.7110  -22.8400   -7.3330 C.2     1  UNL1        0.0350
     20  C         18.6720  -22.0090   -6.2090 C.2     1  UNL1        0.0310
     21  C         17.7370  -22.2300   -5.1920 C.2     1  UNL1        0.0270
     22  C         16.8300  -23.2850   -5.3040 C.2     1  UNL1        0.0740
     23  C         16.8630  -24.1320   -6.4120 C.2     1  UNL1        0.0270
     24  C         17.8010  -23.9040   -7.4230 C.2     1  UNL1        0.0310
     25  S         15.6470  -23.5780   -4.0170 S.O2    1  UNL1        0.2390
     26  O         15.1840  -22.3040   -3.5160 O.2     1  UNL1       -0.2060
     27  O         16.1590  -24.6130   -3.1530 O.2     1  UNL1       -0.2060
     28  N         14.3560  -24.2190   -4.8880 N.3     1  UNL1       -0.2250
     29  H         13.7040  -24.6550   -4.2330 H       1  UNL1        0.1360
     30  H         13.8930  -23.5350   -5.4850 H       1  UNL1        0.1360
     31  N         19.7860  -20.6450  -12.2440 N.pl3   1  UNL1       -0.3970
     32  H         19.2290  -20.0170  -11.6770 H       1  UNL1        0.1560
     33  H         19.8240  -20.3800  -13.2330 H       1  UNL1        0.1560
@<TRIPOS>BOND
     1    10    11    1
     2    10     7    1
     3    11    12    1
     4    12    13    1
     5     7     8    2
     6     7     6    1
     7     8     9    1
     8    14    13    1
     9    14     6    1
    10    33    31    1
    11     6     5    2
    12     9     1   ar
    13     9     4   ar
    14    31     1    1
    15    31    32    1
    16     5     4    1
    17     1     2   ar
    18     4     3   ar
    19     2     3   ar
    20     2    15    1
    21    16    15    2
    22    15    17   am
    23    17    18    1
    24    17    19    1
    25    24    19    2
    26    24    23    1
    27    19    20    1
    28    23    22    2
    29    20    21    2
    30    30    28    1
    31    22    21    1
    32    22    25    1
    33    28    29    1
    34    28    25    1
    35    25    26    2
    36    25    27    2
