@<TRIPOS>MOLECULE
4856_out_ligand_01.pdbqt
 39 42 0 0 0
SMALL
GASTEIGER

@<TRIPOS>ATOM
      1  S         20.3590  -20.6650  -12.4470 S.3     1  UNL1       -0.0810
      2  C         19.6150  -21.7330  -11.1800 C.3     1  UNL1        0.1850
      3  C         18.1000  -21.5990  -11.1990 C.2     1  UNL1        0.2270
      4  N         17.4270  -22.5300  -10.4260 N.am    1  UNL1       -0.3600
      5  H         17.9500  -23.3470  -10.1390 H       1  UNL1        0.1620
      6  O         17.5230  -20.7410  -11.8580 O.2     1  UNL1       -0.2730
      7  C         15.9820  -22.6600  -10.5400 C.3     1  UNL1        0.1270
      8  C         15.4340  -23.7070   -9.5650 C.3     1  UNL1        0.0580
      9  C         15.9200  -23.5180   -8.1490 C.2     1  UNL1       -0.0570
     10  C         16.2360  -24.6200   -7.3430 C.2     1  UNL1        0.0090
     11  C         16.6660  -24.4340   -6.0280 C.2     1  UNL1        0.0250
     12  C         16.7810  -23.1410   -5.5170 C.2     1  UNL1        0.0740
     13  C         16.4600  -22.0360   -6.3000 C.2     1  UNL1        0.0250
     14  C         16.0410  -22.2270   -7.6180 C.2     1  UNL1        0.0090
     15  S         17.2990  -22.8990   -3.8380 S.O2    1  UNL1        0.2390
     16  O         17.4560  -24.1920   -3.2090 O.2     1  UNL1       -0.2060
     17  O         18.3340  -21.8990   -3.8190 O.2     1  UNL1       -0.2060
     18  N         15.9200  -22.2180   -3.1550 N.3     1  UNL1       -0.2250
     19  H         16.1230  -21.4080   -2.5670 H       1  UNL1        0.1360
     20  H         15.2610  -21.9940   -3.9020 H       1  UNL1        0.1360
     21  C         21.9630  -21.4160  -12.5390 C.2     1  UNL1        0.1900
     22  N         22.3230  -22.2310  -11.5410 N.2     1  UNL1       -0.2100
     23  C         23.5450  -22.7900  -11.6070 C.3     1  UNL1        0.1180
     24  C         24.3840  -22.6030  -12.7170 C.2     1  UNL1        0.0330
     25  C         25.6600  -23.1910  -12.8780 C.2     1  UNL1        0.0170
     26  C         23.8850  -21.7610  -13.7150 C.2     1  UNL1        0.0730
     27  C         26.4150  -22.9540  -14.0240 C.2     1  UNL1        0.0010
     28  C         25.9120  -22.1300  -15.0130 C.2     1  UNL1        0.0020
     29  C         24.6580  -21.5440  -14.8480 C.2     1  UNL1        0.0320
     30  N         22.6900  -21.1710  -13.6290 N.pl3   1  UNL1       -0.2220
     31  N         23.9810  -23.5980  -10.5420 N.3     1  UNL1       -0.2720
     32  H         23.5940  -24.5290  -10.6480 H       1  UNL1        0.1290
     33  C         23.8050  -23.0700   -9.1910 C.3     1  UNL1        0.1320
     34  C         22.3740  -23.1990   -8.7250 C.2     1  UNL1       -0.0450
     35  C         21.6450  -24.3690   -8.9810 C.2     1  UNL1        0.0080
     36  C         20.3250  -24.4930   -8.5490 C.2     1  UNL1        0.0010
     37  C         19.7180  -23.4470   -7.8570 C.2     1  UNL1        0.0000
     38  C         20.4260  -22.2770   -7.6100 C.2     1  UNL1        0.0010
     39  C         21.7470  -22.1510   -8.0420 C.2     1  UNL1        0.0080
@<TRIPOS>BOND
     1    28    29    2
     2    28    27    1
     3    29    26    1
     4    27    25    2
     5    26    30    1
     6    26    24    2
     7    30    21    1
     8    25    24    1
     9    24    23    1
    10    21     1    1
    11    21    22    2
    12     1     2    1
    13     6     3    2
    14    23    22    1
    15    23    31    1
    16     3     2    1
    17     3     4   am
    18    32    31    1
    19    31    33    1
    20     7     4    1
    21     7     8    1
    22     4     5    1
    23     8     9    1
    24    33    34    1
    25    35    34    2
    26    35    36    1
    27    34    39    1
    28    36    37    2
    29     9    14    2
    30     9    10    1
    31    39    38    2
    32    37    38    1
    33    14    13    1
    34    10    11    2
    35    13    12    2
    36    11    12    1
    37    12    15    1
    38    20    18    1
    39    15    17    2
    40    15    16    2
    41    15    18    1
    42    18    19    1
