@<TRIPOS>MOLECULE
48571_out_ligand_01.pdbqt
 35 38 0 0 0
SMALL
GASTEIGER

@<TRIPOS>ATOM
      1  C         21.4990  -22.3490   -9.5260 C.2     1  UNL1        0.0340
      2  C         21.5050  -22.3590  -10.9290 C.2     1  UNL1        0.0310
      3  C         22.6720  -22.0730  -11.6430 C.2     1  UNL1        0.0270
      4  C         23.8460  -21.7790  -10.9470 C.2     1  UNL1        0.0800
      5  C         23.8530  -21.7480   -9.5520 C.2     1  UNL1        0.0270
      6  C         22.6800  -22.0380   -8.8460 C.2     1  UNL1        0.0310
      7  N         20.2760  -22.6420   -8.8900 N.am    1  UNL1       -0.3260
      8  C         19.8800  -23.8510   -8.3170 C.2     1  UNL1        0.2350
      9  O         20.5410  -24.8850   -8.3360 O.2     1  UNL1       -0.2720
     10  H         19.5770  -21.9080   -8.9130 H       1  UNL1        0.1690
     11  C         18.4870  -23.7450   -7.6490 C.3     1  UNL1        0.1440
     12  C         18.4980  -22.8700   -6.3930 C.2     1  UNL1       -0.0410
     13  C         17.7550  -23.2620   -5.2680 C.2     1  UNL1        0.0080
     14  C         17.7470  -22.4790   -4.1110 C.2     1  UNL1        0.0010
     15  C         18.4750  -21.2930   -4.0670 C.2     1  UNL1        0.0000
     16  C         19.2060  -20.8830   -5.1800 C.2     1  UNL1        0.0010
     17  C         19.2150  -21.6640   -6.3380 C.2     1  UNL1        0.0080
     18  C         17.3540  -23.3760   -8.6030 C.2     1  UNL1       -0.0410
     19  C         16.1750  -24.1420   -8.6200 C.2     1  UNL1        0.0080
     20  C         15.1190  -23.8100   -9.4710 C.2     1  UNL1        0.0010
     21  C         15.2220  -22.7080  -10.3160 C.2     1  UNL1        0.0000
     22  C         16.3820  -21.9360  -10.3080 C.2     1  UNL1        0.0010
     23  C         17.4380  -22.2650   -9.4570 C.2     1  UNL1        0.0080
     24  S         25.3320  -21.3960  -11.8380 S.O2    1  UNL1        0.2630
     25  O         26.0950  -20.4280  -11.0800 O.2     1  UNL1       -0.2000
     26  O         25.9230  -22.6500  -12.2540 O.2     1  UNL1       -0.2000
     27  N         24.7420  -20.6670  -13.2460 N.pl3   1  UNL1       -0.2810
     28  H         23.7840  -20.3460  -13.1070 H       1  UNL1        0.1790
     29  C         25.0600  -21.2730  -14.4910 C.2     1  UNL1        0.0420
     30  C         26.2010  -20.8720  -15.1900 C.2     1  UNL1        0.0330
     31  C         26.4850  -21.4400  -16.4320 C.2     1  UNL1        0.0440
     32  C         25.6260  -22.3980  -16.9610 C.2     1  UNL1        0.1160
     33  F         25.9000  -22.9440  -18.1530 F       1  UNL1       -0.2060
     34  C         24.4850  -22.7970  -16.2730 C.2     1  UNL1        0.0440
     35  C         24.1970  -22.2290  -15.0310 C.2     1  UNL1        0.0330
@<TRIPOS>BOND
     1    33    32    1
     2    32    31    2
     3    32    34    1
     4    31    30    1
     5    34    35    2
     6    30    29    2
     7    35    29    1
     8    29    27    1
     9    27    28    1
    10    27    24    1
    11    26    24    2
    12    24    25    2
    13    24     4    1
    14     3     4    2
    15     3     2    1
    16     4     5    1
    17     2     1    2
    18    21    22    2
    19    21    20    1
    20    22    23    1
    21     5     6    2
    22     1     7    1
    23     1     6    1
    24    20    19    2
    25    23    18    2
    26    10     7    1
    27     7     8   am
    28    19    18    1
    29    18    11    1
    30     9     8    2
    31     8    11    1
    32    11    12    1
    33    12    17    2
    34    12    13    1
    35    17    16    1
    36    13    14    2
    37    16    15    2
    38    14    15    1
