@<TRIPOS>MOLECULE
48588_out_ligand_01.pdbqt
 36 38 0 0 0
SMALL
GASTEIGER

@<TRIPOS>ATOM
      1  N         22.8990  -21.9780  -10.6510 N.3     1  UNL1       -0.1970
      2  S         24.3360  -22.7100  -11.2440 S.O2    1  UNL1        0.2440
      3  O         23.9520  -23.6260  -12.2950 O.2     1  UNL1       -0.2060
      4  O         25.1070  -23.1440  -10.1000 O.2     1  UNL1       -0.2060
      5  C         25.1910  -21.3300  -11.9640 C.2     1  UNL1        0.0740
      6  C         26.0740  -20.5690  -11.1960 C.2     1  UNL1        0.0270
      7  C         26.7470  -19.4890  -11.7780 C.2     1  UNL1        0.0380
      8  C         26.5270  -19.1660  -13.1190 C.2     1  UNL1        0.0680
      9  C         25.6230  -19.9250  -13.8720 C.2     1  UNL1        0.0380
     10  C         24.9470  -21.0030  -13.3000 C.2     1  UNL1        0.0270
     11  O         27.1200  -18.1440  -13.8060 O.2     1  UNL1       -0.3560
     12  C         26.7330  -17.9690  -15.1650 C.3     1  UNL1        0.2100
     13  C         21.6260  -22.6220  -11.1070 C.3     1  UNL1        0.1120
     14  C         20.7410  -21.5680  -11.7810 C.3     1  UNL1        0.0540
     15  C         19.3170  -21.6510  -11.2960 C.2     1  UNL1       -0.0570
     16  C         18.3970  -20.6460  -11.6280 C.2     1  UNL1        0.0070
     17  C         17.0700  -20.7360  -11.2080 C.2     1  UNL1        0.0010
     18  C         16.6500  -21.8310  -10.4560 C.2     1  UNL1        0.0000
     19  C         17.5570  -22.8360  -10.1210 C.2     1  UNL1        0.0010
     20  C         18.8850  -22.7480  -10.5400 C.2     1  UNL1        0.0070
     21  C         22.9410  -21.8060   -9.1520 C.3     1  UNL1        0.2100
     22  C         21.8480  -22.6110   -8.4530 C.2     1  UNL1        0.2360
     23  O         21.7440  -23.8200   -8.6370 O.2     1  UNL1       -0.2720
     24  N         20.9970  -21.8160   -7.7060 N.am    1  UNL1       -0.3260
     25  H         21.2740  -20.8390   -7.6790 H       1  UNL1        0.1690
     26  C         19.8650  -22.1950   -6.9660 C.2     1  UNL1        0.0340
     27  C         19.1860  -23.3990   -7.1470 C.2     1  UNL1        0.0300
     28  C         18.0610  -23.7000   -6.3710 C.2     1  UNL1        0.0190
     29  C         17.5960  -22.7960   -5.4110 C.2     1  UNL1        0.0320
     30  C         18.2850  -21.5950   -5.2150 C.2     1  UNL1        0.0190
     31  C         19.4100  -21.2970   -5.9930 C.2     1  UNL1        0.0300
     32  C         16.3960  -23.1600   -4.6140 C.2     1  UNL1        0.2490
     33  N         15.8450  -22.1900   -3.8220 N.am    1  UNL1       -0.3660
     34  H         14.9530  -22.4270   -3.4060 H       1  UNL1        0.1590
     35  H         16.0390  -21.2110   -3.9680 H       1  UNL1        0.1590
     36  O         15.8860  -24.2710   -4.6840 O.2     1  UNL1       -0.2680
@<TRIPOS>BOND
     1    12    11    1
     2     9    10    1
     3     9     8    2
     4    11     8    1
     5    10     5    2
     6     8     7    1
     7     3     2    2
     8     5     2    1
     9     5     6    1
    10    14    15    1
    11    14    13    1
    12     7     6    2
    13    16    15    2
    14    16    17    1
    15    15    20    1
    16     2     1    1
    17     2     4    2
    18    17    18    2
    19    13     1    1
    20     1    21    1
    21    20    19    2
    22    18    19    1
    23    21    22    1
    24    23    22    2
    25    22    24   am
    26    24    25    1
    27    24    26    1
    28    27    26    2
    29    27    28    1
    30    26    31    1
    31    28    29    2
    32    31    30    2
    33    29    30    1
    34    29    32    1
    35    36    32    2
    36    32    33   am
    37    35    33    1
    38    33    34    1
