@<TRIPOS>MOLECULE
48596_out_ligand_01.pdbqt
 27 29 0 0 0
SMALL
GASTEIGER

@<TRIPOS>ATOM
      1  N         19.1190  -21.7550   -7.5930 N.am    1  UNL1       -0.3230
      2  C         19.2420  -22.8260   -8.4570 C.2     1  UNL1        0.2570
      3  O         18.8420  -23.9710   -8.2970 O.2     1  UNL1       -0.2670
      4  H         19.4290  -20.8550   -7.9420 H       1  UNL1        0.1690
      5  C         18.5710  -21.7640   -6.2950 C.2     1  UNL1        0.0360
      6  C         19.2900  -21.0990   -5.2910 C.2     1  UNL1        0.0290
      7  C         18.8180  -21.0590   -3.9760 C.2     1  UNL1        0.0040
      8  C         17.6200  -21.6880   -3.6470 C.2     1  UNL1        0.0250
      9  C         16.9070  -22.3550   -4.6430 C.2     1  UNL1        0.0760
     10  C         17.3760  -22.4010   -5.9620 C.2     1  UNL1        0.0540
     11  S         15.3940  -23.1770   -4.2480 S.O2    1  UNL1        0.2390
     12  O         14.3910  -22.1910   -3.9170 O.2     1  UNL1       -0.2060
     13  O         15.6840  -24.3030   -3.3920 O.2     1  UNL1       -0.2060
     14  N         14.9240  -23.8060   -5.7310 N.3     1  UNL1       -0.2250
     15  H         14.2650  -24.5710   -5.5930 H       1  UNL1        0.1360
     16  H         15.7460  -24.0540   -6.2820 H       1  UNL1        0.1360
     17  C         19.8890  -22.4770   -9.7470 C.2     1  UNL1        0.0430
     18  C         19.0480  -21.9330  -10.7220 C.2     1  UNL1        0.0180
     19  C         19.5810  -21.5230  -11.9330 C.2     1  UNL1        0.0020
     20  C         20.9500  -21.6600  -12.1660 C.2     1  UNL1        0.0130
     21  C         21.8290  -22.2280  -11.2090 C.2     1  UNL1       -0.0070
     22  C         23.2240  -22.3950  -11.4230 C.2     1  UNL1        0.0220
     23  C         21.2810  -22.6600   -9.9710 C.2     1  UNL1       -0.0090
     24 BR         24.0900  -21.8400  -13.0300 Br      1  UNL1       -0.0500
     25  C         24.0470  -22.9840  -10.4580 C.2     1  UNL1        0.0200
     26  C         23.5030  -23.4280   -9.2620 C.2     1  UNL1        0.0020
     27  C         22.1400  -23.2700   -9.0240 C.2     1  UNL1        0.0130
@<TRIPOS>BOND
     1    24    22    1
     2    20    19    2
     3    20    21    1
     4    19    18    1
     5    22    21    2
     6    22    25    1
     7    21    23    1
     8    18    17    2
     9    25    26    2
    10    23    17    1
    11    23    27    2
    12    17     2    1
    13    26    27    1
    14     2     3    2
    15     2     1   am
    16     4     1    1
    17     1     5    1
    18     5    10    2
    19     5     6    1
    20    16    14    1
    21    10     9    1
    22    14    15    1
    23    14    11    1
    24     6     7    2
    25     9    11    1
    26     9     8    2
    27    11    12    2
    28    11    13    2
    29     7     8    1
