@<TRIPOS>MOLECULE
48603_out_ligand_01.pdbqt
 31 33 0 0 0
SMALL
GASTEIGER

@<TRIPOS>ATOM
      1  C         21.6530  -23.1860   -8.6710 C.2     1  UNL1        0.0750
      2  C         21.0390  -24.4300   -8.8090 C.2     1  UNL1        0.0270
      3  C         19.8060  -24.6580   -8.1900 C.2     1  UNL1        0.0310
      4  C         19.1750  -23.6620   -7.4220 C.2     1  UNL1        0.0310
      5  C         19.8340  -22.4350   -7.2680 C.2     1  UNL1        0.0310
      6  C         21.0660  -22.1920   -7.8890 C.2     1  UNL1        0.0270
      7  N         17.9520  -23.9790   -6.8010 N.pl3   1  UNL1       -0.3660
      8  H         17.9060  -24.9280   -6.4400 H       1  UNL1        0.1650
      9  C         16.7850  -23.2630   -6.7630 C.2     1  UNL1        0.0920
     10  C         15.9510  -22.9150   -7.7530 C.2     1  UNL1        0.0720
     11  C         16.0630  -23.2320   -9.1990 C.2     1  UNL1        0.1830
     12  O         15.3730  -24.1320   -9.6710 O.2     1  UNL1       -0.2880
     13  C         17.0100  -22.4960  -10.0710 C.2     1  UNL1        0.0140
     14  C         18.2020  -23.0730  -10.5270 C.2     1  UNL1        0.0180
     15  C         19.0590  -22.3410  -11.3520 C.2     1  UNL1        0.0430
     16  C         18.7120  -21.0480  -11.7300 C.2     1  UNL1        0.1160
     17  F         19.5370  -20.3490  -12.5210 F       1  UNL1       -0.2060
     18  C         17.5200  -20.4710  -11.3030 C.2     1  UNL1        0.0430
     19  C         16.6620  -21.1990  -10.4770 C.2     1  UNL1        0.0180
     20  S         23.2310  -22.8830   -9.4350 S.O2    1  UNL1        0.2470
     21  O         24.1950  -23.7910   -8.8530 O.2     1  UNL1       -0.2050
     22  O         23.4430  -21.4500   -9.4130 O.2     1  UNL1       -0.2050
     23  N         22.9990  -23.2950  -11.0580 N.pl3   1  UNL1       -0.1580
     24  H         22.8400  -24.2990  -11.1420 H       1  UNL1        0.1480
     25  C         24.0020  -22.7770  -11.9710 C.ar    1  UNL1        0.1700
     26  O         25.3100  -23.1380  -11.9250 O.2     1  UNL1       -0.2000
     27  N         26.0080  -22.4780  -12.9180 N.ar    1  UNL1       -0.1310
     28  C         25.0990  -21.7490  -13.5740 C.ar    1  UNL1        0.0680
     29  C         25.5060  -20.9160  -14.7300 C.3     1  UNL1        0.0730
     30  C         23.7960  -21.9150  -13.0240 C.ar    1  UNL1        0.0130
     31  C         22.5320  -21.2980  -13.4870 C.3     1  UNL1        0.0540
@<TRIPOS>BOND
     1    29    28    1
     2    28    30   ar
     3    28    27   ar
     4    31    30    1
     5    30    25   ar
     6    27    26   ar
     7    17    16    1
     8    25    26   ar
     9    25    23    1
    10    16    15    2
    11    16    18    1
    12    15    14    1
    13    18    19    2
    14    24    23    1
    15    23    20    1
    16    14    13    2
    17    19    13    1
    18    13    11    1
    19    12    11    2
    20    20    22    2
    21    20    21    2
    22    20     1    1
    23    11    10    1
    24     2     1    2
    25     2     3    1
    26     1     6    1
    27     3     4    2
    28     6     5    2
    29    10     9    2
    30     4     5    1
    31     4     7    1
    32     7     9    1
    33     7     8    1
