@<TRIPOS>MOLECULE
48605_out_ligand_01.pdbqt
 40 44 0 0 0
SMALL
GASTEIGER

@<TRIPOS>ATOM
      1  N         22.1780  -23.2830   -9.6120 N.am    1  UNL1       -0.3230
      2  C         22.3540  -22.4350  -10.6910 C.2     1  UNL1        0.2570
      3  O         21.6340  -21.5060  -11.0360 O.2     1  UNL1       -0.2670
      4  H         22.9210  -23.9460   -9.4280 H       1  UNL1        0.1690
      5  C         21.1020  -23.2920   -8.7020 C.2     1  UNL1        0.0350
      6  C         20.9770  -22.1860   -7.8490 C.2     1  UNL1        0.0310
      7  C         19.9380  -22.1170   -6.9170 C.2     1  UNL1        0.0270
      8  C         19.0150  -23.1610   -6.8370 C.2     1  UNL1        0.0750
      9  C         19.1230  -24.2660   -7.6810 C.2     1  UNL1        0.0270
     10  C         20.1730  -24.3310   -8.6040 C.2     1  UNL1        0.0310
     11  S         17.6890  -23.0520   -5.6670 S.O2    1  UNL1        0.2470
     12  O         17.2010  -24.3930   -5.4290 O.2     1  UNL1       -0.2050
     13  O         18.1020  -22.1880   -4.5790 O.2     1  UNL1       -0.2050
     14  N         16.5610  -22.1590   -6.5530 N.pl3   1  UNL1       -0.1650
     15  H         15.6690  -22.1840   -6.0560 H       1  UNL1        0.1470
     16  C         16.3880  -22.6070   -7.8880 C.2     1  UNL1        0.1200
     17  C         15.6200  -23.7030   -8.2120 C.2     1  UNL1        0.0720
     18  C         15.5030  -23.9690   -9.5580 C.2     1  UNL1        0.0360
     19  C         14.7150  -25.1540  -10.0300 C.3     1  UNL1        0.0700
     20  N         16.0800  -23.1880  -10.4960 N.2     1  UNL1       -0.2390
     21  C         16.7810  -22.1210  -10.0680 C.2     1  UNL1        0.1240
     22  N         16.9390  -21.7770   -8.7810 N.2     1  UNL1       -0.2210
     23  C         17.4060  -21.2430  -11.1080 C.3     1  UNL1        0.0930
     24  C         23.6080  -22.6650  -11.4460 C.2     1  UNL1        0.0470
     25  C         23.6070  -22.2350  -12.7720 C.2     1  UNL1        0.0500
     26  C         24.7730  -22.3740  -13.5010 C.2     1  UNL1        0.0690
     27  N         25.8990  -22.9030  -12.9670 N.2     1  UNL1       -0.2470
     28  C         25.8870  -23.3420  -11.6990 C.2     1  UNL1        0.0680
     29  C         27.0510  -23.8980  -11.1870 C.2     1  UNL1        0.0320
     30  C         24.7500  -23.2680  -10.8730 C.2     1  UNL1        0.0080
     31  C         27.1210  -24.4000   -9.8850 C.2     1  UNL1        0.0020
     32  C         25.9980  -24.3630   -9.0720 C.2     1  UNL1        0.0010
     33  C         24.8180  -23.8070   -9.5610 C.2     1  UNL1        0.0150
     34  C         24.8610  -21.9490  -14.9040 C.2     1  UNL1       -0.0010
     35  C         24.5180  -22.8600  -15.9230 C.2     1  UNL1        0.0140
     36  C         24.5870  -22.4990  -17.2700 C.2     1  UNL1        0.0010
     37  C         24.9980  -21.2200  -17.6240 C.2     1  UNL1        0.0010
     38  C         25.3330  -20.2970  -16.6320 C.2     1  UNL1        0.0070
     39  C         25.2810  -20.6500  -15.2720 C.2     1  UNL1       -0.0500
     40  C         25.6310  -19.6110  -14.2390 C.3     1  UNL1        0.0490
@<TRIPOS>BOND
     1    37    36    2
     2    37    38    1
     3    36    35    1
     4    38    39    2
     5    35    34    2
     6    39    34    1
     7    39    40    1
     8    34    26    1
     9    26    27    2
    10    26    25    1
    11    27    28    1
    12    25    24    2
    13    28    29    2
    14    28    30    1
    15    24    30    1
    16    24     2    1
    17    29    31    1
    18    23    21    1
    19     3     2    2
    20    30    33    2
    21     2     1   am
    22    20    21    2
    23    20    18    1
    24    21    22    1
    25    19    18    1
    26    31    32    2
    27     1     4    1
    28     1     5    1
    29    33    32    1
    30    18    17    2
    31    22    16    2
    32     5    10    2
    33     5     6    1
    34    10     9    1
    35    17    16    1
    36    16    14    1
    37     6     7    2
    38     9     8    2
    39     7     8    1
    40     8    11    1
    41    14    15    1
    42    14    11    1
    43    11    12    2
    44    11    13    2
