@<TRIPOS>MOLECULE
48602_out_ligand_01.pdbqt
 35 37 0 0 0
SMALL
GASTEIGER

@<TRIPOS>ATOM
      1  C         21.7210  -22.0510  -12.1380 C.2     1  UNL1        0.0340
      2  C         22.7320  -22.6930  -11.4110 C.2     1  UNL1        0.0310
      3  C         24.0730  -22.5610  -11.7830 C.2     1  UNL1        0.0270
      4  C         24.4020  -21.7820  -12.8920 C.2     1  UNL1        0.0750
      5  C         23.4040  -21.1500  -13.6350 C.2     1  UNL1        0.0270
      6  C         22.0670  -21.2810  -13.2510 C.2     1  UNL1        0.0310
      7  N         20.3990  -22.2460  -11.7020 N.am    1  UNL1       -0.3250
      8  C         19.3830  -21.3100  -11.6100 C.2     1  UNL1        0.2460
      9  O         19.4630  -20.1140  -11.8780 O.2     1  UNL1       -0.2710
     10  H         20.1590  -23.1710  -11.3590 H       1  UNL1        0.1690
     11  C         18.0570  -21.9170  -11.1320 C.3     1  UNL1        0.2780
     12  O         18.1870  -23.0430  -10.2730 O.2     1  UNL1       -0.3420
     13  C         17.9380  -22.8930   -8.9330 C.2     1  UNL1        0.0760
     14  C         19.0680  -22.9080   -8.0900 C.2     1  UNL1       -0.0210
     15  C         18.8790  -22.7450   -6.7060 C.2     1  UNL1        0.0110
     16  C         17.6050  -22.5470   -6.1720 C.2     1  UNL1        0.0070
     17  C         16.4910  -22.4990   -7.0100 C.2     1  UNL1       -0.0590
     18  C         15.1190  -22.2990   -6.4360 C.3     1  UNL1        0.0480
     19  C         16.6630  -22.6880   -8.3880 C.2     1  UNL1        0.0440
     20  C         20.4760  -23.1050   -8.6430 C.3     1  UNL1        0.0130
     21  C         21.5130  -22.2970   -7.8540 C.3     1  UNL1        0.0150
     22  C         20.8560  -24.5880   -8.6840 C.3     1  UNL1        0.0150
     23  S         26.0990  -21.6190  -13.3970 S.O2    1  UNL1        0.2470
     24  O         26.2760  -20.2940  -13.9560 O.2     1  UNL1       -0.2050
     25  O         26.9190  -22.0780  -12.2960 O.2     1  UNL1       -0.2050
     26  N         26.2620  -22.7490  -14.6290 N.pl3   1  UNL1       -0.1650
     27  H         26.1290  -23.7010  -14.2870 H       1  UNL1        0.1470
     28  C         25.5370  -22.5190  -15.8150 C.2     1  UNL1        0.1200
     29  C         24.6310  -23.4150  -16.3240 C.2     1  UNL1        0.0720
     30  C         24.0190  -23.0320  -17.4940 C.2     1  UNL1        0.0360
     31  C         23.0130  -23.9280  -18.1520 C.3     1  UNL1        0.0700
     32  N         24.2920  -21.8530  -18.0960 N.2     1  UNL1       -0.2390
     33  C         25.1990  -21.0530  -17.5070 C.2     1  UNL1        0.1240
     34  C         25.4710  -19.7310  -18.1510 C.3     1  UNL1        0.0930
     35  N         25.8430  -21.3410  -16.3640 N.2     1  UNL1       -0.2210
@<TRIPOS>BOND
     1    31    30    1
     2    34    33    1
     3    32    33    2
     4    32    30    1
     5    33    35    1
     6    30    29    2
     7    35    28    2
     8    29    28    1
     9    28    26    1
    10    26    27    1
    11    26    23    1
    12    24    23    2
    13     5     6    1
    14     5     4    2
    15    23     4    1
    16    23    25    2
    17     6     1    2
    18     4     3    1
    19     1     7    1
    20     1     2    1
    21     9     8    2
    22     3     2    2
    23     7     8   am
    24     7    10    1
    25     8    11    1
    26    11    12    1
    27    12    13    1
    28    13    19    2
    29    13    14    1
    30    22    20    1
    31    20    14    1
    32    20    21    1
    33    19    17    1
    34    14    15    2
    35    17    18    1
    36    17    16    2
    37    15    16    1
