@<TRIPOS>MOLECULE
48615_out_ligand_01.pdbqt
 32 37 0 0 0
SMALL
GASTEIGER

@<TRIPOS>ATOM
      1  S         20.0100  -23.5050   -8.9700 S.O2    1  UNL1        0.2460
      2  O         20.5060  -24.8260   -8.6600 O.2     1  UNL1       -0.2060
      3  O         19.1350  -23.2590  -10.0990 O.2     1  UNL1       -0.2060
      4  C         19.2030  -22.8750   -7.5150 C.2     1  UNL1        0.0860
      5  C         19.8680  -21.8740   -6.7520 C.2     1  UNL1        0.0280
      6  C         19.2890  -21.3420   -5.5890 C.2     1  UNL1        0.0320
      7  C         18.0550  -21.8270   -5.2230 C.2     1  UNL1        0.0470
      8  N         17.2510  -21.4960   -4.1370 N.am    1  UNL1       -0.3220
      9  C         17.4220  -22.7870   -5.9700 C.2     1  UNL1        0.0180
     10  C         16.0860  -22.2480   -4.1830 C.2     1  UNL1        0.2570
     11  H         17.4520  -20.8190   -3.4180 H       1  UNL1        0.1690
     12  O         15.1550  -22.2360   -3.4070 O.2     1  UNL1       -0.2670
     13  C         16.2140  -23.0900   -5.3930 C.2     1  UNL1        0.0450
     14  C         15.3740  -24.0290   -5.9520 C.2     1  UNL1        0.0180
     15  C         15.8060  -24.6550   -7.1300 C.2     1  UNL1        0.0020
     16  C         17.0550  -24.3330   -7.7170 C.2     1  UNL1        0.0140
     17  C         17.9210  -23.3650   -7.1340 C.2     1  UNL1        0.0000
     18  N         21.3060  -22.4030   -9.1310 N.pl3   1  UNL1       -0.1810
     19  H         21.0330  -21.5440   -8.6500 H       1  UNL1        0.1460
     20  C         21.6570  -22.1250  -10.4950 C.2     1  UNL1        0.0230
     21  C         20.7970  -21.3420  -11.2700 C.2     1  UNL1        0.0270
     22  C         21.1140  -21.0130  -12.5930 C.2     1  UNL1        0.0400
     23  C         22.3280  -21.4910  -13.0790 C.ar    1  UNL1        0.0860
     24  O         22.8140  -21.2760  -14.3370 O.2     1  UNL1       -0.3140
     25  C         23.2210  -22.2580  -12.3310 C.ar    1  UNL1        0.0080
     26  C         24.0160  -21.8930  -14.3830 C.ar    1  UNL1        0.0610
     27  C         24.3190  -22.5130  -13.1920 C.ar    1  UNL1       -0.0150
     28  C         24.8200  -21.8690  -15.6240 C.3     1  UNL1        0.0660
     29  C         25.5970  -23.2450  -12.9870 C.3     1  UNL1        0.0420
     30  C         26.2780  -23.5480  -14.3410 C.3     1  UNL1        0.0050
     31  C         26.2540  -22.3380  -15.3010 C.3     1  UNL1        0.0070
     32  C         22.8850  -22.5770  -11.0020 C.2     1  UNL1        0.0390
@<TRIPOS>BOND
     1    28    31    1
     2    28    26    1
     3    31    30    1
     4    26    24   ar
     5    26    27   ar
     6    30    29    1
     7    24    23   ar
     8    27    29    1
     9    27    25   ar
    10    23    22    2
    11    23    25   ar
    12    22    21    1
    13    25    32    2
    14    21    20    2
    15    32    20    1
    16    20    18    1
    17     3     1    2
    18    18     1    1
    19    18    19    1
    20     1     2    2
    21     1     4    1
    22    16    17    1
    23    16    15    2
    24     4    17    2
    25     4     5    1
    26    17     9    1
    27    15    14    1
    28     5     6    2
    29     9    13    1
    30     9     7    2
    31    14    13    2
    32     6     7    1
    33    13    10    1
    34     7     8    1
    35    10     8   am
    36    10    12    2
    37     8    11    1
