@<TRIPOS>MOLECULE
48611_out_ligand_01.pdbqt
 35 37 0 0 0
SMALL
GASTEIGER

@<TRIPOS>ATOM
      1  N         23.4090  -22.6070  -10.4120 N.3     1  UNL1       -0.2980
      2  S         24.9630  -22.2080  -10.9610 S.O2    1  UNL1        0.2610
      3  O         25.8900  -23.1710  -10.3930 O.2     1  UNL1       -0.2000
      4  O         25.1420  -20.7860  -10.7570 O.2     1  UNL1       -0.2000
      5  C         24.8420  -22.5480  -12.6960 C.2     1  UNL1        0.0790
      6  C         24.4960  -21.5080  -13.5610 C.2     1  UNL1        0.0260
      7  C         24.4270  -21.7510  -14.9340 C.2     1  UNL1        0.0080
      8  C         24.6900  -23.0320  -15.4400 C.2     1  UNL1       -0.0620
      9  C         24.6400  -23.2940  -16.9190 C.3     1  UNL1        0.0480
     10  C         25.0400  -24.0640  -14.5590 C.2     1  UNL1        0.0080
     11  C         25.1130  -23.8270  -13.1840 C.2     1  UNL1        0.0260
     12  C         22.3440  -21.6000  -10.6600 C.3     1  UNL1        0.1400
     13  C         21.4290  -22.0560  -11.8050 C.3     1  UNL1        0.0590
     14  C         19.9770  -21.8390  -11.4620 C.2     1  UNL1       -0.0570
     15  C         19.3780  -20.5890  -11.6800 C.2     1  UNL1        0.0070
     16  C         18.0260  -20.3940  -11.3960 C.2     1  UNL1        0.0010
     17  C         17.2610  -21.4470  -10.8920 C.2     1  UNL1        0.0000
     18  C         17.8490  -22.6930  -10.6710 C.2     1  UNL1        0.0010
     19  C         19.2010  -22.8910  -10.9560 C.2     1  UNL1        0.0070
     20  C         23.3570  -23.2120   -9.0530 C.3     1  UNL1        0.2380
     21  C         21.9260  -23.6870   -8.7930 C.2     1  UNL1        0.2400
     22  O         21.5230  -24.7460   -9.2690 O.2     1  UNL1       -0.2710
     23  N         21.2140  -22.8340   -7.9680 N.am    1  UNL1       -0.3260
     24  H         21.7380  -22.0390   -7.5920 H       1  UNL1        0.1690
     25  C         19.9110  -23.0010   -7.4660 C.2     1  UNL1        0.0340
     26  C         19.3750  -21.9340   -6.7370 C.2     1  UNL1        0.0300
     27  C         18.0920  -22.0150   -6.1830 C.2     1  UNL1        0.0190
     28  C         17.3320  -23.1770   -6.3420 C.2     1  UNL1        0.0320
     29  C         17.8590  -24.2370   -7.0870 C.2     1  UNL1        0.0190
     30  C         19.1390  -24.1470   -7.6490 C.2     1  UNL1        0.0300
     31  C         15.9710  -23.3360   -5.7610 C.2     1  UNL1        0.2490
     32  N         14.9890  -22.4850   -6.1870 N.am    1  UNL1       -0.3660
     33  H         15.1950  -21.6130   -6.6440 H       1  UNL1        0.1590
     34  H         14.1190  -22.5320   -5.6660 H       1  UNL1        0.1590
     35  O         15.7260  -24.1700   -4.8980 O.2     1  UNL1       -0.2680
@<TRIPOS>BOND
     1     9     8    1
     2     8     7    2
     3     8    10    1
     4     7     6    1
     5    10    11    2
     6     6     5    2
     7    11     5    1
     8     5     2    1
     9    13    14    1
    10    13    12    1
    11    15    14    2
    12    15    16    1
    13    14    19    1
    14    16    17    2
    15     2     4    2
    16     2     1    1
    17     2     3    2
    18    19    18    2
    19    17    18    1
    20    12     1    1
    21     1    20    1
    22    22    21    2
    23    20    21    1
    24    21    23   am
    25    23    24    1
    26    23    25    1
    27    30    25    2
    28    30    29    1
    29    25    26    1
    30    29    28    2
    31    26    27    2
    32    33    32    1
    33    28    27    1
    34    28    31    1
    35    32    31   am
    36    32    34    1
    37    31    35    2
