@<TRIPOS>MOLECULE
48624_out_ligand_01.pdbqt
 29 32 0 0 0
SMALL
GASTEIGER

@<TRIPOS>ATOM
      1  C         20.8110  -23.3480   -9.2520 C.2     1  UNL1        0.0320
      2  C         19.9260  -22.4130   -9.8110 C.2     1  UNL1        0.0180
      3  C         18.5800  -22.4150   -9.4370 C.2     1  UNL1        0.0260
      4  C         18.1200  -23.3570   -8.5100 C.2     1  UNL1        0.0800
      5  C         18.9840  -24.3140   -7.9720 C.2     1  UNL1        0.0260
      6  C         20.3300  -24.3060   -8.3460 C.2     1  UNL1        0.0180
      7  S         16.3920  -23.3530   -8.0630 S.O2    1  UNL1        0.2650
      8  O         15.8960  -22.0470   -8.4450 O.2     1  UNL1       -0.2000
      9  O         15.7970  -24.5630   -8.5930 O.2     1  UNL1       -0.2000
     10  N         16.4480  -23.4930   -6.3560 N.pl3   1  UNL1       -0.2710
     11  C         15.1800  -23.9830   -5.7300 C.3     1  UNL1        0.1420
     12  C         15.0640  -23.6950   -4.2380 C.3     1  UNL1        0.0260
     13  C         16.4180  -23.7760   -3.5580 C.3     1  UNL1        0.0420
     14  C         17.3030  -22.7380   -4.1910 C.2     1  UNL1       -0.0310
     15  C         18.1510  -21.9550   -3.3930 C.2     1  UNL1        0.0090
     16  C         17.2490  -22.5500   -5.5860 C.2     1  UNL1        0.0510
     17  C         18.9380  -20.9660   -3.9720 C.2     1  UNL1        0.0010
     18  C         18.8820  -20.7590   -5.3460 C.2     1  UNL1        0.0020
     19  C         18.0500  -21.5510   -6.1470 C.2     1  UNL1        0.0310
     20  C         22.2560  -23.3880   -9.6230 C.2     1  UNL1        0.2560
     21  O         23.0050  -24.0840   -8.9480 O.2     1  UNL1       -0.2670
     22  N         22.6080  -22.5800  -10.6880 N.am    1  UNL1       -0.3230
     23  H         21.8980  -21.9630  -11.0580 H       1  UNL1        0.1690
     24  C         23.8850  -22.4480  -11.2770 C.2     1  UNL1        0.0350
     25  C         24.3150  -23.1820  -12.3830 C.2     1  UNL1        0.0290
     26  C         25.5960  -22.9870  -12.9100 C.2     1  UNL1        0.0020
     27  C         26.4570  -22.0550  -12.3360 C.2     1  UNL1        0.0000
     28  C         26.0380  -21.3150  -11.2340 C.2     1  UNL1        0.0020
     29  C         24.7580  -21.5100  -10.7090 C.2     1  UNL1        0.0290
@<TRIPOS>BOND
     1    26    25    1
     2    26    27    2
     3    25    24    2
     4    27    28    1
     5    24    29    1
     6    24    22    1
     7    28    29    2
     8    23    22    1
     9    22    20   am
    10     2     3    1
    11     2     1    2
    12    20     1    1
    13    20    21    2
    14     3     4    2
    15     1     6    1
    16     9     7    2
    17     4     7    1
    18     4     5    1
    19     8     7    2
    20     6     5    2
    21     7    10    1
    22    10    11    1
    23    10    16    1
    24    19    16    1
    25    19    18    2
    26    11    12    1
    27    16    14    2
    28    18    17    1
    29    12    13    1
    30    14    13    1
    31    14    15    1
    32    17    15    2
