@<TRIPOS>MOLECULE
48621_out_ligand_01.pdbqt
 26 28 0 0 0
SMALL
GASTEIGER

@<TRIPOS>ATOM
      1  N         19.3330  -22.3740   -9.1810 N.am    1  UNL1       -0.3230
      2  C         19.2550  -23.5510   -8.4590 C.2     1  UNL1        0.2570
      3  O         19.9040  -24.5750   -8.6230 O.2     1  UNL1       -0.2670
      4  H         18.6780  -21.6450   -8.9220 H       1  UNL1        0.1690
      5  C         20.1770  -22.0960  -10.2750 C.2     1  UNL1        0.0360
      6  C         19.7220  -21.6160  -11.5070 C.2     1  UNL1        0.0290
      7  C         20.6200  -21.3460  -12.5470 C.2     1  UNL1        0.0040
      8  C         21.9830  -21.5630  -12.3690 C.2     1  UNL1        0.0250
      9  C         22.4360  -22.0600  -11.1460 C.2     1  UNL1        0.0760
     10  C         21.5460  -22.3170  -10.0980 C.2     1  UNL1        0.0540
     11  S         24.1690  -22.3450  -10.9220 S.O2    1  UNL1        0.2390
     12  O         24.7750  -21.1270  -10.4350 O.2     1  UNL1       -0.2060
     13  O         24.6670  -23.0570  -12.0730 O.2     1  UNL1       -0.2060
     14  N         24.1730  -23.4000   -9.6100 N.3     1  UNL1       -0.2250
     15  H         24.1550  -22.9270   -8.7080 H       1  UNL1        0.1360
     16  H         24.9690  -24.0340   -9.6950 H       1  UNL1        0.1360
     17  C         18.2500  -23.5050   -7.3680 C.2     1  UNL1        0.0430
     18  C         17.1910  -24.4230   -7.4310 C.2     1  UNL1        0.0180
     19  C         16.2300  -24.4370   -6.4280 C.2     1  UNL1        0.0020
     20  C         16.3250  -23.5390   -5.3660 C.2     1  UNL1        0.0120
     21  C         17.3770  -22.6080   -5.2890 C.2     1  UNL1       -0.0250
     22  C         17.4540  -21.7130   -4.2100 C.2     1  UNL1        0.0120
     23  C         18.3640  -22.5750   -6.3050 C.2     1  UNL1       -0.0100
     24  C         18.4930  -20.7870   -4.1190 C.2     1  UNL1        0.0010
     25  C         19.4680  -20.7420   -5.1060 C.2     1  UNL1        0.0010
     26  C         19.4060  -21.6250   -6.1870 C.2     1  UNL1        0.0130
@<TRIPOS>BOND
     1     7     8    2
     2     7     6    1
     3     8     9    1
     4    13    11    2
     5     6     5    2
     6     9    11    1
     7     9    10    2
     8    11    12    2
     9    11    14    1
    10     5    10    1
    11     5     1    1
    12    16    14    1
    13    14    15    1
    14     1     4    1
    15     1     2   am
    16     3     2    2
    17     2    17    1
    18    18    17    2
    19    18    19    1
    20    17    23    1
    21    19    20    2
    22    23    26    1
    23    23    21    2
    24    26    25    2
    25    20    21    1
    26    21    22    1
    27    25    24    1
    28    22    24    2
