@<TRIPOS>MOLECULE
48625_out_ligand_01.pdbqt
 28 31 0 0 0
SMALL
GASTEIGER

@<TRIPOS>ATOM
      1  C         20.5780  -22.6950   -7.6630 C.2     1  UNL1        0.0320
      2  C         20.6970  -23.8540   -8.4420 C.2     1  UNL1        0.0170
      3  C         21.8440  -24.0650   -9.2110 C.2     1  UNL1        0.0100
      4  C         22.8980  -23.1370   -9.1980 C.2     1  UNL1       -0.0300
      5  C         22.7760  -21.9850   -8.4110 C.2     1  UNL1        0.0100
      6  C         21.6280  -21.7690   -7.6440 C.2     1  UNL1        0.0170
      7  C         19.3740  -22.4230   -6.8270 C.2     1  UNL1        0.2560
      8  O         19.1950  -21.2820   -6.4190 O.2     1  UNL1       -0.2670
      9  N         18.5440  -23.5090   -6.6250 N.am    1  UNL1       -0.3220
     10  H         18.7540  -24.3600   -7.1350 H       1  UNL1        0.1690
     11  C         17.3620  -23.5740   -5.8490 C.2     1  UNL1        0.0520
     12  C         17.3680  -23.6220   -4.4530 C.2     1  UNL1        0.0310
     13  C         16.1680  -23.6940   -3.7350 C.2     1  UNL1        0.0020
     14  C         14.9480  -23.7240   -4.4050 C.2     1  UNL1        0.0020
     15  C         14.9220  -23.6810   -5.7960 C.2     1  UNL1        0.0210
     16  C         16.1210  -23.6070   -6.5120 C.2     1  UNL1        0.0370
     17 BR         16.0120  -23.5560   -8.4140 Br      1  UNL1       -0.0490
     18  C         24.1360  -23.3620  -10.0450 C.3     1  UNL1        0.3110
     19  N         24.4360  -22.2470  -10.9560 N.3     1  UNL1        0.0970
     20  C         25.8130  -21.7720  -10.7540 C.3     1  UNL1        0.2770
     21  C         26.0630  -20.4820  -11.5450 C.3     1  UNL1        0.0690
     22  C         25.6210  -20.5910  -12.9800 C.2     1  UNL1       -0.0490
     23  C         26.0530  -19.6490  -13.9240 C.2     1  UNL1        0.0070
     24  C         24.7210  -21.6010  -13.3610 C.2     1  UNL1       -0.0240
     25  C         25.6120  -19.7230  -15.2460 C.2     1  UNL1        0.0010
     26  C         24.7390  -20.7370  -15.6320 C.2     1  UNL1        0.0010
     27  C         24.2960  -21.6730  -14.6960 C.2     1  UNL1        0.0090
     28  C         24.2600  -22.6500  -12.3680 C.3     1  UNL1        0.3110
@<TRIPOS>BOND
     1    26    25    2
     2    26    27    1
     3    25    23    1
     4    27    24    2
     5    23    22    2
     6    24    22    1
     7    24    28    1
     8    22    21    1
     9    28    19    1
    10    21    20    1
    11    19    20    1
    12    19    18    1
    13    18     4    1
    14     3     4    2
    15     3     2    1
    16     4     5    1
    17     2     1    2
    18    17    16    1
    19     5     6    2
    20     1     6    1
    21     1     7    1
    22    10     9    1
    23     7     9   am
    24     7     8    2
    25     9    11    1
    26    16    11    2
    27    16    15    1
    28    11    12    1
    29    15    14    2
    30    12    13    2
    31    14    13    1
