@<TRIPOS>MOLECULE
48637_out_ligand_01.pdbqt
 31 35 0 0 0
SMALL
GASTEIGER

@<TRIPOS>ATOM
      1  O         21.0980  -21.9610   -7.2770 O.2     1  UNL1       -0.2470
      2  C         20.4750  -22.8060   -7.9070 C.2     1  UNL1        0.3210
      3  N         20.7960  -23.3070   -9.1480 N.am    1  UNL1       -0.3060
      4  N         19.3140  -23.3850   -7.4310 N.am    1  UNL1       -0.3370
      5  H         20.1100  -23.9080   -9.5830 H       1  UNL1        0.1710
      6  H         19.1130  -24.2980   -7.8090 H       1  UNL1        0.1640
      7  C         21.9240  -23.0090   -9.9390 C.2     1  UNL1        0.0750
      8  C         23.2400  -23.2730   -9.5630 C.2     1  UNL1        0.0330
      9  C         24.2980  -22.9510  -10.4210 C.2     1  UNL1        0.0120
     10  C         24.0590  -22.3680  -11.6740 C.2     1  UNL1       -0.0210
     11  C         22.7360  -22.0810  -12.0530 C.2     1  UNL1       -0.0070
     12  C         25.2180  -21.9930  -12.5680 C.3     1  UNL1        0.3080
     13  C         21.6910  -22.4180  -11.1870 C.2     1  UNL1        0.1500
     14  C         22.4420  -21.4770  -13.4000 C.3     1  UNL1        0.0720
     15  F         20.4240  -22.1680  -11.5630 F       1  UNL1       -0.2030
     16  C         23.6950  -20.8940  -14.0630 C.3     1  UNL1        0.2740
     17  N         24.8350  -21.8140  -13.9750 N.3     1  UNL1        0.0870
     18  H         24.5550  -22.7240  -14.3440 H       1  UNL1        0.3160
     19  C         18.8400  -23.0830   -6.0980 C.3     1  UNL1        0.0950
     20  C         18.2890  -21.6980   -5.8900 C.3     1  UNL1        0.0130
     21  C         17.9300  -21.8170   -4.3400 C.3     1  UNL1        0.0070
     22  C         17.0520  -21.4790   -6.8700 C.3     1  UNL1        0.0450
     23  C         17.7040  -23.3620   -4.0560 C.3     1  UNL1        0.0070
     24  C         17.5980  -23.7830   -5.4980 C.3     1  UNL1        0.0130
     25  C         16.9820  -24.8200   -6.3660 C.3     1  UNL1        0.0450
     26  C         16.4070  -24.0420   -7.5960 C.2     1  UNL1       -0.0510
     27  C         15.8080  -24.8610   -8.5720 C.2     1  UNL1        0.0070
     28  C         16.4390  -22.6020   -7.7970 C.2     1  UNL1       -0.0510
     29  C         15.2330  -24.3150   -9.7170 C.2     1  UNL1        0.0010
     30  C         15.2370  -22.9390   -9.9090 C.2     1  UNL1        0.0010
     31  C         15.8250  -22.0970   -8.9640 C.2     1  UNL1        0.0070
@<TRIPOS>BOND
     1    18    17    1
     2    16    17    1
     3    16    14    1
     4    17    12    1
     5    14    11    1
     6    12    10    1
     7    11    10    2
     8    11    13    1
     9    10     9    1
    10    15    13    1
    11    13     7    2
    12     9     8    2
    13     7     8    1
    14     7     3    1
    15    30    29    2
    16    30    31    1
    17    29    27    1
    18     5     3    1
    19     3     2   am
    20    31    28    2
    21    27    26    2
    22     2     4   am
    23     2     1    2
    24     6     4    1
    25    28    26    1
    26    28    22    1
    27    26    25    1
    28     4    19    1
    29    22    20    1
    30    25    24    1
    31    19    20    1
    32    19    24    1
    33    20    21    1
    34    24    23    1
    35    21    23    1
