@<TRIPOS>MOLECULE
48634_out_ligand_01.pdbqt
 27 30 0 0 0
SMALL
GASTEIGER

@<TRIPOS>ATOM
      1  C         19.2110  -21.4160   -5.9260 C.3     1  UNL1        0.0490
      2  C         19.4070  -22.4210   -7.0280 C.2     1  UNL1       -0.0440
      3  C         20.3040  -22.1150   -8.0750 C.2     1  UNL1        0.0380
      4  C         20.5790  -23.0090   -9.1280 C.2     1  UNL1        0.0460
      5  C         19.9150  -24.2450   -9.0940 C.2     1  UNL1        0.0310
      6  C         19.0080  -24.5640   -8.0770 C.2     1  UNL1        0.0200
      7  C         18.7360  -23.6490   -7.0590 C.2     1  UNL1        0.0380
      8  N         21.4980  -22.6790  -10.1760 N.am    1  UNL1       -0.2440
      9  C         22.8550  -22.9450  -10.1580 C.2     1  UNL1        0.2660
     10  O         23.5730  -23.4850   -9.3350 O.2     1  UNL1       -0.2670
     11  C         23.4150  -22.4440  -11.4080 C.2     1  UNL1        0.0480
     12  C         24.7170  -22.4580  -11.8750 C.2     1  UNL1        0.0180
     13  C         22.3860  -21.9020  -12.1400 C.2     1  UNL1        0.0480
     14  C         24.9530  -21.8950  -13.1330 C.2     1  UNL1        0.0010
     15  C         23.8980  -21.3400  -13.8830 C.2     1  UNL1        0.0010
     16  C         22.5920  -21.3390  -13.3860 C.2     1  UNL1        0.0180
     17  C         21.1600  -22.0530  -11.3630 C.2     1  UNL1        0.2660
     18  O         20.0960  -21.6570  -11.8070 O.2     1  UNL1       -0.2670
     19  C         17.7350  -24.0550   -6.0440 C.2     1  UNL1        0.2520
     20  O         18.0940  -24.6050   -5.0110 O.2     1  UNL1       -0.2680
     21  N         16.4250  -23.8030   -6.3790 N.am    1  UNL1       -0.3520
     22  H         16.2210  -23.2800   -7.2200 H       1  UNL1        0.1630
     23  C         15.3350  -24.0320   -5.4310 C.3     1  UNL1        0.0910
     24  C         14.1270  -23.1370   -5.7600 C.3     1  UNL1        0.0520
     25  C         14.3390  -21.9530   -4.8660 C.3     1  UNL1       -0.0290
     26  C         15.2280  -22.2190   -3.9030 C.3     1  UNL1       -0.0290
     27  C         15.7490  -23.6210   -4.0050 C.3     1  UNL1        0.0520
@<TRIPOS>BOND
     1    15    16    2
     2    15    14    1
     3    16    13    1
     4    14    12    2
     5    13    11    2
     6    13    17    1
     7    12    11    1
     8    18    17    2
     9    11     9    1
    10    17     8   am
    11     8     9   am
    12     8     4    1
    13     9    10    2
    14     4     5    2
    15     4     3    1
    16     5     6    1
    17     6     7    2
    18     3     2    2
    19    22    21    1
    20     7     2    1
    21     7    19    1
    22     2     1    1
    23    21    19   am
    24    21    23    1
    25    19    20    2
    26    24    23    1
    27    24    25    1
    28    23    27    1
    29    25    26    1
    30    27    26    1
