@<TRIPOS>MOLECULE
48695_out_ligand_01.pdbqt
 34 38 0 0 0
SMALL
GASTEIGER

@<TRIPOS>ATOM
      1  N         20.6170  -22.5770   -8.5420 N.am    1  UNL1       -0.2440
      2  C         20.7020  -21.8340   -7.3530 C.2     1  UNL1        0.2660
      3  O         21.6660  -21.1540   -7.0040 O.2     1  UNL1       -0.2670
      4  C         19.5090  -21.7980   -6.4740 C.2     1  UNL1        0.0450
      5  C         19.6010  -21.1380   -5.2410 C.2     1  UNL1        0.0180
      6  C         18.4940  -21.0480   -4.4090 C.2     1  UNL1        0.0020
      7  C         17.2850  -21.6160   -4.8090 C.2     1  UNL1        0.0150
      8  C         17.1590  -22.2960   -6.0450 C.2     1  UNL1        0.0090
      9  C         15.9610  -22.8930   -6.5200 C.2     1  UNL1        0.1140
     10  C         15.8780  -23.5340   -7.7590 C.2     1  UNL1        0.0380
     11  C         17.0170  -23.6110   -8.5510 C.2     1  UNL1        0.0200
     12  C         18.2260  -23.0410   -8.1150 C.2     1  UNL1        0.0450
     13  C         18.3060  -22.3820   -6.8840 C.2     1  UNL1        0.0080
     14  C         19.4280  -23.1850   -8.9740 C.2     1  UNL1        0.2660
     15  O         19.2990  -23.8770   -9.9840 O.2     1  UNL1       -0.2670
     16  C         21.8040  -22.6930   -9.3670 C.2     1  UNL1        0.0460
     17  C         22.9520  -23.3590   -8.9070 C.2     1  UNL1        0.0300
     18  C         24.0980  -23.4750   -9.7010 C.2     1  UNL1        0.0030
     19  C         24.1280  -22.9110  -10.9730 C.2     1  UNL1        0.0170
     20  C         23.0090  -22.2210  -11.4490 C.2     1  UNL1        0.0340
     21  C         21.8530  -22.1350  -10.6570 C.2     1  UNL1        0.0470
     22  C         22.9950  -21.5760  -12.7910 C.2     1  UNL1        0.2520
     23  O         21.9420  -21.1690  -13.2680 O.2     1  UNL1       -0.2680
     24  N         24.2160  -21.4450  -13.4240 N.am    1  UNL1       -0.3520
     25  H         25.0530  -21.7840  -12.9740 H       1  UNL1        0.1630
     26  C         24.3260  -20.9140  -14.7790 C.3     1  UNL1        0.0840
     27  C         24.5190  -22.0520  -15.7990 C.3     1  UNL1        0.0250
     28  C         25.9930  -22.2990  -16.1010 C.3     1  UNL1        0.0020
     29  C         26.6650  -21.0590  -16.6980 C.3     1  UNL1        0.0000
     30  C         26.0350  -19.7430  -16.2390 C.3     1  UNL1        0.0020
     31  C         25.4460  -19.8620  -14.8390 C.3     1  UNL1        0.0250
     32  N         14.7460  -22.8570   -5.7230 N.pl3   1  UNL1       -0.1150
     33  O         14.4800  -23.8590   -5.0470 O.2     1  UNL1       -0.5320
     34  O         14.0580  -21.8310   -5.7990 O.2     1  UNL1       -0.5320
@<TRIPOS>BOND
     1    29    30    1
     2    29    28    1
     3    30    31    1
     4    28    27    1
     5    27    26    1
     6    31    26    1
     7    26    24    1
     8    24    25    1
     9    24    22   am
    10    23    22    2
    11    22    20    1
    12    20    19    2
    13    20    21    1
    14    19    18    1
    15    21    16    2
    16    15    14    2
    17    18    17    2
    18    16    17    1
    19    16     1    1
    20    14     1   am
    21    14    12    1
    22    11    12    2
    23    11    10    1
    24     1     2   am
    25    12    13    1
    26    10     9    2
    27     2     3    2
    28     2     4    1
    29    13     4    2
    30    13     8    1
    31     9     8    1
    32     9    32    1
    33     4     5    1
    34     8     7    2
    35    34    32    2
    36    32    33    2
    37     5     6    2
    38     7     6    1
