@<TRIPOS>MOLECULE
486_out_ligand_01.pdbqt
 34 35 0 0 0
SMALL
GASTEIGER

@<TRIPOS>ATOM
      1  N         21.6540  -22.4090   -9.8980 N.am    1  UNL1       -0.3230
      2  C         21.1240  -23.4440   -9.1480 C.2     1  UNL1        0.2560
      3  O         21.4800  -24.6160   -9.1670 O.2     1  UNL1       -0.2670
      4  H         21.1440  -21.5340   -9.9060 H       1  UNL1        0.1690
      5  C         22.7640  -22.4740  -10.7690 C.2     1  UNL1        0.0360
      6  C         22.5940  -21.9580  -12.0590 C.2     1  UNL1        0.0460
      7  C         23.6460  -21.9790  -12.9870 C.2     1  UNL1        0.0350
      8  C         24.8710  -22.5410  -12.6260 C.2     1  UNL1        0.0340
      9  C         25.0530  -23.0550  -11.3360 C.2     1  UNL1        0.0350
     10  C         24.0040  -23.0040  -10.4070 C.2     1  UNL1        0.0460
     11  C         23.3930  -21.4120  -14.3390 C.2     1  UNL1        0.2490
     12  N         22.6350  -20.2800  -14.4290 N.am    1  UNL1       -0.3660
     13  H         22.3990  -19.9690  -15.3630 H       1  UNL1        0.1590
     14  H         22.0790  -19.9160  -13.6670 H       1  UNL1        0.1590
     15  O         23.8270  -21.9580  -15.3460 O.2     1  UNL1       -0.2680
     16  C         26.3850  -23.6250  -10.9980 C.2     1  UNL1        0.2490
     17  N         26.7600  -23.6490   -9.6850 N.am    1  UNL1       -0.3660
     18  H         26.1300  -23.4590   -8.9180 H       1  UNL1        0.1590
     19  H         27.6310  -24.1170   -9.4680 H       1  UNL1        0.1590
     20  O         27.1150  -24.0830  -11.8690 O.2     1  UNL1       -0.2680
     21  C         19.9750  -23.0710   -8.2740 C.2     1  UNL1        0.0340
     22  C         20.1920  -22.1360   -7.2520 C.2     1  UNL1        0.0330
     23  C         19.1420  -21.7350   -6.4110 C.2     1  UNL1        0.0490
     24  C         17.8680  -22.2940   -6.6050 C.2     1  UNL1        0.0320
     25  C         17.6300  -23.2240   -7.6330 C.2     1  UNL1        0.0490
     26  C         18.6930  -23.5980   -8.4720 C.2     1  UNL1        0.0330
     27  C         19.3930  -20.7470   -5.2950 C.3     1  UNL1        0.4170
     28  F         19.2400  -21.2940   -4.0580 F       1  UNL1       -0.1660
     29  F         18.5600  -19.6730   -5.3350 F       1  UNL1       -0.1660
     30  F         20.6580  -20.2470   -5.3310 F       1  UNL1       -0.1660
     31  C         16.2430  -23.7820   -7.8600 C.3     1  UNL1        0.4170
     32  F         16.1910  -25.1260   -7.6650 F       1  UNL1       -0.1660
     33  F         15.3170  -23.2420   -7.0200 F       1  UNL1       -0.1660
     34  F         15.7800  -23.5600   -9.1200 F       1  UNL1       -0.1660
@<TRIPOS>BOND
     1    13    12    1
     2    15    11    2
     3    12    11   am
     4    12    14    1
     5    11     7    1
     6     7     8    2
     7     7     6    1
     8     8     9    1
     9     6     5    2
    10    20    16    2
    11     9    16    1
    12     9    10    2
    13    16    17   am
    14     5    10    1
    15     5     1    1
    16     4     1    1
    17     1     2   am
    18    17    19    1
    19    17    18    1
    20     3     2    2
    21     2    21    1
    22    34    31    1
    23    26    21    2
    24    26    25    1
    25    21    22    1
    26    31    32    1
    27    31    25    1
    28    31    33    1
    29    25    24    2
    30    22    23    2
    31    24    23    1
    32    23    27    1
    33    29    27    1
    34    30    27    1
    35    27    28    1
