@<TRIPOS>MOLECULE
4872_out_ligand_01.pdbqt
 33 36 0 0 0
SMALL
GASTEIGER

@<TRIPOS>ATOM
      1  C         22.4060  -23.7540   -8.9430 C.3     1  UNL1        0.1850
      2  C         21.0150  -24.1190   -8.4400 C.2     1  UNL1        0.2310
      3  N         20.4010  -23.0920   -7.7420 N.am    1  UNL1       -0.3270
      4  H         20.8820  -22.1910   -7.7450 H       1  UNL1        0.1690
      5  O         20.5340  -25.2250   -8.6720 O.2     1  UNL1       -0.2720
      6  C         19.1180  -23.0860   -7.1620 C.2     1  UNL1        0.0340
      7  C         18.1280  -24.0320   -7.4440 C.2     1  UNL1        0.0310
      8  C         16.8740  -23.9520   -6.8280 C.2     1  UNL1        0.0270
      9  C         16.6130  -22.9240   -5.9200 C.2     1  UNL1        0.0740
     10  C         17.5890  -21.9690   -5.6330 C.2     1  UNL1        0.0270
     11  C         18.8390  -22.0580   -6.2510 C.2     1  UNL1        0.0310
     12  S         15.0210  -22.7920   -5.1640 S.O2    1  UNL1        0.2390
     13  O         14.5510  -24.1080   -4.7950 O.2     1  UNL1       -0.2060
     14  O         14.2150  -21.8670   -5.9260 O.2     1  UNL1       -0.2060
     15  N         15.3830  -22.0190   -3.7190 N.3     1  UNL1       -0.2250
     16  H         14.8420  -21.1570   -3.6430 H       1  UNL1        0.1360
     17  H         15.2450  -22.6630   -2.9390 H       1  UNL1        0.1360
     18  S         22.5960  -21.9490   -9.0560 S.3     1  UNL1       -0.0800
     19  C         23.5930  -21.8100  -10.4570 C.ar    1  UNL1        0.1970
     20  N         24.9160  -21.8390  -10.4690 N.ar    1  UNL1       -0.1210
     21  N         25.3450  -21.6090  -11.7670 N.ar    1  UNL1       -0.1210
     22  C         24.2600  -21.4790  -12.4790 C.ar    1  UNL1        0.2010
     23  S         23.9010  -21.1650  -14.1410 S.3     1  UNL1       -0.0590
     24  N         23.1280  -21.5940  -11.7260 N.ar    1  UNL1       -0.2650
     25  C         22.1770  -21.2050  -13.7340 C.2     1  UNL1        0.0840
     26  C         21.9420  -21.4410  -12.4260 C.2     1  UNL1        0.0600
     27  C         20.5970  -21.5200  -11.8660 C.2     1  UNL1       -0.0080
     28  C         19.7960  -20.3730  -11.7910 C.2     1  UNL1        0.0150
     29  C         18.5060  -20.4500  -11.2610 C.2     1  UNL1        0.0240
     30  C         18.0140  -21.6730  -10.8100 C.2     1  UNL1        0.0340
     31 CL         16.4240  -21.7680  -10.1600 Cl      1  UNL1       -0.0840
     32  C         18.8000  -22.8210  -10.8850 C.2     1  UNL1        0.0240
     33  C         20.0900  -22.7460  -11.4160 C.2     1  UNL1        0.0150
@<TRIPOS>BOND
     1    23    25    1
     2    23    22    1
     3    25    26    2
     4    22    21   ar
     5    22    24   ar
     6    26    27    1
     7    26    24    1
     8    27    28    2
     9    27    33    1
    10    28    29    1
    11    21    20   ar
    12    24    19   ar
    13    33    32    2
    14    29    30    2
    15    32    30    1
    16    30    31    1
    17    20    19   ar
    18    19    18    1
    19    18     1    1
    20     1     2    1
    21     5     2    2
    22     2     3   am
    23     4     3    1
    24     3     6    1
    25     7     6    2
    26     7     8    1
    27     6    11    1
    28     8     9    2
    29    11    10    2
    30    14    12    2
    31     9    10    1
    32     9    12    1
    33    12    13    2
    34    12    15    1
    35    15    16    1
    36    15    17    1
