@<TRIPOS>MOLECULE
487_out_ligand_01.pdbqt
 39 41 0 0 0
SMALL
GASTEIGER

@<TRIPOS>ATOM
      1  C         20.9550  -22.5410  -10.7400 C.2     1  UNL1        0.2560
      2  O         21.5400  -23.1420   -9.8460 O.2     1  UNL1       -0.2670
      3  N         21.5130  -22.0800  -11.9210 N.am    1  UNL1       -0.3230
      4  H         20.8860  -21.6800  -12.6050 H       1  UNL1        0.1690
      5  C         19.4900  -22.3010  -10.5930 C.2     1  UNL1        0.0330
      6  C         18.8550  -21.4750  -11.5320 C.2     1  UNL1        0.0170
      7  C         17.4870  -21.2100  -11.4350 C.2     1  UNL1        0.0030
      8  C         16.7420  -21.7660  -10.3980 C.2     1  UNL1        0.0250
      9  C         17.3750  -22.5890   -9.4620 C.2     1  UNL1        0.0750
     10  C         18.7390  -22.8830   -9.5660 C.2     1  UNL1        0.0410
     11  S         16.4350  -23.3050   -8.1300 S.O2    1  UNL1        0.2460
     12  O         15.8630  -24.5400   -8.6320 O.2     1  UNL1       -0.2060
     13  O         15.6010  -22.2670   -7.5620 O.2     1  UNL1       -0.2060
     14  N         17.6210  -23.7490   -7.0120 N.pl3   1  UNL1       -0.1790
     15  H         18.4530  -24.1130   -7.4810 H       1  UNL1        0.1460
     16  C         17.9100  -22.8510   -5.9360 C.2     1  UNL1        0.0560
     17  C         18.7880  -21.7850   -6.1300 C.2     1  UNL1        0.0270
     18  C         19.0930  -20.9390   -5.0650 C.2     1  UNL1        0.0020
     19  C         18.5210  -21.1620   -3.8130 C.2     1  UNL1        0.0030
     20  C         17.6450  -22.2350   -3.6140 C.2     1  UNL1        0.0380
     21  C         17.3380  -23.0940   -4.6710 C.2     1  UNL1        0.0900
     22  O         16.5140  -24.1920   -4.5930 O.2     1  UNL1       -0.3540
     23  C         15.1290  -23.9360   -4.3820 C.3     1  UNL1        0.2100
     24  C         22.8680  -22.1480  -12.3140 C.2     1  UNL1        0.0360
     25  C         23.8330  -22.9180  -11.6600 C.2     1  UNL1        0.0460
     26  C         25.1620  -22.9280  -12.1060 C.2     1  UNL1        0.0350
     27  C         25.5220  -22.1660  -13.2260 C.2     1  UNL1        0.0340
     28  C         24.5690  -21.3830  -13.8820 C.2     1  UNL1        0.0350
     29  C         23.2450  -21.3840  -13.4230 C.2     1  UNL1        0.0460
     30  C         26.2330  -23.7310  -11.4460 C.2     1  UNL1        0.2490
     31  N         26.5750  -23.4440  -10.1550 N.am    1  UNL1       -0.3660
     32  H         27.3370  -23.9780   -9.7560 H       1  UNL1        0.1590
     33  H         26.2220  -22.6660   -9.6190 H       1  UNL1        0.1590
     34  O         26.8110  -24.6260  -12.0510 O.2     1  UNL1       -0.2680
     35  C         24.8890  -20.5520  -15.0740 C.2     1  UNL1        0.2490
     36  N         24.0170  -20.5630  -16.1250 N.am    1  UNL1       -0.3660
     37  H         24.2880  -20.0370  -16.9470 H       1  UNL1        0.1590
     38  H         23.2370  -21.1990  -16.2150 H       1  UNL1        0.1590
     39  O         25.9220  -19.8920  -15.1250 O.2     1  UNL1       -0.2680
@<TRIPOS>BOND
     1    37    36    1
     2    38    36    1
     3    36    35   am
     4    39    35    2
     5    35    28    1
     6    28    29    1
     7    28    27    2
     8    29    24    2
     9    27    26    1
    10     4     3    1
    11    24     3    1
    12    24    25    1
    13    26    25    2
    14    26    30    1
    15    34    30    2
    16     3     1   am
    17     6     7    1
    18     6     5    2
    19    30    31   am
    20     7     8    2
    21     1     5    1
    22     1     2    2
    23     5    10    1
    24     8     9    1
    25    31    32    1
    26    31    33    1
    27    10     9    2
    28     9    11    1
    29    12    11    2
    30    11    13    2
    31    11    14    1
    32    15    14    1
    33    14    16    1
    34    17    16    2
    35    17    18    1
    36    16    21    1
    37    18    19    2
    38    21    22    1
    39    21    20    2
    40    22    23    1
    41    19    20    1
