@<TRIPOS>MOLECULE
48808_out_ligand_01.pdbqt
 35 37 0 0 0
SMALL
GASTEIGER

@<TRIPOS>ATOM
      1  S         22.9520  -22.6200   -9.2050 S.O2    1  UNL1        0.2430
      2  O         23.2980  -21.2710   -8.8110 O.2     1  UNL1       -0.2060
      3  O         23.8340  -23.7340   -8.9340 O.2     1  UNL1       -0.2060
      4  C         21.3740  -23.0290   -8.4890 C.2     1  UNL1        0.0740
      5  C         20.6750  -22.0790   -7.7370 C.2     1  UNL1        0.0260
      6  C         19.4310  -22.4110   -7.2000 C.2     1  UNL1        0.0270
      7  C         18.9100  -23.6940   -7.4040 C.2     1  UNL1        0.0790
      8  C         19.6130  -24.6460   -8.1550 C.2     1  UNL1        0.0270
      9  C         20.8560  -24.3130   -8.6950 C.2     1  UNL1        0.0260
     10  S         17.3130  -24.1140   -6.7480 S.O2    1  UNL1        0.2590
     11  O         17.5130  -25.1300   -5.7390 O.2     1  UNL1       -0.2010
     12  O         16.3980  -24.3070   -7.8490 O.2     1  UNL1       -0.2010
     13  N         16.8940  -22.7150   -5.9380 N.3     1  UNL1       -0.3110
     14  H         17.1420  -21.8500   -6.4160 H       1  UNL1        0.1720
     15  C         16.7010  -22.7170   -4.4830 C.3     1  UNL1        0.0880
     16  C         17.7590  -21.8180   -3.8510 C.3     1  UNL1        0.0330
     17  C         15.2700  -22.2350   -4.2040 C.3     1  UNL1        0.0210
     18  C         14.3840  -22.2190   -5.4410 C.3     1  UNL1        0.0070
     19  N         22.5890  -22.5890  -10.8740 N.3     1  UNL1       -0.2020
     20  C         21.9170  -21.3430  -11.3540 C.3     1  UNL1        0.1120
     21  C         20.8100  -21.7100  -12.3470 C.3     1  UNL1        0.0540
     22  C         19.4480  -21.6630  -11.7000 C.2     1  UNL1       -0.0570
     23  C         18.8820  -22.8180  -11.1470 C.2     1  UNL1        0.0070
     24  C         17.6110  -22.7770  -10.5730 C.2     1  UNL1        0.0010
     25  C         16.8930  -21.5820  -10.5510 C.2     1  UNL1        0.0000
     26  C         17.4470  -20.4270  -11.1030 C.2     1  UNL1        0.0010
     27  C         18.7170  -20.4660  -11.6770 C.2     1  UNL1        0.0070
     28  C         23.7470  -22.9830  -11.7290 C.3     1  UNL1        0.1490
     29  C         24.6110  -21.8220  -12.1540 C.2     1  UNL1       -0.0050
     30  C         25.5760  -21.2520  -11.3110 C.2     1  UNL1        0.0110
     31  C         26.3800  -20.1990  -11.7600 C.2     1  UNL1        0.0010
     32  C         26.2360  -19.7110  -13.0590 C.2     1  UNL1        0.0030
     33  C         25.2950  -20.2810  -13.9120 C.2     1  UNL1        0.0430
     34  C         24.4980  -21.3300  -13.4580 C.2     1  UNL1        0.1230
     35  F         23.6180  -21.8810  -14.3050 F       1  UNL1       -0.2060
@<TRIPOS>BOND
     1    35    34    1
     2    33    34    1
     3    33    32    2
     4    34    29    2
     5    32    31    1
     6    21    22    1
     7    21    20    1
     8    29    28    1
     9    29    30    1
    10    31    30    2
    11    28    19    1
    12    22    27    2
    13    22    23    1
    14    27    26    1
    15    20    19    1
    16    23    24    2
    17    26    25    2
    18    19     1    1
    19    24    25    1
    20     1     3    2
    21     1     2    2
    22     1     4    1
    23     9     4    2
    24     9     8    1
    25     4     5    1
    26     8     7    2
    27    12    10    2
    28     5     6    2
    29     7     6    1
    30     7    10    1
    31    10    13    1
    32    10    11    2
    33    14    13    1
    34    13    15    1
    35    18    17    1
    36    15    17    1
    37    15    16    1
