@<TRIPOS>MOLECULE
48838_out_ligand_01.pdbqt
 40 44 0 0 0
SMALL
GASTEIGER

@<TRIPOS>ATOM
      1  C         23.2720  -22.0060  -10.2000 C.2     1  UNL1        0.2310
      2  O         22.4710  -21.8200  -11.1160 O.2     1  UNL1       -0.2720
      3  N         22.9780  -22.5480   -8.9620 N.am    1  UNL1       -0.3270
      4  H         23.7730  -22.7370   -8.3510 H       1  UNL1        0.1690
      5  C         24.7250  -21.5880  -10.3560 C.3     1  UNL1        0.1850
      6  S         25.4620  -22.2680  -11.8700 S.3     1  UNL1       -0.0800
      7  C         26.1120  -20.8350  -12.5900 C.ar    1  UNL1        0.1970
      8  N         26.5730  -19.8380  -11.8650 N.ar    1  UNL1       -0.1220
      9  N         26.8600  -18.8020  -12.7040 N.ar    1  UNL1       -0.1280
     10  C         26.5840  -19.1820  -13.9350 C.ar    1  UNL1        0.1650
     11  C         26.6560  -18.4360  -15.1520 C.2     1  UNL1       -0.0130
     12  N         26.1480  -20.5080  -13.9350 N.ar    1  UNL1       -0.2710
     13  C         26.2710  -19.0430  -16.2930 C.2     1  UNL1        0.0240
     14  C         27.1210  -17.0010  -15.1900 C.3     1  UNL1        0.0520
     15  C         25.8410  -20.4470  -16.3150 C.2     1  UNL1       -0.0080
     16  C         25.4740  -21.0430  -17.5280 C.2     1  UNL1        0.0160
     17  C         25.8090  -21.2010  -15.1280 C.2     1  UNL1        0.0560
     18  C         25.1180  -22.3920  -17.5720 C.2     1  UNL1        0.0380
     19  C         25.1340  -23.1560  -16.4050 C.2     1  UNL1        0.0700
     20  C         25.4750  -22.5570  -15.1850 C.2     1  UNL1        0.0670
     21  O         24.8440  -24.4900  -16.3180 O.2     1  UNL1       -0.3560
     22  C         25.2550  -25.1700  -15.1380 C.3     1  UNL1        0.2100
     23  C         21.7130  -22.9200   -8.4620 C.2     1  UNL1        0.0340
     24  C         21.0540  -21.9910   -7.6450 C.2     1  UNL1        0.0310
     25  C         19.7770  -22.2620   -7.1380 C.2     1  UNL1        0.0270
     26  C         19.1510  -23.4660   -7.4660 C.2     1  UNL1        0.0790
     27  C         19.8070  -24.4130   -8.2570 C.2     1  UNL1        0.0270
     28  C         21.0860  -24.1360   -8.7520 C.2     1  UNL1        0.0310
     29  S         17.5170  -23.8220   -6.8590 S.O2    1  UNL1        0.2590
     30  O         17.5970  -25.0300   -6.0670 O.2     1  UNL1       -0.2010
     31  O         16.9500  -22.5990   -6.3370 O.2     1  UNL1       -0.2010
     32  N         16.6910  -24.2150   -8.2580 N.3     1  UNL1       -0.3110
     33  H         17.0910  -24.9790   -8.8010 H       1  UNL1        0.1720
     34  C         15.9590  -23.1720   -8.9660 C.3     1  UNL1        0.1700
     35  C         16.8610  -22.4490   -9.9360 C.2     1  UNL1       -0.0400
     36  C         16.5600  -21.1410  -10.3490 C.2     1  UNL1        0.0090
     37  C         17.3830  -20.4790  -11.2620 C.2     1  UNL1        0.0010
     38  C         18.5080  -21.1190  -11.7790 C.2     1  UNL1        0.0000
     39  C         18.8120  -22.4220  -11.3830 C.2     1  UNL1        0.0010
     40  C         17.9880  -23.0890  -10.4740 C.2     1  UNL1        0.0090
@<TRIPOS>BOND
     1    18    16    1
     2    18    19    2
     3    16    15    2
     4    19    21    1
     5    19    20    1
     6    21    22    1
     7    15    13    1
     8    15    17    1
     9    13    11    2
    10    14    11    1
    11    20    17    2
    12    11    10    1
    13    17    12    1
    14    12    10   ar
    15    12     7   ar
    16    10     9   ar
    17     9     8   ar
    18     7     6    1
    19     7     8   ar
    20     6     5    1
    21    38    39    2
    22    38    37    1
    23    39    40    1
    24    37    36    2
    25     2     1    2
    26    40    35    2
    27     5     1    1
    28    36    35    1
    29     1     3   am
    30    35    34    1
    31    34    32    1
    32     3    23    1
    33     3     4    1
    34    33    32    1
    35    28    23    2
    36    28    27    1
    37    23    24    1
    38    32    29    1
    39    27    26    2
    40    24    25    2
    41    26    25    1
    42    26    29    1
    43    29    31    2
    44    29    30    2
