@<TRIPOS>MOLECULE
4885_out_ligand_01.pdbqt
 32 35 0 0 0
SMALL
GASTEIGER

@<TRIPOS>ATOM
      1  C         22.0260  -22.4670  -10.7910 C.ar    1  UNL1        0.0980
      2  S         23.5950  -23.1250  -10.8430 S.2     1  UNL1       -0.0750
      3  C         23.9250  -22.4190  -12.3510 C.ar    1  UNL1       -0.0070
      4  C         22.8580  -21.6930  -12.8430 C.ar    1  UNL1       -0.0210
      5  C         21.7570  -21.7180  -11.9250 C.ar    1  UNL1        0.0850
      6  C         20.5120  -21.0380  -12.1310 C.1     1  UNL1        0.1030
      7  N         19.4960  -20.4890  -12.2500 N.1     1  UNL1       -0.1910
      8  C         22.9350  -20.9680  -14.1560 C.3     1  UNL1        0.0410
      9  C         24.1060  -21.4710  -15.0160 C.3     1  UNL1        0.0050
     10  C         25.3950  -21.6050  -14.1920 C.3     1  UNL1        0.0050
     11  C         25.2370  -22.6140  -13.0460 C.3     1  UNL1        0.0470
     12  N         21.1790  -22.6790   -9.7070 N.am    1  UNL1       -0.3160
     13  C         21.3690  -22.2290   -8.4110 C.2     1  UNL1        0.2560
     14  O         22.3410  -21.6430   -7.9530 O.2     1  UNL1       -0.2670
     15  H         20.3770  -23.2690   -9.8800 H       1  UNL1        0.1690
     16  C         20.2470  -22.5320   -7.4740 C.2     1  UNL1        0.0320
     17  C         19.8730  -21.5470   -6.5470 C.2     1  UNL1        0.0180
     18  C         18.8100  -21.7690   -5.6690 C.2     1  UNL1        0.0260
     19  C         18.1050  -22.9740   -5.7350 C.2     1  UNL1        0.0790
     20  C         18.4780  -23.9710   -6.6430 C.2     1  UNL1        0.0260
     21  C         19.5410  -23.7440   -7.5230 C.2     1  UNL1        0.0180
     22  S         16.7570  -23.2700   -4.6040 S.O2    1  UNL1        0.2600
     23  O         16.5100  -22.0320   -3.8980 O.2     1  UNL1       -0.2000
     24  O         17.0640  -24.4860   -3.8850 O.2     1  UNL1       -0.2000
     25  N         15.4440  -23.5700   -5.6310 N.3     1  UNL1       -0.3050
     26  C         14.2770  -24.2480   -5.0290 C.3     1  UNL1        0.1630
     27  C         15.0760  -22.4700   -6.5510 C.3     1  UNL1        0.1990
     28  C         15.6950  -22.6980   -7.8850 C.2     1  UNL1        0.0710
     29  C         15.6340  -23.7390   -8.7920 C.2     1  UNL1        0.0360
     30  C         16.4560  -23.3630   -9.8830 C.2     1  UNL1        0.0270
     31  C         16.9580  -22.1210   -9.5760 C.2     1  UNL1        0.1420
     32  O         16.5030  -21.7090   -8.3640 O.2     1  UNL1       -0.3250
@<TRIPOS>BOND
     1     9    10    1
     2     9     8    1
     3    10    11    1
     4     8     4    1
     5    11     3    1
     6     4     3   ar
     7     4     5   ar
     8     3     2   ar
     9     7     6    3
    10     6     5    1
    11     5     1   ar
    12     2     1   ar
    13     1    12    1
    14    30    31    2
    15    30    29    1
    16    15    12    1
    17    12    13   am
    18    31    32    1
    19    29    28    2
    20    13    14    2
    21    13    16    1
    22    32    28    1
    23    28    27    1
    24    21    16    2
    25    21    20    1
    26    16    17    1
    27    20    19    2
    28    27    25    1
    29    17    18    2
    30    19    18    1
    31    19    22    1
    32    25    26    1
    33    25    22    1
    34    22    23    2
    35    22    24    2
