@<TRIPOS>MOLECULE
48875_out_ligand_01.pdbqt
 38 42 0 0 0
SMALL
GASTEIGER

@<TRIPOS>ATOM
      1  C         22.9800  -22.3210   -9.8500 C.2     1  UNL1        0.2310
      2  O         23.4050  -21.1730   -9.7340 O.2     1  UNL1       -0.2720
      3  N         22.9910  -23.0840  -11.0040 N.am    1  UNL1       -0.3270
      4  H         22.4470  -23.9470  -10.9810 H       1  UNL1        0.1690
      5  C         22.4050  -23.0550   -8.6480 C.3     1  UNL1        0.1850
      6  S         21.2310  -22.0110   -7.7370 S.3     1  UNL1       -0.0800
      7  C         19.7640  -22.3680   -8.5860 C.ar    1  UNL1        0.1970
      8  N         19.7640  -22.6210   -9.8770 N.ar    1  UNL1       -0.1220
      9  N         18.4970  -22.9580  -10.2410 N.ar    1  UNL1       -0.1280
     10  C         17.7330  -22.9060   -9.1670 C.ar    1  UNL1        0.1650
     11  C         16.3450  -23.2020   -9.0330 C.2     1  UNL1       -0.0130
     12  N         18.4850  -22.5000   -8.0650 N.ar    1  UNL1       -0.2710
     13  C         15.7910  -23.1060   -7.8080 C.2     1  UNL1        0.0250
     14  C         15.4970  -23.6320  -10.2060 C.3     1  UNL1        0.0520
     15  C         16.5540  -22.6850   -6.6180 C.2     1  UNL1       -0.0020
     16  C         15.9450  -22.6080   -5.3460 C.2     1  UNL1       -0.0490
     17  C         17.9210  -22.3420   -6.7640 C.2     1  UNL1        0.0540
     18  C         16.6990  -22.1500   -4.2540 C.2     1  UNL1        0.0140
     19  C         14.5010  -22.9770   -5.1070 C.3     1  UNL1        0.0490
     20  C         18.0400  -21.7810   -4.4020 C.2     1  UNL1       -0.0590
     21  C         18.8050  -21.2640   -3.2170 C.3     1  UNL1        0.0480
     22  C         18.6440  -21.8770   -5.6610 C.2     1  UNL1        0.0370
     23  C         23.5900  -22.7690  -12.2410 C.2     1  UNL1        0.0340
     24  C         24.5960  -23.5330  -12.8350 C.2     1  UNL1        0.0310
     25  C         25.1130  -23.1780  -14.0860 C.2     1  UNL1        0.0270
     26  C         24.6340  -22.0370  -14.7340 C.2     1  UNL1        0.0790
     27  C         23.6220  -21.2700  -14.1580 C.2     1  UNL1        0.0270
     28  C         23.1040  -21.6380  -12.9120 C.2     1  UNL1        0.0310
     29  S         25.2620  -21.6100  -16.3380 S.O2    1  UNL1        0.2590
     30  O         24.1910  -21.7830  -17.2960 O.2     1  UNL1       -0.2010
     31  O         26.5510  -22.2430  -16.5170 O.2     1  UNL1       -0.2010
     32  N         25.4900  -19.9540  -16.2000 N.3     1  UNL1       -0.3110
     33  H         24.7320  -19.4110  -16.6110 H       1  UNL1        0.1720
     34  C         26.8510  -19.4080  -16.2120 C.3     1  UNL1        0.0930
     35  C         27.0950  -18.5690  -17.4610 C.3     1  UNL1        0.0260
     36  C         26.4780  -17.2070  -17.1530 C.3     1  UNL1        0.0020
     37  C         26.4750  -17.0750  -15.6320 C.3     1  UNL1        0.0020
     38  C         27.0110  -18.3950  -15.0820 C.3     1  UNL1        0.0260
@<TRIPOS>BOND
     1    35    36    1
     2    35    34    1
     3    30    29    2
     4    36    37    1
     5    33    32    1
     6    31    29    2
     7    29    32    1
     8    29    26    1
     9    34    32    1
    10    34    38    1
    11    37    38    1
    12    26    27    2
    13    26    25    1
    14    27    28    1
    15    25    24    2
    16    28    23    2
    17    24    23    1
    18    23     3    1
    19     3     4    1
    20     3     1   am
    21     9     8   ar
    22     9    10   ar
    23    14    11    1
    24     8     7   ar
    25     1     2    2
    26     1     5    1
    27    10    11    1
    28    10    12   ar
    29    11    13    2
    30     5     6    1
    31     7    12   ar
    32     7     6    1
    33    12    17    1
    34    13    15    1
    35    17    15    2
    36    17    22    1
    37    15    16    1
    38    22    20    2
    39    16    19    1
    40    16    18    2
    41    20    18    1
    42    20    21    1
