@<TRIPOS>MOLECULE
4888_out_ligand_01.pdbqt
 28 31 0 0 0
SMALL
GASTEIGER

@<TRIPOS>ATOM
      1  C         21.9270  -21.9890   -9.8070 C.2     1  UNL1        0.0320
      2  C         22.1400  -22.1230   -8.4360 C.2     1  UNL1        0.0190
      3  C         21.0570  -22.3150   -7.5650 C.2     1  UNL1        0.0310
      4  C         19.7320  -22.3670   -8.0300 C.2     1  UNL1        0.0460
      5  C         19.5440  -22.2060   -9.4150 C.2     1  UNL1        0.0310
      6  C         20.6210  -22.0150  -10.2940 C.2     1  UNL1        0.0190
      7  C         23.1020  -21.7870  -10.7010 C.2     1  UNL1        0.2560
      8  O         24.1050  -21.2640  -10.2300 O.2     1  UNL1       -0.2670
      9  N         22.9410  -22.2610  -11.9910 N.am    1  UNL1       -0.3230
     10  H         22.0990  -22.7890  -12.1830 H       1  UNL1        0.1690
     11  C         23.8610  -22.1730  -13.0560 C.2     1  UNL1        0.0350
     12  C         23.6320  -21.1810  -14.0190 C.2     1  UNL1        0.0310
     13  C         24.5000  -21.0230  -15.1040 C.2     1  UNL1        0.0210
     14  C         25.6050  -21.8600  -15.2290 C.2     1  UNL1        0.0110
     15 BR         26.7810  -21.6520  -16.6930 Br      1  UNL1       -0.0510
     16  C         25.8470  -22.8480  -14.2790 C.2     1  UNL1        0.0210
     17  C         24.9770  -23.0020  -13.1950 C.2     1  UNL1        0.0310
     18  N         18.6280  -22.5640   -7.1390 N.am    1  UNL1       -0.2440
     19  C         18.4630  -21.9250   -5.9250 C.2     1  UNL1        0.2660
     20  O         19.1350  -21.0920   -5.3410 O.2     1  UNL1       -0.2670
     21  C         17.2190  -22.4130   -5.3400 C.2     1  UNL1        0.0480
     22  C         16.6070  -22.0950   -4.1410 C.2     1  UNL1        0.0180
     23  C         16.6720  -23.3200   -6.2180 C.2     1  UNL1        0.0480
     24  C         15.3990  -22.7360   -3.8480 C.2     1  UNL1        0.0010
     25  C         14.8390  -23.6650   -4.7480 C.2     1  UNL1        0.0010
     26  C         15.4790  -23.9660   -5.9530 C.2     1  UNL1        0.0180
     27  C         17.5640  -23.4170   -7.3690 C.2     1  UNL1        0.2660
     28  O         17.2940  -24.1580   -8.2980 O.2     1  UNL1       -0.2670
@<TRIPOS>BOND
     1    15    14    1
     2    14    13    2
     3    14    16    1
     4    13    12    1
     5    16    17    2
     6    12    11    2
     7    17    11    1
     8    11     9    1
     9    10     9    1
    10     9     7   am
    11     7     8    2
    12     7     1    1
    13     6     1    2
    14     6     5    1
    15     1     2    1
    16     5     4    2
    17     2     3    2
    18    28    27    2
    19     4     3    1
    20     4    18    1
    21    27    18   am
    22    27    23    1
    23    18    19   am
    24    23    26    1
    25    23    21    2
    26    26    25    2
    27    19    20    2
    28    19    21    1
    29    21    22    1
    30    25    24    1
    31    22    24    2
