@<TRIPOS>MOLECULE
48880_out_ligand_01.pdbqt
 31 34 0 0 0
SMALL
GASTEIGER

@<TRIPOS>ATOM
      1  C         19.8830  -23.5180   -9.2940 C.2     1  UNL1        0.0770
      2  C         20.9910  -24.1480   -8.6840 C.2     1  UNL1        0.0380
      3  C         22.2760  -23.9920   -9.2110 C.2     1  UNL1        0.0210
      4  C         22.4110  -23.1940  -10.3320 C.2     1  UNL1        0.0480
      5  C         21.3320  -22.5650  -10.9120 C.2     1  UNL1        0.0510
      6  C         20.0500  -22.7000  -10.4140 C.2     1  UNL1        0.0550
      7  C         21.8250  -21.8040  -12.0540 C.2     1  UNL1        0.2660
      8  O         21.0560  -21.1550  -12.7390 O.2     1  UNL1       -0.2670
      9  N         23.1910  -22.0040  -12.1260 N.am    1  UNL1       -0.2440
     10  C         23.5990  -22.8360  -11.0990 C.2     1  UNL1        0.2660
     11  O         24.6930  -23.2600  -10.7750 O.2     1  UNL1       -0.2670
     12  C         24.0560  -21.4330  -13.1150 C.2     1  UNL1        0.0460
     13  C         23.8390  -21.6310  -14.4880 C.2     1  UNL1        0.0310
     14  C         24.6870  -21.0720  -15.4580 C.2     1  UNL1        0.0190
     15  C         25.7780  -20.2900  -15.0790 C.2     1  UNL1        0.0320
     16  C         26.0240  -20.0920  -13.7210 C.2     1  UNL1        0.0190
     17  C         25.1710  -20.6540  -12.7580 C.2     1  UNL1        0.0310
     18  C         26.6500  -19.7220  -16.1410 C.2     1  UNL1        0.2490
     19  N         26.8890  -18.3760  -16.1120 N.am    1  UNL1       -0.3660
     20  H         27.3770  -18.0010  -16.9160 H       1  UNL1        0.1590
     21  H         26.3130  -17.7370  -15.5840 H       1  UNL1        0.1590
     22  O         27.1160  -20.4200  -17.0330 O.2     1  UNL1       -0.2680
     23  O         18.6040  -23.6130   -8.7880 O.2     1  UNL1       -0.3110
     24  C         18.4170  -23.2390   -7.4780 C.2     1  UNL1        0.0760
     25  C         17.7950  -24.1540   -6.6360 C.2     1  UNL1        0.0380
     26  C         17.6030  -23.8370   -5.2920 C.2     1  UNL1        0.0100
     27  C         18.0440  -22.6090   -4.7720 C.2     1  UNL1       -0.0560
     28  C         17.8200  -22.3030   -3.3160 C.3     1  UNL1        0.0490
     29  C         18.6990  -21.6930   -5.6230 C.2     1  UNL1       -0.0530
     30  C         18.8860  -22.0240   -6.9750 C.2     1  UNL1        0.0440
     31  C         19.2070  -20.3740   -5.1110 C.3     1  UNL1        0.0490
@<TRIPOS>BOND
     1    22    18    2
     2    20    19    1
     3    18    19   am
     4    18    15    1
     5    19    21    1
     6    14    15    2
     7    14    13    1
     8    15    16    1
     9    13    12    2
    10    16    17    2
    11    12    17    1
    12    12     9    1
    13     8     7    2
    14     9     7   am
    15     9    10   am
    16     7     5    1
    17    10    11    2
    18    10     4    1
    19     5     6    1
    20     5     4    2
    21     6     1    2
    22     4     3    1
    23     1    23    1
    24     1     2    1
    25     3     2    2
    26    23    24    1
    27    24    30    2
    28    24    25    1
    29    30    29    1
    30    25    26    2
    31    29    31    1
    32    29    27    2
    33    26    27    1
    34    27    28    1
