@<TRIPOS>MOLECULE
48893_out_ligand_01.pdbqt
 38 42 0 0 0
SMALL
GASTEIGER

@<TRIPOS>ATOM
      1  N         20.2050  -23.5550   -7.9880 N.3     1  UNL1       -0.1820
      2  N         20.6540  -22.3100   -7.7490 N.pl3   1  UNL1        0.0250
      3  N         19.8050  -21.8120   -6.8680 N.2     1  UNL1       -0.1360
      4  C         18.8890  -22.8040   -6.5770 C.2     1  UNL1        0.2000
      5  N         19.1460  -23.9460   -7.2500 N.pl3   1  UNL1       -0.1360
      6  C         17.7870  -22.6170   -5.6290 C.2     1  UNL1        0.0420
      7  C         18.1060  -22.4170   -4.2710 C.2     1  UNL1        0.0180
      8  C         17.1110  -22.2300   -3.3150 C.2     1  UNL1        0.0010
      9  C         15.7780  -22.2390   -3.7020 C.2     1  UNL1        0.0020
     10  C         15.4380  -22.4350   -5.0430 C.2     1  UNL1        0.0300
     11  C         16.4220  -22.6270   -6.0230 C.2     1  UNL1        0.0490
     12  N         16.0800  -22.8270   -7.3860 N.am    1  UNL1       -0.3260
     13  C         15.8150  -24.0110   -8.0530 C.2     1  UNL1        0.2220
     14  O         15.8650  -25.1430   -7.5800 O.2     1  UNL1       -0.2730
     15  H         15.9970  -21.9790   -7.9420 H       1  UNL1        0.1690
     16  C         15.5040  -23.7720   -9.5260 C.3     1  UNL1        0.1080
     17  C         15.5880  -22.2990   -9.9160 C.3     1  UNL1        0.0470
     18  C         16.9050  -21.9710  -10.5790 C.2     1  UNL1       -0.0580
     19  C         17.1430  -20.6900  -11.0940 C.2     1  UNL1        0.0070
     20  C         18.3700  -20.3800  -11.6850 C.2     1  UNL1        0.0010
     21  C         19.3710  -21.3460  -11.7610 C.2     1  UNL1        0.0000
     22  C         19.1480  -22.6200  -11.2450 C.2     1  UNL1        0.0010
     23  C         17.9210  -22.9330  -10.6560 C.2     1  UNL1        0.0070
     24  C         20.9230  -24.4780   -8.8260 C.3     1  UNL1        0.2720
     25  C         22.2100  -23.8540   -9.3040 C.2     1  UNL1        0.2430
     26  O         23.2760  -24.1370   -8.7660 O.2     1  UNL1       -0.2710
     27  N         22.0420  -22.9900  -10.3700 N.am    1  UNL1       -0.3260
     28  H         21.0920  -22.7770  -10.6540 H       1  UNL1        0.1690
     29  C         23.0490  -22.3230  -11.1030 C.2     1  UNL1        0.0370
     30  C         22.9780  -22.4060  -12.5040 C.2     1  UNL1        0.0320
     31  C         23.9510  -21.8070  -13.3100 C.2     1  UNL1        0.0420
     32  C         25.0060  -21.1200  -12.7200 C.2     1  UNL1        0.1020
     33  C         25.0660  -21.0030  -11.3290 C.2     1  UNL1        0.1040
     34  O         25.9420  -20.5840  -13.5650 O.2     1  UNL1       -0.3460
     35  C         24.1010  -21.6140  -10.5240 C.2     1  UNL1        0.0690
     36  O         26.0540  -20.3100  -10.6800 O.2     1  UNL1       -0.3460
     37  C         26.7640  -19.4480  -11.5760 C.3     1  UNL1        0.2020
     38  C         27.1210  -20.1900  -12.8520 C.3     1  UNL1        0.2020
@<TRIPOS>BOND
     1    34    38    1
     2    34    32    1
     3    31    32    2
     4    31    30    1
     5    38    37    1
     6    32    33    1
     7    30    29    2
     8    21    20    2
     9    21    22    1
    10    20    19    1
    11    37    36    1
    12    33    36    1
    13    33    35    2
    14    22    23    2
    15    29    35    1
    16    29    27    1
    17    19    18    2
    18    23    18    1
    19    28    27    1
    20    18    17    1
    21    27    25   am
    22    17    16    1
    23    16    13    1
    24    25    24    1
    25    25    26    2
    26    24     1    1
    27    13    14    2
    28    13    12   am
    29     1     2    1
    30     1     5    1
    31    15    12    1
    32     2     3    1
    33    12    11    1
    34     5     4    1
    35     3     4    2
    36     4     6    1
    37    11     6    2
    38    11    10    1
    39     6     7    1
    40    10     9    2
    41     7     8    2
    42     9     8    1
