@<TRIPOS>MOLECULE
48913_out_ligand_01.pdbqt
 37 41 0 0 0
SMALL
GASTEIGER

@<TRIPOS>ATOM
      1  N         16.8660  -21.8370  -10.1970 N.3     1  UNL1       -0.1820
      2  N         15.6920  -22.4690  -10.3390 N.pl3   1  UNL1        0.0250
      3  N         15.2960  -22.7220   -9.1020 N.2     1  UNL1       -0.1360
      4  C         16.2470  -22.2030   -8.2530 C.2     1  UNL1        0.2000
      5  N         17.2620  -21.6190   -8.9230 N.pl3   1  UNL1       -0.1360
      6  C         16.1550  -22.2970   -6.7950 C.2     1  UNL1        0.0420
      7  C         14.8700  -22.2630   -6.2120 C.2     1  UNL1        0.0180
      8  C         14.7000  -22.3210   -4.8300 C.2     1  UNL1        0.0010
      9  C         15.8160  -22.4170   -4.0100 C.2     1  UNL1        0.0020
     10  C         17.0980  -22.4570   -4.5680 C.2     1  UNL1        0.0300
     11  C         17.2940  -22.4010   -5.9570 C.2     1  UNL1        0.0490
     12  N         18.5950  -22.4760   -6.5260 N.am    1  UNL1       -0.3220
     13  C         19.1350  -23.4790   -7.3100 C.2     1  UNL1        0.2590
     14  O         18.5890  -24.5370   -7.6090 O.2     1  UNL1       -0.2670
     15  H         19.2130  -21.6960   -6.3060 H       1  UNL1        0.1690
     16  C         20.5250  -23.2550   -7.8070 C.2     1  UNL1        0.0700
     17  C         21.1480  -22.0280   -7.5290 C.2     1  UNL1        0.0200
     18  C         22.4560  -21.7800   -7.9610 C.2     1  UNL1        0.0010
     19  C         23.1540  -22.7560   -8.6710 C.2     1  UNL1        0.0030
     20  C         22.5470  -23.9810   -8.9450 C.2     1  UNL1        0.0430
     21  C         21.2450  -24.2240   -8.5090 C.2     1  UNL1        0.1320
     22  F         20.7100  -25.4250   -8.7710 F       1  UNL1       -0.2050
     23  C         17.6010  -21.3150  -11.3230 C.3     1  UNL1        0.2720
     24  C         18.9890  -21.9060  -11.4210 C.2     1  UNL1        0.2430
     25  O         19.2140  -23.0210  -10.9520 O.2     1  UNL1       -0.2710
     26  N         19.8920  -21.1290  -12.1300 N.am    1  UNL1       -0.3260
     27  H         19.5790  -20.1920  -12.3840 H       1  UNL1        0.1690
     28  C         21.2300  -21.4310  -12.4560 C.2     1  UNL1        0.0370
     29  C         22.0620  -22.2410  -11.6800 C.2     1  UNL1        0.0320
     30  C         23.3770  -22.5040  -12.0840 C.2     1  UNL1        0.0420
     31  C         23.8650  -21.9590  -13.2680 C.2     1  UNL1        0.1020
     32  C         23.0500  -21.1250  -14.0350 C.2     1  UNL1        0.1040
     33  O         25.1530  -22.2770  -13.6120 O.2     1  UNL1       -0.3460
     34  C         21.7350  -20.8740  -13.6400 C.2     1  UNL1        0.0690
     35  O         23.4680  -20.5240  -15.1950 O.2     1  UNL1       -0.3460
     36  C         24.8950  -20.5630  -15.3130 C.3     1  UNL1        0.2020
     37  C         25.4250  -21.9480  -14.9790 C.3     1  UNL1        0.2020
@<TRIPOS>BOND
     1    36    35    1
     2    36    37    1
     3    35    32    1
     4    37    33    1
     5    32    34    1
     6    32    31    2
     7    34    28    2
     8    33    31    1
     9    31    30    1
    10    28    26    1
    11    28    29    1
    12    27    26    1
    13    26    24   am
    14    30    29    2
    15    24    23    1
    16    24    25    2
    17    23     1    1
    18     2     1    1
    19     2     3    1
    20     1     5    1
    21     3     4    2
    22    20    19    2
    23    20    21    1
    24     5     4    1
    25    22    21    1
    26    19    18    1
    27    21    16    2
    28     4     6    1
    29    18    17    2
    30    16    17    1
    31    16    13    1
    32    14    13    2
    33    13    12   am
    34     6     7    2
    35     6    11    1
    36    12    15    1
    37    12    11    1
    38     7     8    1
    39    11    10    2
    40     8     9    2
    41    10     9    1
