@<TRIPOS>MOLECULE
48931_out_ligand_01.pdbqt
 29 32 0 0 0
SMALL
GASTEIGER

@<TRIPOS>ATOM
      1  C         22.4260  -21.8050  -12.3470 C.2     1  UNL1        0.0320
      2  C         23.0490  -22.7280  -11.4940 C.2     1  UNL1        0.0180
      3  C         22.4120  -23.1570  -10.3270 C.2     1  UNL1        0.0260
      4  C         21.1460  -22.6520  -10.0180 C.2     1  UNL1        0.0750
      5  C         20.5220  -21.7120  -10.8460 C.2     1  UNL1        0.0260
      6  C         21.1640  -21.2890  -12.0130 C.2     1  UNL1        0.0180
      7  S         20.3100  -23.1690   -8.5260 S.O2    1  UNL1        0.2480
      8  O         21.0240  -22.5090   -7.4560 O.2     1  UNL1       -0.2050
      9  O         20.1900  -24.6120   -8.5690 O.2     1  UNL1       -0.2050
     10  N         18.7180  -22.4940   -8.7290 N.pl3   1  UNL1       -0.1720
     11  C         18.0860  -22.9540  -10.0100 C.3     1  UNL1        0.1140
     12  C         16.7170  -22.3230  -10.1770 C.3     1  UNL1        0.0200
     13  C         15.8060  -22.8370   -9.0810 C.3     1  UNL1        0.0420
     14  C         16.4350  -22.6630   -7.7240 C.2     1  UNL1       -0.0360
     15  C         15.5770  -22.6590   -6.6080 C.2     1  UNL1        0.0090
     16  C         17.8330  -22.5470   -7.5530 C.2     1  UNL1        0.0310
     17  C         16.0810  -22.4720   -5.3250 C.2     1  UNL1        0.0010
     18  C         17.4430  -22.2710   -5.1530 C.2     1  UNL1        0.0020
     19  C         18.3020  -22.2870   -6.2570 C.2     1  UNL1        0.0250
     20  C         23.1520  -21.3710  -13.5720 C.2     1  UNL1        0.2510
     21  O         22.6310  -20.5910  -14.3590 O.2     1  UNL1       -0.2680
     22  N         24.4280  -21.8610  -13.7310 N.am    1  UNL1       -0.3510
     23  H         24.9150  -22.2380  -12.9300 H       1  UNL1        0.1630
     24  C         25.2540  -21.3910  -14.8190 C.3     1  UNL1        0.1870
     25  C         24.8430  -22.0950  -16.0550 C.2     1  UNL1        0.0700
     26  C         24.6640  -23.4270  -16.3720 C.2     1  UNL1        0.0360
     27  C         24.2680  -23.4630  -17.7300 C.2     1  UNL1        0.0270
     28  C         24.2240  -22.1560  -18.1530 C.2     1  UNL1        0.1420
     29  O         24.5780  -21.3160  -17.1450 O.2     1  UNL1       -0.3250
@<TRIPOS>BOND
     1    28    27    2
     2    28    29    1
     3    27    26    1
     4    29    25    1
     5    26    25    2
     6    25    24    1
     7    24    22    1
     8    21    20    2
     9    22    20   am
    10    22    23    1
    11    20     1    1
    12     1     6    2
    13     1     2    1
    14     6     5    1
    15     2     3    2
    16     5     4    2
    17     3     4    1
    18    12    11    1
    19    12    13    1
    20     4     7    1
    21    11    10    1
    22    13    14    1
    23    10     7    1
    24    10    16    1
    25     9     7    2
    26     7     8    2
    27    14    16    2
    28    14    15    1
    29    16    19    1
    30    15    17    2
    31    19    18    2
    32    17    18    1
