@<TRIPOS>MOLECULE
48937_out_ligand_01.pdbqt
 28 31 0 0 0
SMALL
GASTEIGER

@<TRIPOS>ATOM
      1  C         21.8830  -23.3920   -8.7910 C.2     1  UNL1        0.0320
      2  C         21.0950  -24.5410   -8.9240 C.2     1  UNL1        0.0180
      3  C         19.8480  -24.6000   -8.3010 C.2     1  UNL1        0.0260
      4  C         19.4030  -23.5080   -7.5470 C.2     1  UNL1        0.0790
      5  C         20.2050  -22.3720   -7.3820 C.2     1  UNL1        0.0260
      6  C         21.4520  -22.3150   -8.0070 C.2     1  UNL1        0.0180
      7  C         23.2090  -23.3570   -9.4410 C.2     1  UNL1        0.2580
      8  O         24.1250  -23.9140   -8.8430 O.2     1  UNL1       -0.2670
      9  N         23.2870  -22.7250  -10.6720 N.am    1  UNL1       -0.3130
     10  C         22.1620  -22.1680  -11.4450 C.2     1  UNL1        0.1370
     11  C         24.4660  -22.5490  -11.4210 C.2     1  UNL1        0.0430
     12  C         22.7030  -21.7500  -12.8190 C.2     1  UNL1        0.0610
     13  C         24.1710  -21.9640  -12.6540 C.2     1  UNL1       -0.0300
     14  C         25.1700  -21.6810  -13.5740 C.2     1  UNL1        0.0090
     15  C         26.4880  -21.9920  -13.2390 C.2     1  UNL1        0.0010
     16  C         26.7860  -22.5810  -12.0010 C.2     1  UNL1        0.0020
     17  C         25.7710  -22.8640  -11.0830 C.2     1  UNL1        0.0300
     18  S         17.8240  -23.5780   -6.7320 S.O2    1  UNL1        0.2580
     19  O         17.6690  -22.3640   -5.9630 O.2     1  UNL1       -0.2010
     20  O         17.6680  -24.8880   -6.1430 O.2     1  UNL1       -0.2010
     21  N         16.7580  -23.4640   -8.0130 N.3     1  UNL1       -0.3130
     22  H         16.1060  -24.2390   -8.1200 H       1  UNL1        0.1720
     23  C         16.4900  -22.1770   -8.6510 C.3     1  UNL1        0.1640
     24  C         16.5590  -22.3000  -10.1800 C.3     1  UNL1        0.1400
     25  C         17.7870  -23.0510  -10.6800 C.3     1  UNL1        0.0350
     26  C         18.7850  -21.9440  -10.9060 C.3     1  UNL1        0.0290
     27  C         17.8990  -20.8260  -11.4060 C.3     1  UNL1        0.1680
     28  O         16.6360  -20.9720  -10.7400 O.3     1  UNL1       -0.3840
@<TRIPOS>BOND
     1    14    15    2
     2    14    13    1
     3    15    16    1
     4    12    13    1
     5    12    10    2
     6    13    11    2
     7    16    17    2
     8    10     9    1
     9    11    17    1
    10    11     9    1
    11    27    26    1
    12    27    28    1
    13    26    25    1
    14    28    24    1
    15    25    24    1
    16     9     7   am
    17    24    23    1
    18     7     8    2
    19     7     1    1
    20     2     1    2
    21     2     3    1
    22     1     6    1
    23    23    21    1
    24     3     4    2
    25    22    21    1
    26    21    18    1
    27     6     5    2
    28     4     5    1
    29     4    18    1
    30    18    20    2
    31    18    19    2
