@<TRIPOS>MOLECULE
4895_out_ligand_01.pdbqt
 31 35 0 0 0
SMALL
GASTEIGER

@<TRIPOS>ATOM
      1  C         20.9640  -22.2660  -11.2540 C.2     1  UNL1        0.0320
      2  C         20.8340  -23.2490  -10.2590 C.2     1  UNL1        0.0180
      3  C         19.6380  -23.3800   -9.5510 C.2     1  UNL1        0.0260
      4  C         18.5800  -22.5110   -9.8290 C.2     1  UNL1        0.0800
      5  C         18.7000  -21.5220  -10.8110 C.2     1  UNL1        0.0260
      6  C         19.8970  -21.3960  -11.5220 C.2     1  UNL1        0.0180
      7  S         17.0380  -22.6550   -8.9380 S.O2    1  UNL1        0.2650
      8  O         16.1730  -23.5270   -9.7040 O.2     1  UNL1       -0.2000
      9  O         16.6490  -21.2930   -8.6360 O.2     1  UNL1       -0.2000
     10  N         17.5320  -23.4850   -7.5060 N.pl3   1  UNL1       -0.2710
     11  C         16.6940  -24.6610   -7.1310 C.3     1  UNL1        0.1420
     12  C         15.5410  -24.2480   -6.2310 C.3     1  UNL1        0.0260
     13  C         16.0690  -23.6280   -4.9480 C.3     1  UNL1        0.0420
     14  C         17.1910  -22.6540   -5.1880 C.2     1  UNL1       -0.0310
     15  C         17.5770  -21.8050   -4.1370 C.2     1  UNL1        0.0090
     16  C         17.9080  -22.6280   -6.3970 C.2     1  UNL1        0.0510
     17  C         18.6610  -20.9410   -4.2830 C.2     1  UNL1        0.0010
     18  C         19.3810  -20.9290   -5.4720 C.2     1  UNL1        0.0020
     19  C         19.0100  -21.7740   -6.5200 C.2     1  UNL1        0.0310
     20  C         22.2620  -22.1640  -11.9790 C.2     1  UNL1        0.2580
     21  O         23.2330  -22.7510  -11.5160 O.2     1  UNL1       -0.2670
     22  N         22.2220  -21.4270  -13.1360 N.am    1  UNL1       -0.2850
     23  H         21.3580  -21.0650  -13.5100 H       1  UNL1        0.1720
     24  C         23.3170  -21.2120  -13.9220 C.ar    1  UNL1        0.2740
     25  N         24.2690  -20.3340  -13.6950 N.ar    1  UNL1       -0.1030
     26  N         25.1720  -20.4660  -14.7300 N.ar    1  UNL1       -0.1250
     27  C         24.7030  -21.4170  -15.5130 C.ar    1  UNL1        0.1750
     28  O         23.5250  -21.9400  -15.0530 O.2     1  UNL1       -0.2590
     29  C         25.3970  -21.9110  -16.8160 C.3     1  UNL1        0.0650
     30  C         24.7120  -22.9260  -17.6940 C.3     1  UNL1        0.0130
     31  C         24.8340  -21.5000  -18.1520 C.3     1  UNL1        0.0130
@<TRIPOS>BOND
     1    31    30    1
     2    31    29    1
     3    30    29    1
     4    29    27    1
     5    27    28   ar
     6    27    26   ar
     7    28    24   ar
     8    26    25   ar
     9    24    25   ar
    10    24    22    1
    11    23    22    1
    12    22    20   am
    13    20    21    2
    14    20     1    1
    15     6     1    2
    16     6     5    1
    17     1     2    1
    18     5     4    2
    19     2     3    2
    20     4     3    1
    21     4     7    1
    22     8     7    2
    23     7     9    2
    24     7    10    1
    25    10    11    1
    26    10    16    1
    27    11    12    1
    28    19    16    1
    29    19    18    2
    30    16    14    2
    31    12    13    1
    32    18    17    1
    33    14    13    1
    34    14    15    1
    35    17    15    2
