@<TRIPOS>MOLECULE
49004_out_ligand_01.pdbqt
 28 30 0 0 0
SMALL
GASTEIGER

@<TRIPOS>ATOM
      1  N         20.6820  -22.4900   -9.0040 N.am    1  UNL1       -0.3230
      2  C         20.3570  -22.0680  -10.2810 C.2     1  UNL1        0.2560
      3  O         19.2660  -21.6640  -10.6680 O.2     1  UNL1       -0.2670
      4  H         21.6610  -22.6640   -8.8160 H       1  UNL1        0.1690
      5  C         19.8160  -22.6200   -7.8990 C.2     1  UNL1        0.0350
      6  C         19.7190  -21.6940   -6.8660 C.2     1  UNL1        0.0390
      7  C         18.8280  -21.8970   -5.7920 C.2     1  UNL1       -0.0290
      8  C         18.8050  -20.8980   -4.6680 C.3     1  UNL1        0.0420
      9  C         17.9650  -23.0090   -5.7730 C.2     1  UNL1        0.0430
     10  C         18.5620  -21.6500   -3.3740 C.3     1  UNL1        0.0250
     11  C         17.2440  -22.3980   -3.4670 C.3     1  UNL1        0.1320
     12  N         17.0300  -23.1650   -4.6990 N.am    1  UNL1       -0.3180
     13  C         15.8350  -23.8900   -4.7210 C.2     1  UNL1        0.2200
     14  C         15.2180  -24.2900   -6.0390 C.3     1  UNL1        0.1170
     15  O         15.2120  -24.1510   -3.6850 O.2     1  UNL1       -0.2730
     16  C         18.1120  -23.9560   -6.7910 C.2     1  UNL1        0.0320
     17  C         19.0140  -23.7610   -7.8450 C.2     1  UNL1        0.0320
     18  C         21.4880  -22.0810  -11.2520 C.2     1  UNL1        0.0320
     19  C         21.3580  -21.3550  -12.4400 C.2     1  UNL1        0.0170
     20  C         22.3960  -21.3450  -13.3740 C.2     1  UNL1        0.0100
     21  C         23.5750  -22.0730  -13.1480 C.2     1  UNL1       -0.0260
     22  C         23.6910  -22.8060  -11.9540 C.2     1  UNL1        0.0100
     23  C         22.6550  -22.8180  -11.0160 C.2     1  UNL1        0.0170
     24  C         24.6910  -22.0310  -14.1780 C.3     1  UNL1        0.2460
     25  C         25.6830  -20.8900  -13.9460 C.3     1  UNL1        0.0470
     26  N         24.1380  -21.9390  -15.5290 N.3     1  UNL1        0.0860
     27  H         24.1750  -22.8540  -15.9740 H       1  UNL1        0.3130
     28  H         24.7350  -21.3300  -16.0860 H       1  UNL1        0.3130
@<TRIPOS>BOND
     1    28    26    1
     2    27    26    1
     3    26    24    1
     4    24    25    1
     5    24    21    1
     6    20    21    2
     7    20    19    1
     8    21    22    1
     9    19    18    2
    10    22    23    2
    11    18    23    1
    12    18     2    1
    13     3     2    2
    14     2     1   am
    15     1     4    1
    16     1     5    1
    17     5    17    2
    18     5     6    1
    19    17    16    1
    20     6     7    2
    21    16     9    2
    22    14    13    1
    23     7     9    1
    24     7     8    1
    25     9    12    1
    26    13    12   am
    27    13    15    2
    28    12    11    1
    29     8    10    1
    30    11    10    1
