@<TRIPOS>MOLECULE
4900_out_ligand_01.pdbqt
 29 32 0 0 0
SMALL
GASTEIGER

@<TRIPOS>ATOM
      1  C         23.4310  -21.6600  -11.3380 C.2     1  UNL1        0.1070
      2  N         24.7360  -21.6840  -11.7270 N.2     1  UNL1       -0.2530
      3  C         24.9880  -21.5980  -13.0500 C.2     1  UNL1        0.1180
      4  C         24.0030  -21.5020  -14.0140 C.2     1  UNL1        0.0200
      5  C         22.6740  -21.4980  -13.6010 C.2     1  UNL1        0.0200
      6  C         22.3620  -21.5810  -12.2380 C.2     1  UNL1        0.0450
      7  S         23.2300  -21.6910   -9.5670 S.3     1  UNL1       -0.1000
      8  C         23.0410  -23.4870   -9.3570 C.3     1  UNL1        0.1840
      9  C         21.6930  -23.8810   -8.7630 C.2     1  UNL1        0.2310
     10  O         21.3190  -25.0520   -8.8230 O.2     1  UNL1       -0.2720
     11  N         21.0210  -22.8600   -8.1130 N.am    1  UNL1       -0.3260
     12  H         21.4500  -21.9350   -8.1750 H       1  UNL1        0.1690
     13  C         19.7920  -22.9280   -7.4280 C.2     1  UNL1        0.0370
     14  C         19.4500  -21.8260   -6.6270 C.2     1  UNL1        0.0290
     15  C         18.2510  -21.8050   -5.9070 C.2     1  UNL1        0.0050
     16  C         17.3810  -22.8870   -5.9840 C.2     1  UNL1        0.0420
     17  C         17.7230  -23.9770   -6.7750 C.2     1  UNL1        0.1180
     18  F         16.8830  -25.0200   -6.8450 F       1  UNL1       -0.2060
     19  C         18.9160  -24.0120   -7.4920 C.2     1  UNL1        0.0710
     20  C         20.9670  -21.6310  -11.8190 C.ar    1  UNL1        0.1420
     21  N         20.3590  -22.6620  -11.2670 N.ar    1  UNL1       -0.2280
     22  C         19.0690  -22.2580  -11.0290 C.ar    1  UNL1        0.0860
     23  C         18.0060  -22.9500  -10.4340 C.2     1  UNL1        0.0340
     24  C         18.8730  -20.9530  -11.4630 C.ar    1  UNL1        0.0620
     25  C         16.7720  -22.3020  -10.3040 C.2     1  UNL1        0.0020
     26  C         16.5990  -20.9940  -10.7650 C.2     1  UNL1        0.0020
     27  C         17.6510  -20.2850  -11.3560 C.2     1  UNL1        0.0320
     28  N         20.0910  -20.5800  -11.9690 N.ar    1  UNL1       -0.3380
     29  H         20.3220  -19.6740  -12.3490 H       1  UNL1        0.1670
@<TRIPOS>BOND
     1     4     5    2
     2     4     3    1
     3     5     6    1
     4     3     2    2
     5    29    28    1
     6     6    20    1
     7     6     1    2
     8    28    20   ar
     9    28    24   ar
    10    20    21   ar
    11     2     1    1
    12    24    27    1
    13    24    22   ar
    14    27    26    2
    15     1     7    1
    16    21    22   ar
    17    22    23    1
    18    26    25    1
    19    23    25    2
    20     7     8    1
    21     8     9    1
    22    10     9    2
    23     9    11   am
    24    12    11    1
    25    11    13    1
    26    19    13    2
    27    19    17    1
    28    13    14    1
    29    18    17    1
    30    17    16    2
    31    14    15    2
    32    16    15    1
