@<TRIPOS>MOLECULE
49019_out_ligand_01.pdbqt
 30 34 0 0 0
SMALL
GASTEIGER

@<TRIPOS>ATOM
      1  C         22.4480  -22.7620   -9.4050 C.2     1  UNL1        0.1460
      2  C         21.6480  -22.0030   -8.5150 C.2     1  UNL1        0.0710
      3  C         20.6600  -22.8540   -8.0610 C.2     1  UNL1        0.0620
      4  N         20.9310  -24.0510   -8.6730 N.pl3   1  UNL1       -0.2770
      5  N         21.9920  -24.0290   -9.4990 N.2     1  UNL1       -0.1690
      6  H         20.4320  -24.9270   -8.5590 H       1  UNL1        0.1890
      7  C         23.6240  -22.2990  -10.1540 C.2     1  UNL1        0.2720
      8  O         24.1800  -21.2270   -9.9340 O.2     1  UNL1       -0.2660
      9  N         24.0310  -23.1910  -11.1260 N.am    1  UNL1       -0.3510
     10  H         23.4730  -24.0410  -11.1660 H       1  UNL1        0.1630
     11  C         25.1970  -22.9650  -11.9910 C.3     1  UNL1        0.0880
     12  C         25.1520  -21.6400  -12.7990 C.3     1  UNL1        0.0610
     13  C         24.4960  -22.4420  -13.9410 C.3     1  UNL1        0.2270
     14  C         25.1360  -23.7160  -13.3470 C.3     1  UNL1        0.0610
     15  N         24.9900  -22.1810  -15.3030 N.3     1  UNL1        0.0930
     16  C         24.9970  -20.7820  -15.7480 C.3     1  UNL1        0.2730
     17  C         25.6900  -20.6560  -17.1080 C.3     1  UNL1        0.0300
     18  C         25.0100  -21.5330  -18.1530 C.3     1  UNL1        0.0030
     19  C         24.8900  -22.9660  -17.6500 C.3     1  UNL1        0.0300
     20  C         24.2550  -23.0260  -16.2580 C.3     1  UNL1        0.2730
     21  C         19.5580  -22.6500   -7.1220 C.2     1  UNL1       -0.0070
     22  C         19.5820  -21.6030   -6.1930 C.2     1  UNL1        0.0140
     23  C         18.5210  -21.4170   -5.3020 C.2     1  UNL1        0.0130
     24  C         17.4110  -22.2740   -5.3180 C.2     1  UNL1       -0.0260
     25  C         16.3370  -22.0990   -4.4300 C.2     1  UNL1        0.0120
     26  C         17.3760  -23.3370   -6.2460 C.2     1  UNL1       -0.0250
     27  C         15.2400  -22.9620   -4.4590 C.2     1  UNL1        0.0010
     28  C         15.2060  -24.0100   -5.3740 C.2     1  UNL1        0.0010
     29  C         16.2660  -24.1970   -6.2620 C.2     1  UNL1        0.0120
     30  C         18.4520  -23.5120   -7.1340 C.2     1  UNL1        0.0260
@<TRIPOS>BOND
     1    18    19    1
     2    18    17    1
     3    19    20    1
     4    17    16    1
     5    20    15    1
     6    16    15    1
     7    15    13    1
     8    13    14    1
     9    13    12    1
    10    14    11    1
    11    12    11    1
    12    11     9    1
    13    10     9    1
    14     9     7   am
    15     7     8    2
    16     7     1    1
    17     5     1    2
    18     5     4    1
    19     1     2    1
    20     4     6    1
    21     4     3    1
    22     2     3    2
    23     3    21    1
    24    30    21    2
    25    30    26    1
    26    21    22    1
    27    29    26    1
    28    29    28    2
    29    26    24    2
    30    22    23    2
    31    28    27    1
    32    24    23    1
    33    24    25    1
    34    27    25    2
