@<TRIPOS>MOLECULE
49055_out_ligand_01.pdbqt
 31 33 0 0 0
SMALL
GASTEIGER

@<TRIPOS>ATOM
      1  C         17.7150  -23.3380   -8.7330 C.2     1  UNL1        0.0810
      2  C         19.1160  -23.4100   -8.6570 C.2     1  UNL1        0.0420
      3  C         19.9050  -22.8000   -9.6370 C.2     1  UNL1        0.0330
      4  C         19.2960  -22.1290  -10.7000 C.2     1  UNL1        0.0170
      5  C         17.9020  -22.0550  -10.7740 C.2     1  UNL1        0.0090
      6  C         17.0890  -22.6620   -9.7990 C.2     1  UNL1       -0.0390
      7  C         15.5970  -22.5310   -9.9350 C.3     1  UNL1        0.0500
      8  S         16.7750  -24.1230   -7.4270 S.O2    1  UNL1        0.2460
      9  O         17.7080  -24.8230   -6.5730 O.2     1  UNL1       -0.2060
     10  O         15.6540  -24.8040   -8.0400 O.2     1  UNL1       -0.2060
     11  N         16.1480  -22.7470   -6.6370 N.pl3   1  UNL1       -0.1810
     12  H         15.1820  -22.9410   -6.3780 H       1  UNL1        0.1460
     13  C         16.9270  -22.2940   -5.5150 C.2     1  UNL1        0.0280
     14  C         18.0320  -21.4750   -5.7630 C.2     1  UNL1        0.0250
     15  C         18.8330  -21.0300   -4.7110 C.2     1  UNL1        0.0020
     16  C         18.5330  -21.4070   -3.4070 C.2     1  UNL1        0.0010
     17  C         17.4340  -22.2300   -3.1530 C.2     1  UNL1        0.0080
     18  C         16.6170  -22.6870   -4.2010 C.2     1  UNL1       -0.0400
     19  C         15.4510  -23.5780   -3.8780 C.3     1  UNL1        0.0500
     20  C         21.3830  -22.9190   -9.5290 C.2     1  UNL1        0.2510
     21  O         21.8830  -23.9720   -9.1530 O.2     1  UNL1       -0.2680
     22  N         22.1070  -21.7890   -9.8430 N.am    1  UNL1       -0.3530
     23  H         21.6230  -20.9050   -9.9130 H       1  UNL1        0.1630
     24  C         23.5360  -21.7320   -9.6320 C.3     1  UNL1        0.1610
     25  C         24.2710  -21.7100  -10.9480 C.2     1  UNL1       -0.0400
     26  C         25.6090  -21.2890  -11.0010 C.2     1  UNL1        0.0100
     27  C         26.2910  -21.2440  -12.2190 C.2     1  UNL1        0.0240
     28  C         25.6370  -21.6150  -13.3910 C.2     1  UNL1        0.0340
     29 CL         26.4750  -21.5600  -14.8930 Cl      1  UNL1       -0.0840
     30  C         24.3070  -22.0290  -13.3570 C.2     1  UNL1        0.0240
     31  C         23.6240  -22.0740  -12.1380 C.2     1  UNL1        0.0100
@<TRIPOS>BOND
     1    29    28    1
     2    28    30    2
     3    28    27    1
     4    30    31    1
     5    27    26    2
     6    31    25    2
     7    26    25    1
     8    25    24    1
     9     5     4    2
    10     5     6    1
    11     4     3    1
    12     7     6    1
    13    23    22    1
    14    22    24    1
    15    22    20   am
    16     6     1    2
    17     3    20    1
    18     3     2    2
    19    20    21    2
    20     1     2    1
    21     1     8    1
    22    10     8    2
    23     8    11    1
    24     8     9    2
    25    11    12    1
    26    11    13    1
    27    14    13    2
    28    14    15    1
    29    13    18    1
    30    15    16    2
    31    18    19    1
    32    18    17    2
    33    16    17    1
