@<TRIPOS>MOLECULE
49066_out_ligand_01.pdbqt
 33 36 0 0 0
SMALL
GASTEIGER

@<TRIPOS>ATOM
      1  C         21.8700  -23.0540  -10.0130 C.2     1  UNL1        0.0330
      2  C         23.1430  -23.3590   -9.4690 C.2     1  UNL1        0.0180
      3  C         24.3160  -22.9990  -10.1440 C.2     1  UNL1        0.0190
      4  C         24.1740  -22.3480  -11.3540 C.2     1  UNL1        0.0480
      5  C         22.9320  -22.0630  -11.8940 C.2     1  UNL1        0.0490
      6  C         21.7580  -22.4060  -11.2540 C.2     1  UNL1        0.0350
      7  C         23.1530  -21.3870  -13.1730 C.2     1  UNL1        0.2620
      8  O         22.2650  -20.9910  -13.9020 O.2     1  UNL1       -0.2670
      9  N         24.5070  -21.3030  -13.3370 N.am    1  UNL1       -0.2760
     10  C         25.1860  -21.8570  -12.2880 C.2     1  UNL1        0.2620
     11  O         26.3850  -21.9460  -12.1060 O.2     1  UNL1       -0.2670
     12  C         20.6150  -23.4470   -9.3120 C.2     1  UNL1        0.2560
     13  N         19.8130  -22.3910   -8.9190 N.am    1  UNL1       -0.3230
     14  H         20.0860  -21.4640   -9.2170 H       1  UNL1        0.1690
     15  O         20.3920  -24.6420   -9.1710 O.2     1  UNL1       -0.2670
     16  C         18.5920  -22.4620   -8.2150 C.2     1  UNL1        0.0350
     17  C         18.6500  -22.3420   -6.8210 C.2     1  UNL1        0.0300
     18  C         17.4860  -22.4060   -6.0480 C.2     1  UNL1        0.0100
     19  C         16.2400  -22.5950   -6.6560 C.2     1  UNL1       -0.0480
     20  C         16.1850  -22.7110   -8.0490 C.2     1  UNL1        0.0100
     21  C         17.3510  -22.6490   -8.8210 C.2     1  UNL1        0.0300
     22  C         14.9800  -22.6510   -5.8270 C.3     1  UNL1        0.1480
     23  C         15.2050  -23.0710   -4.3960 C.2     1  UNL1        0.1430
     24  O         15.4100  -24.1900   -3.9570 O.2     1  UNL1       -0.6500
     25  O         15.1220  -22.0230   -3.5480 O.3     1  UNL1       -0.7760
     26  H         15.0290  -21.2480   -4.1440 H       1  UNL1        0.1670
     27  C         25.1480  -20.7360  -14.5010 C.3     1  UNL1        0.1750
     28  C         24.8540  -21.5360  -15.7390 C.2     1  UNL1       -0.0220
     29  C         24.7590  -22.9300  -15.7020 C.2     1  UNL1        0.0120
     30  C         24.5090  -23.6360  -16.8740 C.2     1  UNL1        0.0200
     31  C         24.3670  -22.9210  -18.0520 C.2     1  UNL1        0.1160
     32  N         24.4620  -21.5770  -18.1300 N.2     1  UNL1       -0.2730
     33  C         24.7110  -20.9160  -16.9780 C.2     1  UNL1        0.1240
@<TRIPOS>BOND
     1    32    31    2
     2    32    33    1
     3    31    30    1
     4    33    28    2
     5    30    29    2
     6    28    29    1
     7    28    27    1
     8    27     9    1
     9     8     7    2
    10     9     7   am
    11     9    10   am
    12     7     5    1
    13    10    11    2
    14    10     4    1
    15     5     4    2
    16     5     6    1
    17     4     3    1
    18     6     1    2
    19     3     2    2
    20     1     2    1
    21     1    12    1
    22    12    15    2
    23    12    13   am
    24    14    13    1
    25    13    16    1
    26    21    16    2
    27    21    20    1
    28    16    17    1
    29    20    19    2
    30    17    18    2
    31    19    18    1
    32    19    22    1
    33    22    23    1
    34    23    24    2
    35    23    25    1
    36    26    25    1
