@<TRIPOS>MOLECULE
49098_out_ligand_01.pdbqt
 30 33 0 0 0
SMALL
GASTEIGER

@<TRIPOS>ATOM
      1  C         22.7620  -22.1630  -12.0690 C.2     1  UNL1        0.0320
      2  C         21.5030  -21.6000  -12.3020 C.2     1  UNL1        0.0190
      3  C         20.4600  -21.8000  -11.3930 C.2     1  UNL1        0.0300
      4  C         20.6600  -22.5580  -10.2330 C.2     1  UNL1        0.0340
      5  C         21.9210  -23.1080   -9.9970 C.2     1  UNL1        0.0300
      6  C         22.9710  -22.9070  -10.9030 C.2     1  UNL1        0.0190
      7  N         19.5570  -22.7110   -9.3690 N.am    1  UNL1       -0.3260
      8  C         19.5490  -22.6690   -7.9810 C.2     1  UNL1        0.2350
      9  O         20.5330  -22.4800   -7.2700 O.2     1  UNL1       -0.2720
     10  H         18.6500  -22.7830   -9.8170 H       1  UNL1        0.1690
     11  C         18.1350  -22.8920   -7.3780 C.3     1  UNL1        0.0680
     12  C         17.1120  -22.1310   -8.2590 C.3     1  UNL1        0.0240
     13  C         15.7950  -22.9050   -8.1660 C.3     1  UNL1        0.0020
     14  C         16.1340  -24.2590   -7.5550 C.3     1  UNL1        0.0020
     15  C         17.6550  -24.3460   -7.5910 C.3     1  UNL1        0.0240
     16  C         18.1340  -22.5480   -5.8780 C.2     1  UNL1       -0.0400
     17  C         17.7620  -23.4600   -4.8760 C.2     1  UNL1        0.0080
     18  C         17.7720  -23.0900   -3.5280 C.2     1  UNL1        0.0010
     19  C         18.1510  -21.8050   -3.1530 C.2     1  UNL1        0.0000
     20  C         18.5270  -20.8870   -4.1270 C.2     1  UNL1        0.0010
     21  C         18.5210  -21.2550   -5.4750 C.2     1  UNL1        0.0080
     22  C         23.8460  -21.9170  -13.0650 C.2     1  UNL1        0.2570
     23  O         24.9020  -22.5220  -12.9320 O.2     1  UNL1       -0.2670
     24  N         23.5480  -20.9870  -14.0340 N.am    1  UNL1       -0.3000
     25  H         22.6920  -20.4570  -14.0090 H       1  UNL1        0.1710
     26  C         24.4330  -20.6720  -15.0290 C.2     1  UNL1        0.1960
     27  N         24.4900  -21.0600  -16.2790 N.2     1  UNL1       -0.1240
     28  N         25.5580  -20.4860  -16.9490 N.2     1  UNL1       -0.1530
     29  C         26.2500  -19.6880  -16.1650 C.2     1  UNL1        0.1940
     30  S         25.6610  -19.5800  -14.5560 S.3     1  UNL1       -0.0410
@<TRIPOS>BOND
     1    28    27    1
     2    28    29    2
     3    27    26    2
     4    29    30    1
     5    26    30    1
     6    26    24    1
     7    24    25    1
     8    24    22   am
     9    22    23    2
    10    22     1    1
    11     2     1    2
    12     2     3    1
    13     1     6    1
    14     3     4    2
    15     6     5    2
    16     4     5    1
    17     4     7    1
    18    10     7    1
    19     7     8   am
    20    12    13    1
    21    12    11    1
    22    13    14    1
    23     8    11    1
    24     8     9    2
    25    15    14    1
    26    15    11    1
    27    11    16    1
    28    16    21    2
    29    16    17    1
    30    21    20    1
    31    17    18    2
    32    20    19    2
    33    18    19    1
