@<TRIPOS>MOLECULE
49125_out_ligand_01.pdbqt
 36 38 0 0 0
SMALL
GASTEIGER

@<TRIPOS>ATOM
      1  C         17.5720  -23.3120   -8.9360 C.2     1  UNL1        0.0860
      2  C         18.9700  -23.4170   -9.0490 C.2     1  UNL1        0.0420
      3  C         19.6510  -22.7580  -10.0730 C.2     1  UNL1        0.0330
      4  C         18.9410  -21.9870  -10.9940 C.2     1  UNL1        0.0170
      5  C         17.5540  -21.8620  -10.8710 C.2     1  UNL1        0.0090
      6  C         16.8470  -22.5130   -9.8410 C.2     1  UNL1       -0.0390
      7  C         15.3600  -22.3010   -9.7710 C.3     1  UNL1        0.0500
      8  C         21.1230  -22.9370  -10.1760 C.2     1  UNL1        0.2560
      9  O         21.6480  -23.7900   -9.4700 O.2     1  UNL1       -0.2670
     10  N         21.7540  -22.0680  -11.0450 N.am    1  UNL1       -0.3230
     11  H         21.1950  -21.3150  -11.4260 H       1  UNL1        0.1690
     12  C         23.1290  -22.0330  -11.3610 C.2     1  UNL1        0.0360
     13  C         23.9990  -21.5340  -10.3830 C.2     1  UNL1        0.0290
     14  C         25.3750  -21.4760  -10.6160 C.2     1  UNL1        0.0040
     15  C         25.8950  -21.9130  -11.8340 C.2     1  UNL1        0.0250
     16  C         25.0350  -22.3990  -12.8190 C.2     1  UNL1        0.0260
     17  C         23.6560  -22.4540  -12.5840 C.2     1  UNL1        0.0540
     18  N         25.5170  -22.8610  -14.0960 N.pl3   1  UNL1       -0.1810
     19  C         25.3260  -24.3100  -14.3450 C.3     1  UNL1        0.1350
     20  S         25.1120  -21.8810  -15.4410 S.O2    1  UNL1        0.2110
     21  C         26.4360  -22.2380  -16.5790 C.3     1  UNL1        0.1800
     22  O         23.8930  -22.4170  -16.0160 O.2     1  UNL1       -0.2110
     23  O         25.1840  -20.4880  -15.0530 O.2     1  UNL1       -0.2110
     24  S         16.8380  -24.2120   -7.5740 S.O2    1  UNL1        0.2630
     25  O         17.8560  -24.9440   -6.8560 O.2     1  UNL1       -0.2000
     26  O         15.6840  -24.9040   -8.1120 O.2     1  UNL1       -0.2000
     27  N         16.2240  -22.9870   -6.5890 N.pl3   1  UNL1       -0.2800
     28  H         15.5560  -22.3940   -7.0760 H       1  UNL1        0.1790
     29  C         17.0190  -22.4140   -5.5540 C.2     1  UNL1        0.0490
     30  C         16.7390  -22.6910   -4.2060 C.2     1  UNL1       -0.0350
     31  C         17.5260  -22.0860   -3.2130 C.2     1  UNL1        0.0090
     32  C         15.6190  -23.6020   -3.7820 C.3     1  UNL1        0.0500
     33  C         18.5860  -21.2420   -3.5530 C.2     1  UNL1        0.0070
     34  C         18.8790  -20.9840   -4.8930 C.2     1  UNL1       -0.0600
     35  C         20.0470  -20.1190   -5.2660 C.3     1  UNL1        0.0480
     36  C         18.1010  -21.5910   -5.8860 C.2     1  UNL1        0.0370
@<TRIPOS>BOND
     1    21    20    1
     2    22    20    2
     3    20    23    2
     4    20    18    1
     5    19    18    1
     6    18    16    1
     7    16    17    1
     8    16    15    2
     9    17    12    2
    10    15    14    1
    11    11    10    1
    12    12    10    1
    13    12    13    1
    14    10     8   am
    15     4     5    2
    16     4     3    1
    17     5     6    1
    18    14    13    2
    19     8     3    1
    20     8     9    2
    21     3     2    2
    22     6     7    1
    23     6     1    2
    24     2     1    1
    25     1    24    1
    26    26    24    2
    27    24    25    2
    28    24    27    1
    29    28    27    1
    30    27    29    1
    31    36    29    2
    32    36    34    1
    33    29    30    1
    34    35    34    1
    35    34    33    2
    36    30    32    1
    37    30    31    2
    38    33    31    1
