@<TRIPOS>MOLECULE
49135_out_ligand_01.pdbqt
 31 34 0 0 0
SMALL
GASTEIGER

@<TRIPOS>ATOM
      1  C         23.8450  -21.9080  -13.2170 C.2     1  UNL1        0.0540
      2  C         24.9340  -21.7760  -14.0920 C.2     1  UNL1        0.0190
      3  C         26.0560  -22.5930  -13.9390 C.2     1  UNL1        0.0010
      4  C         26.0940  -23.5490  -12.9250 C.2     1  UNL1        0.0020
      5  C         25.0080  -23.6960  -12.0600 C.2     1  UNL1        0.0250
      6  C         23.8770  -22.8880  -12.2080 C.2     1  UNL1        0.0380
      7  N         22.8130  -23.0180  -11.2540 N.pl3   1  UNL1       -0.1800
      8  H         21.9810  -22.4550  -11.4890 H       1  UNL1        0.1460
      9  S         23.2160  -22.6960   -9.6350 S.O2    1  UNL1        0.2450
     10  O         24.2430  -23.6210   -9.2050 O.2     1  UNL1       -0.2060
     11  O         23.3960  -21.2640   -9.5230 O.2     1  UNL1       -0.2060
     12  C         21.7030  -23.0910   -8.7920 C.2     1  UNL1        0.0750
     13  C         21.0980  -24.3280   -9.0260 C.2     1  UNL1        0.0260
     14  C         19.9140  -24.6470   -8.3600 C.2     1  UNL1        0.0140
     15  C         19.3260  -23.7370   -7.4650 C.2     1  UNL1       -0.0260
     16  C         18.1370  -24.0470   -6.7870 C.2     1  UNL1        0.0120
     17  C         19.9400  -22.4800   -7.2430 C.2     1  UNL1       -0.0250
     18  C         17.5610  -23.1340   -5.9010 C.2     1  UNL1        0.0010
     19  C         18.1650  -21.9000   -5.6830 C.2     1  UNL1        0.0010
     20  C         19.3480  -21.5740   -6.3500 C.2     1  UNL1        0.0120
     21  C         21.1280  -22.1640   -7.9180 C.2     1  UNL1        0.0370
     22  C         22.6360  -21.0620  -13.3850 C.2     1  UNL1        0.2530
     23  O         22.5580  -20.3060  -14.3490 O.2     1  UNL1       -0.2680
     24  N         21.6550  -21.1980  -12.4320 N.am    1  UNL1       -0.3510
     25  H         21.7480  -21.8670  -11.6810 H       1  UNL1        0.1630
     26  C         20.4750  -20.3650  -12.4250 C.3     1  UNL1        0.1870
     27  C         19.3860  -21.1220  -11.7630 C.2     1  UNL1        0.0700
     28  C         19.3240  -22.3740  -11.1870 C.2     1  UNL1        0.0360
     29  C         17.9930  -22.5410  -10.7370 C.2     1  UNL1        0.0270
     30  C         17.3280  -21.3850  -11.0700 C.2     1  UNL1        0.1420
     31  O         18.1640  -20.5180  -11.6980 O.2     1  UNL1       -0.3250
@<TRIPOS>BOND
     1    23    22    2
     2     2     3    1
     3     2     1    2
     4     3     4    2
     5    22     1    1
     6    22    24   am
     7     1     6    1
     8     4     5    1
     9    24    26    1
    10    24    25    1
    11    26    27    1
    12     6     5    2
    13     6     7    1
    14    27    31    1
    15    27    28    2
    16    31    30    1
    17     8     7    1
    18     7     9    1
    19    28    29    1
    20    30    29    2
    21     9    11    2
    22     9    10    2
    23     9    12    1
    24    13    12    2
    25    13    14    1
    26    12    21    1
    27    14    15    2
    28    21    17    2
    29    15    17    1
    30    15    16    1
    31    17    20    1
    32    16    18    2
    33    20    19    2
    34    18    19    1
