@<TRIPOS>MOLECULE
49131_out_ligand_01.pdbqt
 29 31 0 0 0
SMALL
GASTEIGER

@<TRIPOS>ATOM
      1  C         17.8450  -23.3140   -8.8480 C.2     1  UNL1        0.0810
      2  C         19.2230  -23.5740   -8.8850 C.2     1  UNL1        0.0420
      3  C         20.0110  -23.0410   -9.9090 C.2     1  UNL1        0.0330
      4  C         19.4250  -22.2370  -10.8900 C.2     1  UNL1        0.0170
      5  C         18.0510  -21.9810  -10.8540 C.2     1  UNL1        0.0090
      6  C         17.2400  -22.5080   -9.8330 C.2     1  UNL1       -0.0390
      7  C         15.7680  -22.2000   -9.8640 C.3     1  UNL1        0.0500
      8  S         16.8990  -24.0520   -7.5190 S.O2    1  UNL1        0.2460
      9  O         17.8340  -24.6760   -6.6070 O.2     1  UNL1       -0.2060
     10  O         15.8120  -24.7990   -8.1110 O.2     1  UNL1       -0.2060
     11  N         16.3130  -22.6460   -6.7480 N.pl3   1  UNL1       -0.1810
     12  H         16.2830  -21.8960   -7.4370 H       1  UNL1        0.1460
     13  C         17.0360  -22.2670   -5.5650 C.2     1  UNL1        0.0280
     14  C         18.1950  -21.4980   -5.7130 C.2     1  UNL1        0.0250
     15  C         18.9170  -21.0870   -4.5950 C.2     1  UNL1        0.0020
     16  C         18.4840  -21.4400   -3.3220 C.2     1  UNL1        0.0010
     17  C         17.3250  -22.2040   -3.1660 C.2     1  UNL1        0.0080
     18  C         16.5840  -22.6260   -4.2830 C.2     1  UNL1       -0.0400
     19  C         15.3390  -23.4390   -4.0630 C.3     1  UNL1        0.0500
     20  C         21.4700  -23.3200   -9.8940 C.2     1  UNL1        0.2520
     21  O         21.9310  -24.0980   -9.0680 O.2     1  UNL1       -0.2680
     22  N         22.2230  -22.6770  -10.8540 N.am    1  UNL1       -0.3520
     23  H         21.7720  -22.0710  -11.5270 H       1  UNL1        0.1630
     24  C         23.6720  -22.8100  -10.9080 C.3     1  UNL1        0.0840
     25  C         24.1090  -23.3280  -12.2830 C.3     1  UNL1        0.0250
     26  C         25.6280  -23.4220  -12.3950 C.3     1  UNL1        0.0020
     27  C         26.2980  -22.0910  -12.0690 C.3     1  UNL1        0.0000
     28  C         25.8680  -21.5640  -10.7030 C.3     1  UNL1        0.0020
     29  C         24.3500  -21.4710  -10.5860 C.3     1  UNL1        0.0250
@<TRIPOS>BOND
     1    26    25    1
     2    26    27    1
     3    25    24    1
     4    27    28    1
     5    23    22    1
     6    24    22    1
     7    24    29    1
     8     4     5    2
     9     4     3    1
    10     5     6    1
    11    22    20   am
    12    28    29    1
    13     3    20    1
    14     3     2    2
    15    20    21    2
    16     7     6    1
    17     6     1    2
    18     2     1    1
    19     1     8    1
    20    10     8    2
    21     8    11    1
    22     8     9    2
    23    12    11    1
    24    11    13    1
    25    14    13    2
    26    14    15    1
    27    13    18    1
    28    15    16    2
    29    18    19    1
    30    18    17    2
    31    16    17    1
