@<TRIPOS>MOLECULE
49159_out_ligand_01.pdbqt
 33 35 0 0 0
SMALL
GASTEIGER

@<TRIPOS>ATOM
      1  C         17.7230  -23.2700   -8.9530 C.2     1  UNL1        0.0860
      2  C         19.1100  -23.4850   -9.0380 C.2     1  UNL1        0.0420
      3  C         19.8580  -22.8990  -10.0600 C.2     1  UNL1        0.0330
      4  C         19.2230  -22.0940  -11.0080 C.2     1  UNL1        0.0170
      5  C         17.8410  -21.9030  -10.9420 C.2     1  UNL1        0.0090
      6  C         17.0660  -22.4880   -9.9220 C.2     1  UNL1       -0.0390
      7  C         15.5830  -22.2410   -9.9390 C.3     1  UNL1        0.0500
      8  C         21.3300  -23.1110  -10.0720 C.2     1  UNL1        0.2560
      9  O         21.7930  -23.9350   -9.2930 O.2     1  UNL1       -0.2670
     10  N         22.0170  -22.3580  -11.0050 N.am    1  UNL1       -0.3230
     11  H         21.4610  -21.8220  -11.6590 H       1  UNL1        0.1690
     12  C         23.4120  -22.3240  -11.2130 C.2     1  UNL1        0.0350
     13  C         24.2910  -21.5300  -10.4770 C.2     1  UNL1        0.0290
     14  C         25.6630  -21.5500  -10.7460 C.2     1  UNL1        0.0030
     15  C         26.1690  -22.3640  -11.7570 C.2     1  UNL1        0.0160
     16  C         25.3040  -23.1610  -12.5170 C.2     1  UNL1        0.0500
     17  C         23.9280  -23.1380  -12.2310 C.2     1  UNL1        0.0450
     18  C         25.8410  -24.0640  -13.6000 C.3     1  UNL1        0.4170
     19  F         26.9620  -24.7290  -13.2090 F       1  UNL1       -0.1660
     20  F         26.1760  -23.3990  -14.7410 F       1  UNL1       -0.1660
     21  F         24.9500  -25.0240  -13.9770 F       1  UNL1       -0.1660
     22  S         16.9010  -24.0700   -7.5780 S.O2    1  UNL1        0.2630
     23  O         15.7670  -24.8310   -8.0500 O.2     1  UNL1       -0.2000
     24  O         17.9380  -24.7110   -6.7950 O.2     1  UNL1       -0.2000
     25  N         16.3540  -22.7730   -6.6480 N.pl3   1  UNL1       -0.2800
     26  H         15.3390  -22.7290   -6.6000 H       1  UNL1        0.1790
     27  C         17.1110  -22.2940   -5.5380 C.2     1  UNL1        0.0480
     28  C         18.2020  -21.4440   -5.7500 C.2     1  UNL1        0.0300
     29  C         18.9570  -20.9750   -4.6750 C.2     1  UNL1        0.0020
     30  C         18.6200  -21.3430   -3.3780 C.2     1  UNL1        0.0010
     31  C         17.5180  -22.1690   -3.1540 C.2     1  UNL1        0.0090
     32  C         16.7440  -22.6440   -4.2250 C.2     1  UNL1       -0.0350
     33  C         15.5530  -23.5130   -3.9250 C.3     1  UNL1        0.0500
@<TRIPOS>BOND
     1    20    18    1
     2    21    18    1
     3    18    19    1
     4    18    16    1
     5    16    17    1
     6    16    15    2
     7    17    12    2
     8    15    14    1
     9    11    10    1
    10    12    10    1
    11    12    13    1
    12     4     5    2
    13     4     3    1
    14    10     8   am
    15     5     6    1
    16    14    13    2
    17     8     3    1
    18     8     9    2
    19     3     2    2
    20     7     6    1
    21     6     1    2
    22     2     1    1
    23     1    22    1
    24    23    22    2
    25    22    24    2
    26    22    25    1
    27    25    26    1
    28    25    27    1
    29    28    27    2
    30    28    29    1
    31    27    32    1
    32    29    30    2
    33    32    33    1
    34    32    31    2
    35    30    31    1
