@<TRIPOS>MOLECULE
49154_out_ligand_01.pdbqt
 31 34 0 0 0
SMALL
GASTEIGER

@<TRIPOS>ATOM
      1  C         20.6520  -22.6830  -10.3780 C.2     1  UNL1        0.0330
      2  C         19.9700  -21.8020  -11.2570 C.2     1  UNL1        0.0180
      3  C         20.6250  -21.2060  -12.3430 C.2     1  UNL1        0.0190
      4  C         21.9560  -21.5200  -12.5210 C.2     1  UNL1        0.0480
      5  C         22.6220  -22.3880  -11.6720 C.2     1  UNL1        0.0490
      6  C         22.0030  -22.9950  -10.5950 C.2     1  UNL1        0.0350
      7  C         23.9980  -22.5030  -12.1500 C.2     1  UNL1        0.2620
      8  O         24.8500  -23.1790  -11.6090 O.2     1  UNL1       -0.2670
      9  N         24.0910  -21.7090  -13.2580 N.am    1  UNL1       -0.2760
     10  C         22.9090  -21.0840  -13.5420 C.2     1  UNL1        0.2620
     11  O         22.6440  -20.3110  -14.4420 O.2     1  UNL1       -0.2670
     12  C         19.8770  -23.2900   -9.2550 C.2     1  UNL1        0.2560
     13  N         18.7520  -22.5870   -8.8630 N.am    1  UNL1       -0.3230
     14  H         18.4730  -21.8010   -9.4350 H       1  UNL1        0.1690
     15  O         20.2680  -24.3580   -8.8040 O.2     1  UNL1       -0.2670
     16  C         17.8770  -22.9000   -7.7990 C.2     1  UNL1        0.0350
     17  C         16.8290  -23.7860   -8.0820 C.2     1  UNL1        0.0290
     18  C         15.9140  -24.1490   -7.0920 C.2     1  UNL1        0.0030
     19  C         16.0340  -23.6270   -5.8050 C.2     1  UNL1        0.0150
     20  C         17.0720  -22.7380   -5.5070 C.2     1  UNL1        0.0110
     21  C         17.9890  -22.3750   -6.5090 C.2     1  UNL1        0.0440
     22  C         17.2300  -22.1450   -4.1440 C.2     1  UNL1        0.1550
     23  C         18.4610  -21.3290   -3.8440 C.3     1  UNL1        0.0960
     24  O         16.3730  -22.3320   -3.2840 O.2     1  UNL1       -0.2930
     25  C         25.2900  -21.5760  -14.0560 C.3     1  UNL1        0.1750
     26  C         25.0800  -22.0820  -15.4560 C.2     1  UNL1       -0.0220
     27  C         25.0760  -21.2150  -16.5530 C.2     1  UNL1        0.0120
     28  C         24.8540  -21.7200  -17.8310 C.2     1  UNL1        0.0200
     29  C         24.6350  -23.0790  -17.9680 C.2     1  UNL1        0.1160
     30  N         24.6190  -23.9460  -16.9330 N.2     1  UNL1       -0.2730
     31  C         24.8350  -23.4290  -15.7030 C.2     1  UNL1        0.1240
@<TRIPOS>BOND
     1    29    28    2
     2    29    30    1
     3    28    27    1
     4    30    31    2
     5    27    26    2
     6    31    26    1
     7    26    25    1
     8    11    10    2
     9    25     9    1
    10    10     9   am
    11    10     4    1
    12     9     7   am
    13     4     3    2
    14     4     5    1
    15     3     2    1
    16     7     5    1
    17     7     8    2
    18     5     6    2
    19     2     1    2
    20     6     1    1
    21     1    12    1
    22    14    13    1
    23    12    13   am
    24    12    15    2
    25    13    16    1
    26    17    16    2
    27    17    18    1
    28    16    21    1
    29    18    19    2
    30    21    20    2
    31    19    20    1
    32    20    22    1
    33    22    23    1
    34    22    24    2
