@<TRIPOS>MOLECULE
49157_out_ligand_01.pdbqt
 34 37 0 0 0
SMALL
GASTEIGER

@<TRIPOS>ATOM
      1  C         18.1470  -23.7980   -8.3830 C.2     1  UNL1        0.0800
      2  C         19.3630  -24.4000   -8.0470 C.2     1  UNL1        0.0270
      3  C         20.5120  -24.0840   -8.7760 C.2     1  UNL1        0.0310
      4  C         20.4370  -23.1800   -9.8350 C.2     1  UNL1        0.0420
      5  C         19.2150  -22.6020  -10.1860 C.2     1  UNL1        0.0310
      6  C         18.0630  -22.9130   -9.4620 C.2     1  UNL1        0.0270
      7  N         21.5950  -22.8900  -10.6050 N.pl3   1  UNL1       -0.2810
      8  H         21.4800  -22.2780  -11.4130 H       1  UNL1        0.1790
      9  S         23.0160  -22.4910   -9.7730 S.O2    1  UNL1        0.2630
     10  O         23.6250  -23.6960   -9.2560 O.2     1  UNL1       -0.2000
     11  O         22.6620  -21.3980   -8.8900 O.2     1  UNL1       -0.2000
     12  C         24.0430  -21.8270  -11.0580 C.2     1  UNL1        0.0800
     13  C         25.2760  -21.2630  -10.7290 C.2     1  UNL1        0.0260
     14  C         26.0810  -20.7420  -11.7420 C.2     1  UNL1        0.0140
     15  C         25.6660  -20.7840  -13.0840 C.2     1  UNL1       -0.0260
     16  C         26.4640  -20.2570  -14.1120 C.2     1  UNL1        0.0120
     17  C         24.4200  -21.3730  -13.4110 C.2     1  UNL1       -0.0250
     18  C         26.0410  -20.3070  -15.4410 C.2     1  UNL1        0.0010
     19  C         24.8150  -20.8850  -15.7600 C.2     1  UNL1        0.0010
     20  C         24.0100  -21.4150  -14.7520 C.2     1  UNL1        0.0120
     21  C         23.6180  -21.8990  -12.3880 C.2     1  UNL1        0.0370
     22  S         16.6730  -24.2150   -7.4730 S.O2    1  UNL1        0.2630
     23  O         15.6300  -24.4840   -8.4400 O.2     1  UNL1       -0.2000
     24  O         17.0300  -25.1930   -6.4690 O.2     1  UNL1       -0.2000
     25  N         16.2500  -22.7610   -6.7310 N.pl3   1  UNL1       -0.2800
     26  H         15.8010  -22.1120   -7.3720 H       1  UNL1        0.1790
     27  C         17.0500  -22.2320   -5.6750 C.2     1  UNL1        0.0490
     28  C         16.6750  -22.4290   -4.3360 C.2     1  UNL1       -0.0350
     29  C         17.4790  -21.8810   -3.3250 C.2     1  UNL1        0.0090
     30  C         15.4600  -23.2250   -3.9520 C.3     1  UNL1        0.0500
     31  C         18.6260  -21.1470   -3.6380 C.2     1  UNL1        0.0070
     32  C         18.9930  -20.9450   -4.9700 C.2     1  UNL1       -0.0600
     33  C         20.2470  -20.1960   -5.3120 C.3     1  UNL1        0.0480
     34  C         18.2070  -21.5080   -5.9820 C.2     1  UNL1        0.0370
@<TRIPOS>BOND
     1    19    18    2
     2    19    20    1
     3    18    16    1
     4    20    17    2
     5    16    15    2
     6    17    15    1
     7    17    21    1
     8    15    14    1
     9    21    12    2
    10    14    13    2
    11     8     7    1
    12    12    13    1
    13    12     9    1
    14     7     4    1
    15     7     9    1
    16     5     4    2
    17     5     6    1
    18     4     3    1
    19     9    10    2
    20     9    11    2
    21     6     1    2
    22     3     2    2
    23    23    22    2
    24     1     2    1
    25     1    22    1
    26    22    25    1
    27    22    24    2
    28    26    25    1
    29    25    27    1
    30    34    27    2
    31    34    32    1
    32    27    28    1
    33    33    32    1
    34    32    31    2
    35    28    30    1
    36    28    29    2
    37    31    29    1
