@<TRIPOS>MOLECULE
49161_out_ligand_01.pdbqt
 33 36 0 0 0
SMALL
GASTEIGER

@<TRIPOS>ATOM
      1  C         18.9380  -22.9310   -9.6500 C.2     1  UNL1        0.0860
      2  C         19.6560  -22.2960  -10.6780 C.2     1  UNL1        0.0420
      3  C         21.0250  -22.5280  -10.8350 C.2     1  UNL1        0.0330
      4  C         21.6830  -23.3990   -9.9670 C.2     1  UNL1        0.0170
      5  C         20.9640  -24.0520   -8.9620 C.2     1  UNL1        0.0090
      6  C         19.5830  -23.8360   -8.7880 C.2     1  UNL1       -0.0390
      7  C         18.8900  -24.5920   -7.6900 C.3     1  UNL1        0.0500
      8  S         17.1960  -22.5220   -9.5610 S.O2    1  UNL1        0.2630
      9  O         16.9240  -21.6340  -10.6730 O.2     1  UNL1       -0.2000
     10  O         16.4130  -23.7230   -9.3790 O.2     1  UNL1       -0.2000
     11  N         17.0940  -21.5730   -8.1720 N.pl3   1  UNL1       -0.2800
     12  H         17.7190  -20.7710   -8.1980 H       1  UNL1        0.1790
     13  C         16.7780  -22.1550   -6.9090 C.2     1  UNL1        0.0480
     14  C         15.5340  -22.7610   -6.7200 C.2     1  UNL1        0.0310
     15  C         15.2100  -23.3620   -5.5020 C.2     1  UNL1        0.0090
     16  C         16.1250  -23.3530   -4.4470 C.2     1  UNL1       -0.0610
     17  C         15.7960  -24.0350   -3.1530 C.3     1  UNL1        0.0480
     18  C         17.3680  -22.7360   -4.6330 C.2     1  UNL1        0.0150
     19  C         17.7010  -22.1120   -5.8490 C.2     1  UNL1       -0.0340
     20  C         19.0530  -21.4630   -5.9720 C.3     1  UNL1        0.0500
     21  C         21.7510  -21.7850  -11.9010 C.2     1  UNL1        0.2560
     22  O         21.1360  -20.9220  -12.5150 O.2     1  UNL1       -0.2670
     23  N         23.0580  -22.1860  -12.1000 N.am    1  UNL1       -0.3230
     24  H         23.3680  -23.0090  -11.5980 H       1  UNL1        0.1690
     25  C         23.9940  -21.6350  -13.0030 C.2     1  UNL1        0.0370
     26  C         25.2450  -21.1210  -12.6130 C.2     1  UNL1        0.0320
     27  C         26.1350  -20.5950  -13.5590 C.2     1  UNL1        0.0420
     28  C         25.7490  -20.5970  -14.8790 C.2     1  UNL1        0.1050
     29  C         24.5330  -21.1000  -15.2680 C.2     1  UNL1        0.1070
     30  O         26.4780  -20.1310  -15.9260 O.2     1  UNL1       -0.3230
     31  C         23.6370  -21.6280  -14.3600 C.2     1  UNL1        0.0690
     32  O         24.3400  -21.0120  -16.6110 O.2     1  UNL1       -0.3230
     33  C         25.5760  -20.3890  -17.0210 C.3     1  UNL1        0.3520
@<TRIPOS>BOND
     1    33    32    1
     2    33    30    1
     3    32    29    1
     4    30    28    1
     5    29    28    2
     6    29    31    1
     7    28    27    1
     8    31    25    2
     9    27    26    2
    10    25    26    1
    11    25    23    1
    12    22    21    2
    13    23    21   am
    14    23    24    1
    15    21     3    1
    16     3     2    1
    17     3     4    2
    18     2     1    2
    19     9     8    2
    20     4     5    1
    21     1     8    1
    22     1     6    1
    23     8    10    2
    24     8    11    1
    25     5     6    2
    26     6     7    1
    27    12    11    1
    28    11    13    1
    29    13    14    2
    30    13    19    1
    31    14    15    1
    32    20    19    1
    33    19    18    2
    34    15    16    2
    35    18    16    1
    36    16    17    1
