@<TRIPOS>MOLECULE
49174_out_ligand_01.pdbqt
 31 36 0 0 0
SMALL
GASTEIGER

@<TRIPOS>ATOM
      1  N         20.2950  -23.7340   -9.4560 N.ar    1  UNL1       -0.1730
      2  C         19.7890  -22.7300  -10.2920 C.ar    1  UNL1        0.0800
      3  C         18.5000  -22.3490  -10.5870 C.2     1  UNL1        0.0320
      4  C         18.3160  -21.2920  -11.4940 C.2     1  UNL1        0.0020
      5  C         19.4120  -20.6350  -12.0960 C.2     1  UNL1        0.0020
      6  C         20.7250  -21.0090  -11.8060 C.2     1  UNL1        0.0330
      7  C         20.8670  -22.0440  -10.9130 C.ar    1  UNL1        0.0870
      8  N         22.0000  -22.6310  -10.3690 N.ar    1  UNL1       -0.1170
      9  C         23.3500  -22.5560  -10.3460 C.ar    1  UNL1        0.2110
     10  N         23.8060  -23.4300   -9.4640 N.ar    1  UNL1       -0.1070
     11  N         22.7180  -24.1010   -8.9030 N.ar    1  UNL1        0.0450
     12  C         21.6500  -23.6120   -9.4780 C.ar    1  UNL1        0.7350
     13  S         24.2890  -21.4730  -11.3000 S.3     1  UNL1       -0.0820
     14  C         25.3370  -22.6430  -12.2170 C.3     1  UNL1        0.1610
     15  C         25.2020  -22.5290  -13.6970 C.ar    1  UNL1        0.1150
     16  N         24.8700  -23.4990  -14.5270 N.ar    1  UNL1       -0.2330
     17  C         24.8170  -22.9210  -15.7730 C.ar    1  UNL1        0.0850
     18  C         24.5010  -23.4920  -17.0150 C.2     1  UNL1        0.0340
     19  C         25.1220  -21.5670  -15.7060 C.ar    1  UNL1        0.0620
     20  C         24.5170  -22.6770  -18.1530 C.2     1  UNL1        0.0020
     21  C         24.8430  -21.3220  -18.0570 C.2     1  UNL1        0.0020
     22  C         25.1510  -20.7330  -16.8240 C.2     1  UNL1        0.0320
     23  N         25.3530  -21.3390  -14.3740 N.ar    1  UNL1       -0.3420
     24  H         25.6070  -20.4520  -13.9510 H       1  UNL1        0.1670
     25  C         19.5930  -24.3690   -8.3560 C.3     1  UNL1        0.1860
     26  C         19.1810  -23.3910   -7.2730 C.2     1  UNL1       -0.0390
     27  C         19.8810  -22.1910   -7.0720 C.2     1  UNL1        0.0090
     28  C         19.4870  -21.2940   -6.0760 C.2     1  UNL1        0.0010
     29  C         18.3820  -21.5800   -5.2800 C.2     1  UNL1        0.0000
     30  C         17.6600  -22.7530   -5.4870 C.2     1  UNL1        0.0010
     31  C         18.0540  -23.6540   -6.4790 C.2     1  UNL1        0.0090
@<TRIPOS>BOND
     1    20    21    2
     2    20    18    1
     3    21    22    1
     4    18    17    2
     5    22    19    2
     6    17    19   ar
     7    17    16   ar
     8    19    23   ar
     9    16    15   ar
    10    23    24    1
    11    23    15   ar
    12    15    14    1
    13    14    13    1
    14     5     6    2
    15     5     4    1
    16     6     7    1
    17     4     3    2
    18    13     9    1
    19     7     8   ar
    20     7     2   ar
    21     3     2    1
    22     8     9   ar
    23     8    12   ar
    24     9    10   ar
    25     2     1   ar
    26    12     1   ar
    27    12    11   ar
    28    10    11   ar
    29     1    25    1
    30    25    26    1
    31    26    27    2
    32    26    31    1
    33    27    28    1
    34    31    30    2
    35    28    29    2
    36    30    29    1
