@<TRIPOS>MOLECULE
49172_out_ligand_01.pdbqt
 33 36 0 0 0
SMALL
GASTEIGER

@<TRIPOS>ATOM
      1  C         17.5830  -22.9610   -9.1040 C.2     1  UNL1        0.1020
      2  C         18.9790  -22.9670   -9.2900 C.2     1  UNL1        0.0440
      3  C         19.5630  -22.2660  -10.3490 C.2     1  UNL1        0.0340
      4  C         18.7530  -21.5580  -11.2380 C.2     1  UNL1        0.0190
      5  C         17.3650  -21.5680  -11.0660 C.2     1  UNL1        0.0260
      6  C         16.7690  -22.2680  -10.0020 C.2     1  UNL1        0.0570
      7 CL         15.0520  -22.1570   -9.9200 Cl      1  UNL1       -0.0830
      8  C         21.0470  -22.2460  -10.4570 C.2     1  UNL1        0.2560
      9  O         21.6870  -22.1910   -9.4150 O.2     1  UNL1       -0.2670
     10  N         21.5380  -22.3180  -11.7470 N.am    1  UNL1       -0.3230
     11  H         20.8700  -22.4940  -12.4870 H       1  UNL1        0.1690
     12  C         22.8900  -22.2660  -12.1480 C.2     1  UNL1        0.0370
     13  C         23.9200  -22.9670  -11.5150 C.2     1  UNL1        0.0320
     14  C         25.2420  -22.8510  -11.9640 C.2     1  UNL1        0.0420
     15  C         25.5410  -22.0280  -13.0450 C.2     1  UNL1        0.1020
     16  C         24.5140  -21.3430  -13.6990 C.2     1  UNL1        0.1040
     17  O         26.8580  -21.9460  -13.4150 O.2     1  UNL1       -0.3460
     18  C         23.2000  -21.4470  -13.2430 C.2     1  UNL1        0.0690
     19  O         24.7240  -20.5410  -14.7940 O.2     1  UNL1       -0.3460
     20  C         26.0120  -20.7850  -15.3760 C.3     1  UNL1        0.2020
     21  C         27.0830  -20.8400  -14.2980 C.3     1  UNL1        0.2020
     22  S         16.9790  -23.8850   -7.7100 S.O2    1  UNL1        0.2650
     23  O         18.1480  -24.4020   -7.0250 O.2     1  UNL1       -0.2000
     24  O         15.9220  -24.7880   -8.1050 O.2     1  UNL1       -0.2000
     25  N         16.3550  -22.6940   -6.6910 N.pl3   1  UNL1       -0.2800
     26  H         15.3370  -22.7070   -6.6480 H       1  UNL1        0.1790
     27  C         17.0820  -22.2590   -5.5450 C.2     1  UNL1        0.0480
     28  C         18.1850  -21.4140   -5.7010 C.2     1  UNL1        0.0300
     29  C         18.9190  -21.0010   -4.5900 C.2     1  UNL1        0.0020
     30  C         18.5490  -21.4210   -3.3170 C.2     1  UNL1        0.0010
     31  C         17.4370  -22.2470   -3.1530 C.2     1  UNL1        0.0090
     32  C         16.6890  -22.6760   -4.2610 C.2     1  UNL1       -0.0350
     33  C         15.4840  -23.5450   -4.0320 C.3     1  UNL1        0.0500
@<TRIPOS>BOND
     1    20    19    1
     2    20    21    1
     3    19    16    1
     4    21    17    1
     5    16    18    1
     6    16    15    2
     7    17    15    1
     8    18    12    2
     9    15    14    1
    10    11    10    1
    11    12    10    1
    12    12    13    1
    13    14    13    2
    14    10     8   am
    15     4     5    2
    16     4     3    1
    17     5     6    1
    18     8     3    1
    19     8     9    2
    20     3     2    2
    21     6     7    1
    22     6     1    2
    23     2     1    1
    24     1    22    1
    25    24    22    2
    26    22    23    2
    27    22    25    1
    28    25    26    1
    29    25    27    1
    30    28    27    2
    31    28    29    1
    32    27    32    1
    33    29    30    2
    34    32    33    1
    35    32    31    2
    36    30    31    1
