@<TRIPOS>MOLECULE
49184_out_ligand_01.pdbqt
 31 33 0 0 0
SMALL
GASTEIGER

@<TRIPOS>ATOM
      1  C         17.6440  -23.6220   -8.5180 C.2     1  UNL1        0.0810
      2  C         19.0240  -23.8720   -8.4590 C.2     1  UNL1        0.0420
      3  C         19.8800  -23.3210   -9.4180 C.2     1  UNL1        0.0330
      4  C         19.3550  -22.5290  -10.4420 C.2     1  UNL1        0.0170
      5  C         17.9800  -22.2800  -10.4980 C.2     1  UNL1        0.0090
      6  C         17.1030  -22.8240   -9.5450 C.2     1  UNL1       -0.0390
      7  C         15.6380  -22.5010   -9.6580 C.3     1  UNL1        0.0500
      8  S         16.6200  -24.3390   -7.2350 S.O2    1  UNL1        0.2460
      9  O         15.5020  -24.9940   -7.8800 O.2     1  UNL1       -0.2060
     10  O         17.4880  -25.0530   -6.3250 O.2     1  UNL1       -0.2060
     11  N         16.0150  -22.9220   -6.5020 N.pl3   1  UNL1       -0.1810
     12  H         15.0710  -23.1130   -6.1630 H       1  UNL1        0.1460
     13  C         16.8590  -22.3740   -5.4750 C.2     1  UNL1        0.0290
     14  C         16.6260  -22.6380   -4.1150 C.2     1  UNL1       -0.0400
     15  C         17.5100  -22.0990   -3.1670 C.2     1  UNL1        0.0090
     16  C         15.4820  -23.4880   -3.6430 C.3     1  UNL1        0.0500
     17  C         18.5990  -21.3180   -3.5600 C.2     1  UNL1        0.0070
     18  C         18.8260  -21.0520   -4.9120 C.2     1  UNL1       -0.0600
     19  C         20.0150  -20.2510   -5.3510 C.3     1  UNL1        0.0480
     20  C         17.9540  -21.5930   -5.8650 C.2     1  UNL1        0.0310
     21  C         21.3320  -23.6260   -9.3320 C.2     1  UNL1        0.2510
     22  O         21.7090  -24.6870   -8.8440 O.2     1  UNL1       -0.2680
     23  N         22.1880  -22.6530   -9.7950 N.am    1  UNL1       -0.3530
     24  H         21.8360  -21.7180   -9.9460 H       1  UNL1        0.1630
     25  C         23.6150  -22.8020   -9.6310 C.3     1  UNL1        0.1610
     26  C         24.3380  -22.3530  -10.8710 C.2     1  UNL1       -0.0410
     27  C         25.2490  -21.2880  -10.8220 C.2     1  UNL1        0.0090
     28  C         25.8960  -20.8580  -11.9820 C.2     1  UNL1        0.0010
     29  C         25.6360  -21.4840  -13.2000 C.2     1  UNL1        0.0000
     30  C         24.7270  -22.5380  -13.2620 C.2     1  UNL1        0.0010
     31  C         24.0770  -22.9680  -12.1040 C.2     1  UNL1        0.0090
@<TRIPOS>BOND
     1    30    29    2
     2    30    31    1
     3    29    28    1
     4    31    26    2
     5    28    27    2
     6    26    27    1
     7    26    25    1
     8     5     4    2
     9     5     6    1
    10     4     3    1
    11    24    23    1
    12    23    25    1
    13    23    21   am
    14     7     6    1
    15     6     1    2
    16     3    21    1
    17     3     2    2
    18    21    22    2
    19     1     2    1
    20     1     8    1
    21     9     8    2
    22     8    11    1
    23     8    10    2
    24    11    12    1
    25    11    13    1
    26    20    13    2
    27    20    18    1
    28    13    14    1
    29    19    18    1
    30    18    17    2
    31    14    16    1
    32    14    15    2
    33    17    15    1
