@<TRIPOS>MOLECULE
49194_out_ligand_01.pdbqt
 33 35 0 0 0
SMALL
GASTEIGER

@<TRIPOS>ATOM
      1  C         18.6880  -22.9090  -10.4250 C.2     1  UNL1        0.0750
      2  C         19.3500  -23.8510   -9.6300 C.2     1  UNL1        0.0390
      3  C         20.7330  -23.7730   -9.4450 C.2     1  UNL1        0.0280
      4  C         21.4570  -22.7520  -10.0620 C.2     1  UNL1        0.0800
      5  C         20.8060  -21.7910  -10.8380 C.2     1  UNL1        0.0340
      6  C         19.4190  -21.8680  -11.0320 C.2     1  UNL1       -0.0270
      7  C         18.7300  -20.8290  -11.8740 C.3     1  UNL1        0.0510
      8  O         17.3350  -22.8770  -10.6460 O.2     1  UNL1       -0.3420
      9  C         16.5050  -22.2080   -9.7040 C.3     1  UNL1        0.2780
     10  C         16.3190  -22.9330   -8.3640 C.2     1  UNL1        0.2460
     11  N         16.5620  -22.1100   -7.2790 N.am    1  UNL1       -0.3250
     12  H         16.9050  -21.1890   -7.5260 H       1  UNL1        0.1690
     13  O         15.9710  -24.1100   -8.3400 O.2     1  UNL1       -0.2710
     14  C         16.4750  -22.4120   -5.9030 C.2     1  UNL1        0.0410
     15  C         15.3000  -22.9100   -5.3250 C.2     1  UNL1        0.0300
     16  C         15.2370  -23.2080   -3.9620 C.2     1  UNL1        0.0020
     17  C         16.3480  -23.0150   -3.1530 C.2     1  UNL1        0.0010
     18  C         17.5250  -22.5190   -3.7080 C.2     1  UNL1        0.0090
     19  C         17.6070  -22.2040   -5.0790 C.2     1  UNL1       -0.0320
     20  C         18.9330  -21.6900   -5.5980 C.3     1  UNL1        0.0360
     21  C         19.2350  -20.2850   -5.0980 C.3     1  UNL1        0.0100
     22  S         23.2160  -22.6430   -9.8110 S.O2    1  UNL1        0.2630
     23  O         23.5780  -23.6550   -8.8400 O.2     1  UNL1       -0.2000
     24  O         23.5530  -21.2510   -9.6030 O.2     1  UNL1       -0.2000
     25  N         23.8450  -23.1670  -11.2880 N.pl3   1  UNL1       -0.2810
     26  H         23.3560  -23.9870  -11.6420 H       1  UNL1        0.1790
     27  C         24.3030  -22.2060  -12.2310 C.2     1  UNL1        0.0420
     28  C         25.6440  -21.8230  -12.2090 C.2     1  UNL1        0.0300
     29  C         26.1230  -20.9100  -13.1520 C.2     1  UNL1        0.0090
     30  C         25.2690  -20.3810  -14.1270 C.2     1  UNL1       -0.0620
     31  C         25.7740  -19.3750  -15.1180 C.3     1  UNL1        0.0480
     32  C         23.9200  -20.7590  -14.1270 C.2     1  UNL1        0.0090
     33  C         23.4400  -21.6720  -13.1850 C.2     1  UNL1        0.0300
@<TRIPOS>BOND
     1    31    30    1
     2    32    30    2
     3    32    33    1
     4    30    29    1
     5    33    27    2
     6    29    28    2
     7    27    28    1
     8    27    25    1
     9     7     6    1
    10    26    25    1
    11    25    22    1
    12     6     5    1
    13     6     1    2
    14     5     4    2
    15     8     1    1
    16     8     9    1
    17     1     2    1
    18     4    22    1
    19     4     3    1
    20    22    24    2
    21    22    23    2
    22     9    10    1
    23     2     3    2
    24    10    13    2
    25    10    11   am
    26    12    11    1
    27    11    14    1
    28    14    15    2
    29    14    19    1
    30    20    21    1
    31    20    19    1
    32    15    16    1
    33    19    18    2
    34    16    17    2
    35    18    17    1
