@<TRIPOS>MOLECULE
49198_out_ligand_01.pdbqt
 30 32 0 0 0
SMALL
GASTEIGER

@<TRIPOS>ATOM
      1  C         18.4690  -22.2760  -10.1260 C.2     1  UNL1        0.0860
      2  C         19.7600  -22.8030   -9.9740 C.2     1  UNL1        0.0420
      3  C         20.7900  -22.3930  -10.8260 C.2     1  UNL1        0.0330
      4  C         20.5350  -21.4450  -11.8210 C.2     1  UNL1        0.0170
      5  C         19.2490  -20.9220  -11.9710 C.2     1  UNL1        0.0090
      6  C         18.1970  -21.3220  -11.1270 C.2     1  UNL1       -0.0390
      7  C         16.8370  -20.7220  -11.3550 C.3     1  UNL1        0.0500
      8  S         17.2020  -22.8840   -9.0220 S.O2    1  UNL1        0.2630
      9  O         16.4880  -21.7400   -8.4950 O.2     1  UNL1       -0.2000
     10  O         16.4780  -23.9510   -9.6790 O.2     1  UNL1       -0.2000
     11  N         18.0970  -23.5230   -7.7350 N.pl3   1  UNL1       -0.2810
     12  H         18.9690  -23.9220   -8.0770 H       1  UNL1        0.1790
     13  C         18.1640  -22.7600   -6.5360 C.2     1  UNL1        0.0430
     14  C         19.1400  -21.7750   -6.3990 C.2     1  UNL1        0.0300
     15  C         19.2320  -21.0540   -5.2080 C.2     1  UNL1        0.0030
     16  C         18.3560  -21.3270   -4.1560 C.2     1  UNL1        0.0070
     17  C         17.3890  -22.3320   -4.2800 C.2     1  UNL1       -0.0600
     18  C         16.4390  -22.6160   -3.1530 C.3     1  UNL1        0.0480
     19  C         17.2920  -23.0420   -5.4840 C.2     1  UNL1        0.0370
     20  C         22.1530  -22.9540  -10.6250 C.2     1  UNL1        0.2560
     21  O         22.3600  -23.6160   -9.6170 O.2     1  UNL1       -0.2670
     22  N         23.0450  -22.6730  -11.6430 N.am    1  UNL1       -0.3230
     23  H         22.6730  -22.2110  -12.4620 H       1  UNL1        0.1690
     24  C         24.4070  -23.0390  -11.7120 C.2     1  UNL1        0.0360
     25  C         25.3200  -22.8410  -10.6730 C.2     1  UNL1        0.0290
     26  C         26.6580  -23.2260  -10.8180 C.2     1  UNL1        0.0040
     27  C         27.0950  -23.8090  -12.0050 C.2     1  UNL1        0.0190
     28  C         26.1890  -24.0040  -13.0430 C.2     1  UNL1        0.0130
     29 BR         26.7740  -24.7940  -14.6600 Br      1  UNL1       -0.0510
     30  C         24.8530  -23.6240  -12.9040 C.2     1  UNL1        0.0480
@<TRIPOS>BOND
     1    29    28    1
     2    28    30    1
     3    28    27    2
     4    30    24    2
     5    23    22    1
     6    27    26    1
     7     5     4    2
     8     5     6    1
     9     4     3    1
    10    24    22    1
    11    24    25    1
    12    22    20   am
    13     7     6    1
    14     6     1    2
    15     3    20    1
    16     3     2    2
    17    26    25    2
    18    20    21    2
    19     1     2    1
    20     1     8    1
    21    10     8    2
    22     8     9    2
    23     8    11    1
    24    12    11    1
    25    11    13    1
    26    13    14    2
    27    13    19    1
    28    14    15    1
    29    19    17    2
    30    15    16    2
    31    17    16    1
    32    17    18    1
