@<TRIPOS>MOLECULE
49200_out_ligand_01.pdbqt
 30 32 0 0 0
SMALL
GASTEIGER

@<TRIPOS>ATOM
      1  C         18.5220  -22.7350   -9.6610 C.2     1  UNL1        0.0860
      2  C         19.8040  -22.6340  -10.2310 C.2     1  UNL1        0.0420
      3  C         20.0060  -21.8870  -11.3940 C.2     1  UNL1        0.0330
      4  C         18.9260  -21.2390  -11.9950 C.2     1  UNL1        0.0170
      5  C         17.6480  -21.3580  -11.4420 C.2     1  UNL1        0.0090
      6  C         17.4200  -22.1080  -10.2720 C.2     1  UNL1       -0.0390
      7  C         16.0140  -22.1810   -9.7470 C.3     1  UNL1        0.0500
      8  S         18.4220  -23.6900   -8.1480 S.O2    1  UNL1        0.2630
      9  O         17.1890  -24.4410   -8.1100 O.2     1  UNL1       -0.2000
     10  O         19.6990  -24.3580   -7.9960 O.2     1  UNL1       -0.2000
     11  N         18.3720  -22.4940   -6.9520 N.pl3   1  UNL1       -0.2810
     12  H         18.6630  -21.5850   -7.3070 H       1  UNL1        0.1790
     13  C         17.3300  -22.5250   -5.9830 C.2     1  UNL1        0.0430
     14  C         17.6250  -22.9540   -4.6890 C.2     1  UNL1        0.0300
     15  C         16.6300  -22.9480   -3.7110 C.2     1  UNL1        0.0030
     16  C         15.3410  -22.5210   -4.0290 C.2     1  UNL1        0.0070
     17  C         15.0300  -22.1090   -5.3310 C.2     1  UNL1       -0.0600
     18  C         13.6530  -21.6200   -5.6690 C.3     1  UNL1        0.0480
     19  C         16.0400  -22.1040   -6.3030 C.2     1  UNL1        0.0370
     20  C         21.3930  -21.7670  -11.9220 C.2     1  UNL1        0.2560
     21  O         21.5780  -21.0290  -12.8830 O.2     1  UNL1       -0.2670
     22  N         22.3430  -22.4980  -11.2400 N.am    1  UNL1       -0.3200
     23  H         22.0610  -22.9790  -10.3920 H       1  UNL1        0.1690
     24  C         23.7220  -22.5980  -11.5300 C.2     1  UNL1        0.0730
     25  C         24.2570  -23.3620  -12.5670 C.2     1  UNL1        0.0330
     26  C         25.6420  -23.3990  -12.7730 C.2     1  UNL1        0.0020
     27  C         26.5020  -22.6760  -11.9440 C.2     1  UNL1        0.0030
     28  C         25.9790  -21.9130  -10.9040 C.2     1  UNL1        0.0440
     29  C         24.6010  -21.8820  -10.7060 C.2     1  UNL1        0.1430
     30  F         24.1060  -21.1460   -9.6980 F       1  UNL1       -0.2040
@<TRIPOS>BOND
     1    21    20    2
     2    26    25    1
     3    26    27    2
     4    25    24    2
     5     4     5    2
     6     4     3    1
     7    27    28    1
     8    20     3    1
     9    20    22   am
    10    24    22    1
    11    24    29    1
    12     5     6    1
    13     3     2    2
    14    22    23    1
    15    28    29    2
    16    29    30    1
    17     6     7    1
    18     6     1    2
    19     2     1    1
    20     1     8    1
    21     8     9    2
    22     8    10    2
    23     8    11    1
    24    12    11    1
    25    11    13    1
    26    19    13    2
    27    19    17    1
    28    13    14    1
    29    18    17    1
    30    17    16    2
    31    14    15    2
    32    16    15    1
