@<TRIPOS>MOLECULE
49213_out_ligand_01.pdbqt
 33 36 0 0 0
SMALL
GASTEIGER

@<TRIPOS>ATOM
      1  C         21.8070  -22.4080  -10.8360 C.2     1  UNL1        0.0860
      2  C         20.4210  -22.3560  -10.6030 C.2     1  UNL1        0.0420
      3  C         19.5720  -21.7030  -11.5000 C.2     1  UNL1        0.0330
      4  C         20.1100  -21.1030  -12.6400 C.2     1  UNL1        0.0170
      5  C         21.4840  -21.1800  -12.8870 C.2     1  UNL1        0.0090
      6  C         22.3560  -21.8350  -11.9970 C.2     1  UNL1       -0.0390
      7  C         23.8190  -21.8640  -12.3390 C.3     1  UNL1        0.0500
      8  C         18.1250  -21.6270  -11.1650 C.2     1  UNL1        0.2510
      9  O         17.4180  -20.8010  -11.7310 O.2     1  UNL1       -0.2680
     10  N         17.6700  -22.4980  -10.2030 N.am    1  UNL1       -0.3530
     11  H         18.3310  -23.0320   -9.6570 H       1  UNL1        0.1630
     12  C         16.3070  -22.4580   -9.7180 C.3     1  UNL1        0.1610
     13  C         16.2470  -22.9410   -8.2910 C.2     1  UNL1       -0.0380
     14  C         16.8270  -24.1820   -7.9420 C.2     1  UNL1        0.0120
     15  C         16.7630  -24.6660   -6.6320 C.2     1  UNL1        0.0400
     16  C         16.1130  -23.8910   -5.6960 C.2     1  UNL1        0.1050
     17  C         15.5440  -22.6830   -6.0260 C.2     1  UNL1        0.1050
     18  O         15.9500  -24.2000   -4.3820 O.2     1  UNL1       -0.3230
     19  C         15.5870  -22.1830   -7.3090 C.2     1  UNL1        0.0480
     20  O         14.9510  -22.0810   -4.9600 O.2     1  UNL1       -0.3230
     21  C         15.2470  -23.0300   -3.9140 C.3     1  UNL1        0.3520
     22  S         22.7740  -23.2190   -9.5640 S.O2    1  UNL1        0.2630
     23  O         21.9380  -24.2620   -9.0080 O.2     1  UNL1       -0.2000
     24  O         24.0990  -23.5180  -10.0560 O.2     1  UNL1       -0.2000
     25  N         22.8970  -22.0280   -8.3670 N.pl3   1  UNL1       -0.2810
     26  H         23.8160  -22.0190   -7.9280 H       1  UNL1        0.1790
     27  C         21.7680  -21.7460   -7.5490 C.2     1  UNL1        0.0420
     28  C         20.6280  -22.5450   -7.5930 C.2     1  UNL1        0.0300
     29  C         19.5510  -22.2700   -6.7490 C.2     1  UNL1        0.0090
     30  C         19.6000  -21.1870   -5.8620 C.2     1  UNL1       -0.0620
     31  C         18.4550  -20.9180   -4.9320 C.3     1  UNL1        0.0480
     32  C         20.7530  -20.3950   -5.8190 C.2     1  UNL1        0.0090
     33  C         21.8300  -20.6680   -6.6650 C.2     1  UNL1        0.0300
@<TRIPOS>BOND
     1     5     4    2
     2     5     6    1
     3     4     3    1
     4     7     6    1
     5     6     1    2
     6     9     8    2
     7     3     8    1
     8     3     2    2
     9     8    10   am
    10     1     2    1
    11     1    22    1
    12    10    12    1
    13    10    11    1
    14    24    22    2
    15    12    13    1
    16    22    23    2
    17    22    25    1
    18    25    26    1
    19    25    27    1
    20    13    14    2
    21    13    19    1
    22    14    15    1
    23    28    27    2
    24    28    29    1
    25    27    33    1
    26    19    17    2
    27    29    30    2
    28    33    32    2
    29    15    16    2
    30    17    16    1
    31    17    20    1
    32    30    32    1
    33    30    31    1
    34    16    18    1
    35    20    21    1
    36    18    21    1
