@<TRIPOS>MOLECULE
49229_out_ligand_01.pdbqt
 31 34 0 0 0
SMALL
GASTEIGER

@<TRIPOS>ATOM
      1  C         19.8900  -22.0200  -10.5120 C.2     1  UNL1        0.0330
      2  C         19.5990  -21.4240  -11.7640 C.2     1  UNL1        0.0180
      3  C         20.6090  -21.2200  -12.7130 C.2     1  UNL1        0.0190
      4  C         21.8840  -21.6320  -12.3760 C.2     1  UNL1        0.0480
      5  C         22.1670  -22.2270  -11.1610 C.2     1  UNL1        0.0490
      6  C         21.1930  -22.4430  -10.2060 C.2     1  UNL1        0.0350
      7  C         23.5950  -22.5380  -11.1460 C.2     1  UNL1        0.2620
      8  O         24.1690  -23.0720  -10.2160 O.2     1  UNL1       -0.2670
      9  N         24.0970  -22.1110  -12.3430 N.am    1  UNL1       -0.2740
     10  C         23.1300  -21.5670  -13.1400 C.2     1  UNL1        0.2620
     11  O         23.2070  -21.1180  -14.2670 O.2     1  UNL1       -0.2670
     12  C         18.8220  -22.2540   -9.5000 C.2     1  UNL1        0.2560
     13  N         19.2730  -22.4370   -8.2060 N.am    1  UNL1       -0.3230
     14  H         20.2730  -22.5020   -8.0690 H       1  UNL1        0.1690
     15  O         17.6630  -22.2960   -9.8930 O.2     1  UNL1       -0.2670
     16  C         18.4890  -22.6370   -7.0500 C.2     1  UNL1        0.0350
     17  C         18.4820  -21.7740   -5.9520 C.2     1  UNL1        0.0300
     18  C         17.6790  -22.0450   -4.8370 C.2     1  UNL1        0.0200
     19  C         16.8720  -23.1860   -4.8090 C.2     1  UNL1        0.0370
     20  C         16.8770  -24.0550   -5.9040 C.2     1  UNL1        0.0200
     21  C         17.6810  -23.7810   -7.0160 C.2     1  UNL1        0.0300
     22  C         16.0050  -23.5150   -3.6520 C.2     1  UNL1        0.1760
     23  O         15.8540  -24.6220   -3.1700 O.2     1  UNL1       -0.6460
     24  O         15.3690  -22.4410   -3.1530 O.3     1  UNL1       -0.7730
     25  H         16.0460  -21.7330   -3.1740 H       1  UNL1        0.1670
     26  C         25.4920  -22.2040  -12.7100 C.3     1  UNL1        0.2000
     27  C         26.1490  -20.8920  -12.4720 C.2     1  UNL1        0.0700
     28  C         26.4590  -20.1820  -11.3290 C.2     1  UNL1        0.0360
     29  C         27.0810  -18.9850  -11.7580 C.2     1  UNL1        0.0270
     30  C         27.1110  -19.0400  -13.1320 C.2     1  UNL1        0.1420
     31  O         26.5480  -20.1940  -13.5740 O.2     1  UNL1       -0.3250
@<TRIPOS>BOND
     1    11    10    2
     2    31    30    1
     3    31    27    1
     4    10     4    1
     5    10     9   am
     6    30    29    2
     7     3     4    2
     8     3     2    1
     9    26    27    1
    10    26     9    1
    11    27    28    2
    12     4     5    1
    13     9     7   am
    14     2     1    2
    15    29    28    1
    16     5     7    1
    17     5     6    2
    18     7     8    2
    19     1     6    1
    20     1    12    1
    21    15    12    2
    22    12    13   am
    23    13    14    1
    24    13    16    1
    25    16    21    2
    26    16    17    1
    27    21    20    1
    28    17    18    2
    29    20    19    2
    30    18    19    1
    31    19    22    1
    32    22    23    2
    33    22    24    1
    34    25    24    1
