@<TRIPOS>MOLECULE
49226_out_ligand_01.pdbqt
 30 34 0 0 0
SMALL
GASTEIGER

@<TRIPOS>ATOM
      1  C         22.9880  -21.8300  -13.0710 C.2     1  UNL1        0.0350
      2  C         23.7660  -22.5750  -12.1730 C.2     1  UNL1        0.0310
      3  C         23.2820  -22.8940  -10.9010 C.2     1  UNL1        0.0270
      4  C         22.0060  -22.4700  -10.5250 C.2     1  UNL1        0.0790
      5  C         21.2300  -21.7070  -11.3980 C.2     1  UNL1        0.0270
      6  C         21.7210  -21.3960  -12.6720 C.2     1  UNL1        0.0310
      7  S         21.4050  -22.8660   -8.9050 S.O2    1  UNL1        0.2590
      8  O         22.0630  -22.0160   -7.9400 O.2     1  UNL1       -0.2010
      9  O         21.4480  -24.3080   -8.7830 O.2     1  UNL1       -0.2010
     10  N         19.7850  -22.4760   -8.9720 N.3     1  UNL1       -0.3050
     11  H         19.5630  -21.8050   -9.7060 H       1  UNL1        0.1730
     12  C         18.7180  -22.8700   -8.0390 C.3     1  UNL1        0.0410
     13  C         18.8040  -22.0210   -6.7520 C.3     1  UNL1        0.0360
     14  C         17.6230  -22.3380   -5.8170 C.3     1  UNL1       -0.0120
     15  C         17.6510  -23.8330   -5.4580 C.3     1  UNL1        0.0090
     16  C         16.3030  -22.0150   -6.5370 C.3     1  UNL1        0.0090
     17  C         17.5310  -24.6860   -6.7330 C.3     1  UNL1       -0.0120
     18  C         16.2120  -24.3510   -7.4460 C.3     1  UNL1        0.0090
     19  C         18.7120  -24.3650   -7.6690 C.3     1  UNL1        0.0360
     20  C         16.1830  -22.8590   -7.8160 C.3     1  UNL1       -0.0120
     21  C         17.3700  -22.5460   -8.7400 C.3     1  UNL1        0.0360
     22  N         23.5510  -21.5600  -14.3310 N.am    1  UNL1       -0.3210
     23  C         24.5720  -20.6800  -14.6480 C.2     1  UNL1        0.2790
     24  O         25.1660  -19.9600  -13.8520 O.2     1  UNL1       -0.2650
     25  H         23.1730  -22.0640  -15.1260 H       1  UNL1        0.1690
     26  C         24.8860  -20.6830  -16.0660 C.2     1  UNL1        0.1420
     27  C         25.7090  -19.8650  -16.8190 C.2     1  UNL1        0.0450
     28  C         25.6360  -20.3290  -18.1530 C.2     1  UNL1        0.0270
     29  C         24.7760  -21.4010  -18.1400 C.2     1  UNL1        0.1430
     30  O         24.3140  -21.6270  -16.8830 O.2     1  UNL1       -0.3170
@<TRIPOS>BOND
     1    28    29    2
     2    28    27    1
     3    29    30    1
     4    30    26    1
     5    27    26    2
     6    26    23    1
     7    25    22    1
     8    23    22   am
     9    23    24    2
    10    22     1    1
    11     1     6    2
    12     1     2    1
    13     6     5    1
    14     2     3    2
    15     5     4    2
    16     3     4    1
    17     4     7    1
    18    11    10    1
    19    10     7    1
    20    10    12    1
    21     7     9    2
    22     7     8    2
    23    21    12    1
    24    21    20    1
    25    12    19    1
    26    12    13    1
    27    20    18    1
    28    20    16    1
    29    19    17    1
    30    18    17    1
    31    13    14    1
    32    17    15    1
    33    16    14    1
    34    14    15    1
