@<TRIPOS>MOLECULE
49245_out_ligand_01.pdbqt
 31 33 0 0 0
SMALL
GASTEIGER

@<TRIPOS>ATOM
      1  C         18.5180  -22.3190  -10.1840 C.2     1  UNL1        0.0810
      2  C         19.8330  -22.7920  -10.0620 C.2     1  UNL1        0.0420
      3  C         20.8460  -22.2790  -10.8800 C.2     1  UNL1        0.0330
      4  C         20.5370  -21.2980  -11.8260 C.2     1  UNL1        0.0170
      5  C         19.2270  -20.8220  -11.9400 C.2     1  UNL1        0.0090
      6  C         18.1970  -21.3260  -11.1290 C.2     1  UNL1       -0.0390
      7  C         16.8130  -20.7610  -11.2980 C.3     1  UNL1        0.0500
      8  S         17.2840  -23.0160   -9.0890 S.O2    1  UNL1        0.2460
      9  O         16.6310  -21.9210   -8.4030 O.2     1  UNL1       -0.2060
     10  O         16.5310  -23.9950   -9.8410 O.2     1  UNL1       -0.2060
     11  N         18.2870  -23.7830   -7.9400 N.pl3   1  UNL1       -0.1810
     12  H         19.2300  -23.8340   -8.3310 H       1  UNL1        0.1460
     13  C         18.2880  -23.1500   -6.6530 C.2     1  UNL1        0.0230
     14  C         17.6250  -23.7500   -5.5830 C.2     1  UNL1        0.0310
     15  C         17.5720  -23.1120   -4.3370 C.2     1  UNL1       -0.0600
     16  C         18.2180  -21.8810   -4.1750 C.2     1  UNL1        0.0130
     17  C         16.8620  -23.7640   -3.1880 C.3     1  UNL1        0.0480
     18  C         18.8940  -21.2740   -5.2450 C.2     1  UNL1       -0.0600
     19  C         19.5400  -19.9330   -5.0670 C.3     1  UNL1        0.0480
     20  C         18.9040  -21.9090   -6.4930 C.2     1  UNL1        0.0310
     21  C         22.2210  -22.8310  -10.7330 C.2     1  UNL1        0.2510
     22  O         22.5610  -23.3530   -9.6780 O.2     1  UNL1       -0.2680
     23  N         23.0610  -22.6950  -11.8150 N.am    1  UNL1       -0.3530
     24  H         22.8170  -22.0450  -12.5490 H       1  UNL1        0.1630
     25  C         24.4470  -23.0950  -11.7130 C.3     1  UNL1        0.1620
     26  C         25.3570  -21.9210  -11.9020 C.2     1  UNL1       -0.0230
     27  C         26.0090  -21.6970  -13.1180 C.2     1  UNL1        0.0120
     28  C         26.8360  -20.5880  -13.2640 C.2     1  UNL1        0.0200
     29  C         26.9740  -19.7270  -12.1880 C.2     1  UNL1        0.1160
     30  N         26.3510  -19.9030  -11.0030 N.2     1  UNL1       -0.2730
     31  C         25.5620  -20.9940  -10.8860 C.2     1  UNL1        0.1240
@<TRIPOS>BOND
     1    28    27    1
     2    28    29    2
     3    27    26    2
     4    24    23    1
     5    29    30    1
     6     5     4    2
     7     5     6    1
     8    26    25    1
     9    26    31    1
    10     4     3    1
    11    23    25    1
    12    23    21   am
    13     7     6    1
    14     6     1    2
    15    30    31    2
    16     3    21    1
    17     3     2    2
    18    21    22    2
    19     1     2    1
    20     1     8    1
    21    10     8    2
    22     8     9    2
    23     8    11    1
    24    12    11    1
    25    11    13    1
    26    13    20    2
    27    13    14    1
    28    20    18    1
    29    14    15    2
    30    18    19    1
    31    18    16    2
    32    15    16    1
    33    15    17    1
