@<TRIPOS>MOLECULE
49263_out_ligand_01.pdbqt
 32 35 0 0 0
SMALL
GASTEIGER

@<TRIPOS>ATOM
      1  C         23.7220  -21.9200  -13.1670 C.2     1  UNL1        0.0540
      2  C         24.8120  -21.7920  -14.0390 C.2     1  UNL1        0.0190
      3  C         25.9140  -22.6380  -13.9050 C.2     1  UNL1        0.0010
      4  C         25.9310  -23.6160  -12.9100 C.2     1  UNL1        0.0020
      5  C         24.8440  -23.7540  -12.0450 C.2     1  UNL1        0.0250
      6  C         23.7330  -22.9190  -12.1750 C.2     1  UNL1        0.0380
      7  N         22.6720  -23.0280  -11.2140 N.pl3   1  UNL1       -0.1800
      8  H         21.8430  -22.4630  -11.4540 H       1  UNL1        0.1460
      9  S         23.0900  -22.6870   -9.6030 S.O2    1  UNL1        0.2450
     10  O         23.2270  -21.2500   -9.4970 O.2     1  UNL1       -0.2060
     11  O         24.1510  -23.5780   -9.1820 O.2     1  UNL1       -0.2060
     12  C         21.6030  -23.1290   -8.7390 C.2     1  UNL1        0.0750
     13  C         21.0870  -24.4170   -8.8870 C.2     1  UNL1        0.0260
     14  C         19.9210  -24.7690   -8.2080 C.2     1  UNL1        0.0140
     15  C         19.2610  -23.8410   -7.3850 C.2     1  UNL1       -0.0260
     16  C         18.0880  -24.1830   -6.6940 C.2     1  UNL1        0.0120
     17  C         19.7840  -22.5310   -7.2500 C.2     1  UNL1       -0.0250
     18  C         17.4400  -23.2510   -5.8820 C.2     1  UNL1        0.0010
     19  C         17.9540  -21.9640   -5.7510 C.2     1  UNL1        0.0010
     20  C         19.1200  -21.6060   -6.4320 C.2     1  UNL1        0.0120
     21  C         20.9560  -22.1830   -7.9380 C.2     1  UNL1        0.0370
     22  C         22.5320  -21.0410  -13.3110 C.2     1  UNL1        0.2530
     23  O         22.4640  -20.2750  -14.2680 O.2     1  UNL1       -0.2680
     24  N         21.5490  -21.1800  -12.3570 N.am    1  UNL1       -0.3530
     25  H         21.5620  -22.0130  -11.7820 H       1  UNL1        0.1630
     26  C         20.2640  -20.5310  -12.5070 C.3     1  UNL1        0.1610
     27  C         19.2080  -21.2390  -11.6990 C.2     1  UNL1       -0.0410
     28  C         18.0650  -20.5470  -11.2690 C.2     1  UNL1        0.0090
     29  C         17.0690  -21.2040  -10.5460 C.2     1  UNL1        0.0010
     30  C         17.2050  -22.5550  -10.2400 C.2     1  UNL1        0.0000
     31  C         18.3350  -23.2540  -10.6620 C.2     1  UNL1        0.0010
     32  C         19.3310  -22.6000  -11.3900 C.2     1  UNL1        0.0090
@<TRIPOS>BOND
     1    23    22    2
     2     2     3    1
     3     2     1    2
     4     3     4    2
     5    22     1    1
     6    22    24   am
     7     1     6    1
     8     4     5    1
     9    26    24    1
    10    26    27    1
    11    24    25    1
    12     6     5    2
    13     6     7    1
    14    27    32    2
    15    27    28    1
    16     8     7    1
    17    32    31    1
    18    28    29    2
    19     7     9    1
    20    31    30    2
    21    29    30    1
    22     9    10    2
    23     9    11    2
    24     9    12    1
    25    13    12    2
    26    13    14    1
    27    12    21    1
    28    14    15    2
    29    21    17    2
    30    15    17    1
    31    15    16    1
    32    17    20    1
    33    16    18    2
    34    20    19    2
    35    18    19    1
