@<TRIPOS>MOLECULE
49274_out_ligand_01.pdbqt
 30 32 0 0 0
SMALL
GASTEIGER

@<TRIPOS>ATOM
      1  C         16.7180  -20.9610  -11.0370 C.3     1  UNL1        0.0500
      2  C         18.1150  -21.4960  -10.8860 C.2     1  UNL1       -0.0390
      3  C         19.1180  -20.9640  -11.7190 C.2     1  UNL1        0.0090
      4  C         20.4390  -21.4110  -11.6410 C.2     1  UNL1        0.0170
      5  C         20.7870  -22.3960  -10.7130 C.2     1  UNL1        0.0330
      6  C         19.8070  -22.9450   -9.8840 C.2     1  UNL1        0.0420
      7  C         18.4770  -22.4990   -9.9650 C.2     1  UNL1        0.0860
      8  S         17.3240  -23.2620   -8.8300 S.O2    1  UNL1        0.2630
      9  O         16.1720  -23.6630   -9.6120 O.2     1  UNL1       -0.2000
     10  O         18.0000  -24.2270   -7.9930 O.2     1  UNL1       -0.2000
     11  N         16.8130  -21.9540   -7.8960 N.pl3   1  UNL1       -0.2800
     12  H         16.1520  -21.3570   -8.3900 H       1  UNL1        0.1790
     13  C         16.6420  -22.1350   -6.4950 C.2     1  UNL1        0.0490
     14  C         15.3880  -22.5670   -6.0570 C.2     1  UNL1        0.0310
     15  C         15.1390  -22.7340   -4.7000 C.2     1  UNL1        0.0030
     16  C         16.1420  -22.4600   -3.7740 C.2     1  UNL1        0.0070
     17  C         17.4090  -22.0200   -4.1960 C.2     1  UNL1       -0.0540
     18  C         18.4570  -21.7330   -3.1530 C.3     1  UNL1        0.0490
     19  C         17.6770  -21.8740   -5.5780 C.2     1  UNL1       -0.0290
     20  C         19.0310  -21.3920   -6.0330 C.3     1  UNL1        0.0510
     21  C         22.1790  -22.9120  -10.6130 C.2     1  UNL1        0.2560
     22  O         22.4440  -23.6650   -9.6840 O.2     1  UNL1       -0.2670
     23  N         23.0390  -22.4470  -11.5900 N.am    1  UNL1       -0.3230
     24  H         22.6860  -21.7280  -12.2090 H       1  UNL1        0.1690
     25  C         24.3950  -22.7910  -11.7710 C.2     1  UNL1        0.0350
     26  C         25.4290  -22.3530  -10.9410 C.2     1  UNL1        0.0290
     27  C         26.7480  -22.7460  -11.1860 C.2     1  UNL1        0.0020
     28  C         27.0460  -23.5820  -12.2580 C.2     1  UNL1        0.0000
     29  C         26.0220  -24.0280  -13.0900 C.2     1  UNL1        0.0020
     30  C         24.7030  -23.6350  -12.8460 C.2     1  UNL1        0.0290
@<TRIPOS>BOND
     1    29    30    1
     2    29    28    2
     3    30    25    2
     4    28    27    1
     5    24    23    1
     6    25    23    1
     7    25    26    1
     8     3     4    1
     9     3     2    2
    10     4     5    2
    11    23    21   am
    12    27    26    2
    13     1     2    1
    14     2     7    1
    15     5    21    1
    16     5     6    1
    17    21    22    2
    18     7     6    2
    19     7     8    1
    20     9     8    2
    21     8    10    2
    22     8    11    1
    23    12    11    1
    24    11    13    1
    25    13    14    2
    26    13    19    1
    27    14    15    1
    28    20    19    1
    29    19    17    2
    30    15    16    2
    31    17    16    1
    32    17    18    1
