@<TRIPOS>MOLECULE
49276_out_ligand_01.pdbqt
 32 34 0 0 0
SMALL
GASTEIGER

@<TRIPOS>ATOM
      1  C         18.1530  -22.2770   -9.6700 C.2     1  UNL1        0.0330
      2  C         17.8260  -21.7860  -10.9350 C.2     1  UNL1        0.0170
      3  C         18.8410  -21.4060  -11.8150 C.2     1  UNL1        0.0090
      4  C         20.2010  -21.5220  -11.4620 C.2     1  UNL1       -0.0390
      5  C         21.2270  -21.0880  -12.4700 C.3     1  UNL1        0.0500
      6  C         20.5150  -22.0400  -10.1920 C.2     1  UNL1        0.0860
      7  C         19.4920  -22.4050   -9.2990 C.2     1  UNL1        0.0420
      8  S         22.1860  -22.2750   -9.5870 S.O2    1  UNL1        0.2630
      9  O         22.9310  -21.0390   -9.6860 O.2     1  UNL1       -0.2000
     10  O         22.0730  -22.9680   -8.3220 O.2     1  UNL1       -0.2000
     11  N         22.8310  -23.3890  -10.6810 N.pl3   1  UNL1       -0.2810
     12  H         22.1150  -23.9910  -11.0860 H       1  UNL1        0.1790
     13  C         23.9090  -22.9900  -11.5190 C.2     1  UNL1        0.0430
     14  C         25.1520  -22.6810  -10.9790 C.2     1  UNL1        0.0300
     15  C         26.1840  -22.2490  -11.8120 C.2     1  UNL1        0.0090
     16  C         25.9840  -22.1200  -13.1950 C.2     1  UNL1       -0.0560
     17  C         27.1200  -21.6470  -14.0620 C.3     1  UNL1        0.0490
     18  C         24.7220  -22.4290  -13.7420 C.2     1  UNL1       -0.0540
     19  C         24.4540  -22.3040  -15.2180 C.3     1  UNL1        0.0490
     20  C         23.6940  -22.8710  -12.8930 C.2     1  UNL1        0.0370
     21  C         17.1060  -22.7140   -8.7100 C.2     1  UNL1        0.2560
     22  N         17.4770  -22.6270   -7.3830 N.am    1  UNL1       -0.3220
     23  H         18.4400  -22.3800   -7.2070 H       1  UNL1        0.1690
     24  O         16.0520  -23.1310   -9.1730 O.2     1  UNL1       -0.2670
     25  C         16.6970  -22.9230   -6.2400 C.2     1  UNL1        0.0410
     26  C         15.5210  -23.6800   -6.3200 C.2     1  UNL1        0.0300
     27  C         14.7550  -23.9500   -5.1830 C.2     1  UNL1        0.0020
     28  C         15.1490  -23.4610   -3.9460 C.2     1  UNL1        0.0010
     29  C         16.3130  -22.7030   -3.8450 C.2     1  UNL1        0.0090
     30  C         17.1040  -22.4290   -4.9790 C.2     1  UNL1       -0.0320
     31  C         18.3540  -21.6010   -4.7690 C.3     1  UNL1        0.0360
     32  C         18.6120  -21.3160   -3.2960 C.3     1  UNL1        0.0100
@<TRIPOS>BOND
     1    19    18    1
     2    17    16    1
     3    18    16    2
     4    18    20    1
     5    16    15    1
     6    20    13    2
     7     5     4    1
     8     3     4    2
     9     3     2    1
    10    15    14    2
    11    13    14    1
    12    13    11    1
    13     4     6    1
    14    12    11    1
    15     2     1    2
    16    11     8    1
    17     6     8    1
    18     6     7    2
    19     9     8    2
    20     1     7    1
    21     1    21    1
    22     8    10    2
    23    24    21    2
    24    21    22   am
    25    22    23    1
    26    22    25    1
    27    26    25    2
    28    26    27    1
    29    25    30    1
    30    27    28    2
    31    30    31    1
    32    30    29    2
    33    31    32    1
    34    28    29    1
