@<TRIPOS>MOLECULE
49286_out_ligand_01.pdbqt
 31 34 0 0 0
SMALL
GASTEIGER

@<TRIPOS>ATOM
      1  C         16.6010  -20.8770  -10.9620 C.3     1  UNL1        0.0500
      2  C         17.9950  -21.4200  -10.8220 C.2     1  UNL1       -0.0390
      3  C         19.0060  -20.8700  -11.6310 C.2     1  UNL1        0.0090
      4  C         20.3250  -21.3240  -11.5520 C.2     1  UNL1        0.0170
      5  C         20.6570  -22.3560  -10.6700 C.2     1  UNL1        0.0330
      6  C         19.6670  -22.9140   -9.8540 C.2     1  UNL1        0.0420
      7  C         18.3430  -22.4490   -9.9250 C.2     1  UNL1        0.0810
      8  S         17.1460  -23.2250   -8.8380 S.O2    1  UNL1        0.2460
      9  O         16.0190  -23.6590   -9.6330 O.2     1  UNL1       -0.2060
     10  O         17.8730  -24.1550   -7.9990 O.2     1  UNL1       -0.2060
     11  N         16.7000  -21.8910   -7.8680 N.pl3   1  UNL1       -0.1810
     12  H         17.3640  -21.1310   -8.0290 H       1  UNL1        0.1460
     13  C         16.5710  -22.1970   -6.4690 C.2     1  UNL1        0.0290
     14  C         15.3370  -22.6790   -6.0180 C.2     1  UNL1        0.0250
     15  C         15.1350  -22.9380   -4.6670 C.2     1  UNL1        0.0020
     16  C         16.1600  -22.6980   -3.7550 C.2     1  UNL1        0.0070
     17  C         17.4000  -22.1990   -4.1830 C.2     1  UNL1       -0.0540
     18  C         18.4630  -21.9210   -3.1530 C.3     1  UNL1        0.0490
     19  C         17.6200  -21.9550   -5.5600 C.2     1  UNL1       -0.0340
     20  C         18.9540  -21.4290   -6.0210 C.3     1  UNL1        0.0500
     21  C         22.0510  -22.8630  -10.5400 C.2     1  UNL1        0.2520
     22  O         22.3230  -23.6940   -9.6790 O.2     1  UNL1       -0.2680
     23  N         22.9700  -22.3720  -11.4460 N.am    1  UNL1       -0.3520
     24  H         22.6170  -21.9340  -12.2870 H       1  UNL1        0.1630
     25  C         24.3280  -22.8910  -11.4770 C.3     1  UNL1        0.0890
     26  C         25.3680  -21.8400  -11.0230 C.3     1  UNL1        0.0300
     27  C         26.2970  -21.7170  -12.2440 C.3     1  UNL1       -0.0120
     28  C         27.1210  -23.0070  -12.3810 C.3     1  UNL1        0.0050
     29  C         25.3100  -21.8500  -13.4010 C.3     1  UNL1        0.0110
     30  C         26.0800  -24.0330  -12.8570 C.3     1  UNL1        0.0070
     31  C         24.7850  -23.2040  -12.9210 C.3     1  UNL1        0.0090
@<TRIPOS>BOND
     1    29    31    1
     2    29    27    1
     3    31    30    1
     4    31    25    1
     5    30    28    1
     6    28    27    1
     7    24    23    1
     8    27    26    1
     9     3     4    1
    10     3     2    2
    11     4     5    2
    12    25    23    1
    13    25    26    1
    14    23    21   am
    15     1     2    1
    16     2     7    1
    17     5    21    1
    18     5     6    1
    19    21    22    2
    20     7     6    2
    21     7     8    1
    22     9     8    2
    23     8    10    2
    24     8    11    1
    25    12    11    1
    26    11    13    1
    27    13    14    2
    28    13    19    1
    29    20    19    1
    30    14    15    1
    31    19    17    2
    32    15    16    2
    33    17    16    1
    34    17    18    1
