@<TRIPOS>MOLECULE
49295_out_ligand_01.pdbqt
 32 34 0 0 0
SMALL
GASTEIGER

@<TRIPOS>ATOM
      1  C         17.6530  -23.5820   -8.5770 C.2     1  UNL1        0.0810
      2  C         19.0420  -23.7870   -8.5500 C.2     1  UNL1        0.0420
      3  C         19.8590  -23.2170   -9.5320 C.2     1  UNL1        0.0330
      4  C         19.2880  -22.4110  -10.5210 C.2     1  UNL1        0.0170
      5  C         17.9050  -22.2020  -10.5430 C.2     1  UNL1        0.0090
      6  C         17.0640  -22.7910   -9.5830 C.2     1  UNL1       -0.0390
      7  C         15.5890  -22.5050   -9.6580 C.3     1  UNL1        0.0500
      8  S         16.6750  -24.3460   -7.2850 S.O2    1  UNL1        0.2460
      9  O         17.5820  -25.0430   -6.4000 O.2     1  UNL1       -0.2060
     10  O         15.5590  -25.0210   -7.9140 O.2     1  UNL1       -0.2060
     11  N         16.0380  -22.9560   -6.5250 N.pl3   1  UNL1       -0.1810
     12  H         15.1090  -23.1920   -6.1770 H       1  UNL1        0.1460
     13  C         16.8710  -22.4060   -5.4880 C.2     1  UNL1        0.0290
     14  C         16.6350  -22.6860   -4.1320 C.2     1  UNL1       -0.0400
     15  C         17.5070  -22.1430   -3.1750 C.2     1  UNL1        0.0090
     16  C         15.5010  -23.5560   -3.6690 C.3     1  UNL1        0.0500
     17  C         18.5850  -21.3390   -3.5570 C.2     1  UNL1        0.0070
     18  C         18.8110  -21.0550   -4.9060 C.2     1  UNL1       -0.0600
     19  C         19.9930  -20.2320   -5.3210 C.3     1  UNL1        0.0480
     20  C         17.9550  -21.6050   -5.8660 C.2     1  UNL1        0.0310
     21  C         21.3260  -23.4700   -9.4680 C.2     1  UNL1        0.2510
     22  O         21.7540  -24.4440   -8.8610 O.2     1  UNL1       -0.2680
     23  N         22.1360  -22.5840  -10.1480 N.am    1  UNL1       -0.3570
     24  H         21.7260  -21.9080  -10.7780 H       1  UNL1        0.1620
     25  C         23.5750  -22.7790  -10.2110 C.3     1  UNL1        0.1270
     26  C         24.0870  -22.8660  -11.6490 C.3     1  UNL1        0.0580
     27  C         24.9270  -21.6670  -12.0140 C.2     1  UNL1       -0.0570
     28  C         25.7120  -21.0340  -11.0400 C.2     1  UNL1        0.0070
     29  C         26.5050  -19.9370  -11.3760 C.2     1  UNL1        0.0010
     30  C         26.5240  -19.4650  -12.6870 C.2     1  UNL1        0.0000
     31  C         25.7510  -20.0900  -13.6640 C.2     1  UNL1        0.0010
     32  C         24.9570  -21.1890  -13.3300 C.2     1  UNL1        0.0070
@<TRIPOS>BOND
     1    31    32    1
     2    31    30    2
     3    32    27    2
     4    30    29    1
     5    27    26    1
     6    27    28    1
     7    26    25    1
     8    29    28    2
     9    24    23    1
    10     5     4    2
    11     5     6    1
    12     4     3    1
    13    25    23    1
    14    23    21   am
    15     7     6    1
    16     6     1    2
    17     3    21    1
    18     3     2    2
    19    21    22    2
    20     1     2    1
    21     1     8    1
    22    10     8    2
    23     8    11    1
    24     8     9    2
    25    11    12    1
    26    11    13    1
    27    20    13    2
    28    20    18    1
    29    13    14    1
    30    19    18    1
    31    18    17    2
    32    14    16    1
    33    14    15    2
    34    17    15    1
