@<TRIPOS>MOLECULE
49297_out_ligand_01.pdbqt
 32 34 0 0 0
SMALL
GASTEIGER

@<TRIPOS>ATOM
      1  C         20.6670  -22.2670  -10.9530 C.2     1  UNL1        0.0330
      2  C         20.4320  -21.1460  -11.7520 C.2     1  UNL1        0.0170
      3  C         19.1400  -20.6240  -11.8580 C.2     1  UNL1        0.0090
      4  C         18.0590  -21.1930  -11.1580 C.2     1  UNL1       -0.0390
      5  C         16.7040  -20.5660  -11.3280 C.3     1  UNL1        0.0500
      6  C         18.3140  -22.3070  -10.3350 C.2     1  UNL1        0.0860
      7  C         19.6090  -22.8450  -10.2480 C.2     1  UNL1        0.0420
      8  S         17.0690  -23.1270   -9.3410 S.O2    1  UNL1        0.2630
      9  O         16.5250  -24.1920  -10.1580 O.2     1  UNL1       -0.2000
     10  O         16.1970  -22.1530   -8.7260 O.2     1  UNL1       -0.2000
     11  N         17.9860  -23.8790   -8.1350 N.pl3   1  UNL1       -0.2810
     12  H         18.7920  -24.3690   -8.5180 H       1  UNL1        0.1790
     13  C         18.1450  -23.2270   -6.8790 C.2     1  UNL1        0.0430
     14  C         18.9930  -22.1270   -6.7920 C.2     1  UNL1        0.0300
     15  C         19.1280  -21.4480   -5.5810 C.2     1  UNL1        0.0090
     16  C         18.4190  -21.8620   -4.4430 C.2     1  UNL1       -0.0560
     17  C         18.5900  -21.1040   -3.1540 C.3     1  UNL1        0.0490
     18  C         17.5700  -22.9820   -4.5280 C.2     1  UNL1       -0.0540
     19  C         16.7890  -23.4700   -3.3390 C.3     1  UNL1        0.0490
     20  C         17.4410  -23.6550   -5.7550 C.2     1  UNL1        0.0370
     21  C         22.0290  -22.8410  -10.7820 C.2     1  UNL1        0.2560
     22  N         22.9870  -22.3260  -11.6280 N.am    1  UNL1       -0.3220
     23  H         22.6890  -21.6830  -12.3540 H       1  UNL1        0.1690
     24  O         22.1770  -23.7220   -9.9430 O.2     1  UNL1       -0.2670
     25  C         24.3680  -22.6290  -11.6750 C.2     1  UNL1        0.0510
     26  C         25.0850  -23.0950  -10.5700 C.2     1  UNL1        0.0310
     27  C         26.4540  -23.3620  -10.6730 C.2     1  UNL1        0.0020
     28  C         27.1210  -23.1590  -11.8790 C.2     1  UNL1        0.0020
     29  C         26.4200  -22.6930  -12.9890 C.2     1  UNL1        0.0210
     30  C         25.0460  -22.4350  -12.9000 C.2     1  UNL1        0.0260
     31  S         24.1750  -21.8350  -14.3560 S.3     1  UNL1       -0.1320
     32  C         25.2210  -20.4040  -14.7410 C.3     1  UNL1        0.0950
@<TRIPOS>BOND
     1    32    31    1
     2    31    30    1
     3    29    30    1
     4    29    28    2
     5    30    25    2
     6    23    22    1
     7    28    27    1
     8     3     2    1
     9     3     4    2
    10     2     1    2
    11    25    22    1
    12    25    26    1
    13    22    21   am
    14     5     4    1
    15     4     6    1
    16     1    21    1
    17     1     7    1
    18    21    24    2
    19    27    26    2
    20     6     7    2
    21     6     8    1
    22     9     8    2
    23     8    10    2
    24     8    11    1
    25    12    11    1
    26    11    13    1
    27    13    14    2
    28    13    20    1
    29    14    15    1
    30    20    18    2
    31    15    16    2
    32    18    16    1
    33    18    19    1
    34    16    17    1
