@<TRIPOS>MOLECULE
49304_out_ligand_01.pdbqt
 31 35 0 0 0
SMALL
GASTEIGER

@<TRIPOS>ATOM
      1  C         23.0240  -21.7120  -12.7750 C.2     1  UNL1        0.0350
      2  C         23.8550  -22.0830  -11.7070 C.2     1  UNL1        0.0310
      3  C         23.3130  -22.4370  -10.4680 C.2     1  UNL1        0.0270
      4  C         21.9300  -22.4210  -10.2940 C.2     1  UNL1        0.0790
      5  C         21.0890  -22.0600  -11.3480 C.2     1  UNL1        0.0270
      6  C         21.6390  -21.7020  -12.5840 C.2     1  UNL1        0.0310
      7  S         21.2240  -22.8540   -8.7260 S.O2    1  UNL1        0.2590
      8  O         21.7850  -21.9950   -7.7080 O.2     1  UNL1       -0.2010
      9  O         21.2920  -24.2940   -8.6240 O.2     1  UNL1       -0.2010
     10  N         19.6040  -22.4830   -8.9200 N.3     1  UNL1       -0.3050
     11  H         19.3530  -22.3970   -9.9040 H       1  UNL1        0.1730
     12  C         18.5300  -22.8360   -7.9740 C.3     1  UNL1        0.0410
     13  C         18.6030  -24.3350   -7.6160 C.3     1  UNL1        0.0360
     14  C         17.4180  -24.7260   -6.7140 C.3     1  UNL1       -0.0120
     15  C         17.4560  -23.8780   -5.4310 C.3     1  UNL1        0.0090
     16  C         16.1010  -24.4570   -7.4590 C.3     1  UNL1        0.0090
     17  C         17.3520  -22.3820   -5.7810 C.3     1  UNL1       -0.0120
     18  C         16.0350  -22.1280   -6.5310 C.3     1  UNL1        0.0090
     19  C         18.5350  -21.9900   -6.6850 C.3     1  UNL1        0.0360
     20  C         15.9950  -22.9650   -7.8190 C.3     1  UNL1       -0.0120
     21  C         17.1870  -22.5780   -8.7090 C.3     1  UNL1        0.0360
     22  N         23.6570  -21.3600  -13.9850 N.am    1  UNL1       -0.3230
     23  C         24.4850  -22.1440  -14.7650 C.2     1  UNL1        0.2580
     24  O         24.8740  -23.2720  -14.4880 O.2     1  UNL1       -0.2670
     25  H         23.5460  -20.4000  -14.2750 H       1  UNL1        0.1690
     26  C         24.9430  -21.4950  -15.9910 C.2     1  UNL1        0.0630
     27  C         25.6540  -20.2570  -16.0690 C.2     1  UNL1        0.0440
     28  C         25.8930  -20.0160  -17.3980 C.2     1  UNL1        0.1430
     29  O         25.4050  -21.0290  -18.1530 O.2     1  UNL1       -0.3260
     30  C         24.8500  -21.9400  -17.3030 C.2     1  UNL1        0.0640
     31  C         24.3280  -23.1630  -17.9540 C.3     1  UNL1        0.0770
@<TRIPOS>BOND
     1    29    28    1
     2    29    30    1
     3    31    30    1
     4    28    27    2
     5    30    26    2
     6    27    26    1
     7    26    23    1
     8    23    24    2
     9    23    22   am
    10    25    22    1
    11    22     1    1
    12     1     6    2
    13     1     2    1
    14     6     5    1
    15     2     3    2
    16     5     4    2
    17     3     4    1
    18     4     7    1
    19    11    10    1
    20    10     7    1
    21    10    12    1
    22     7     9    2
    23     7     8    2
    24    21    12    1
    25    21    20    1
    26    12    13    1
    27    12    19    1
    28    20    16    1
    29    20    18    1
    30    13    14    1
    31    16    14    1
    32    14    15    1
    33    19    17    1
    34    18    17    1
    35    17    15    1
