@<TRIPOS>MOLECULE
49315_out_ligand_01.pdbqt
 31 33 0 0 0
SMALL
GASTEIGER

@<TRIPOS>ATOM
      1  C         18.6920  -22.3630   -9.4050 C.2     1  UNL1        0.0810
      2  C         19.9470  -22.1890  -10.0100 C.2     1  UNL1        0.0420
      3  C         20.0420  -21.7180  -11.3250 C.2     1  UNL1        0.0330
      4  C         18.8740  -21.4610  -12.0470 C.2     1  UNL1        0.0170
      5  C         17.6250  -21.6340  -11.4460 C.2     1  UNL1        0.0090
      6  C         17.5110  -22.0680  -10.1130 C.2     1  UNL1       -0.0390
      7  C         16.1320  -22.2400   -9.5400 C.3     1  UNL1        0.0500
      8  S         18.6610  -22.9960   -7.7300 S.O2    1  UNL1        0.2460
      9  O         18.0470  -24.3060   -7.7640 O.2     1  UNL1       -0.2060
     10  O         19.9740  -22.7920   -7.1560 O.2     1  UNL1       -0.2060
     11  N         17.6250  -21.8580   -6.9890 N.pl3   1  UNL1       -0.1810
     12  H         18.1810  -21.0290   -6.7880 H       1  UNL1        0.1460
     13  C         16.9610  -22.3410   -5.8060 C.2     1  UNL1        0.0290
     14  C         17.4480  -22.0680   -4.5170 C.2     1  UNL1       -0.0400
     15  C         16.7750  -22.6210   -3.4160 C.2     1  UNL1        0.0090
     16  C         18.6800  -21.2430   -4.2690 C.3     1  UNL1        0.0500
     17  C         15.6390  -23.4150   -3.5920 C.2     1  UNL1        0.0070
     18  C         15.1500  -23.6780   -4.8730 C.2     1  UNL1       -0.0600
     19  C         13.9590  -24.5670   -5.0750 C.3     1  UNL1        0.0480
     20  C         15.8290  -23.1470   -5.9750 C.2     1  UNL1        0.0310
     21  C         21.4000  -21.5280  -11.9110 C.2     1  UNL1        0.2520
     22  O         21.5170  -21.0730  -13.0450 O.2     1  UNL1       -0.2680
     23  N         22.4720  -21.9270  -11.1370 N.am    1  UNL1       -0.3520
     24  H         22.2920  -22.5100  -10.3320 H       1  UNL1        0.1630
     25  C         23.8340  -21.9560  -11.6760 C.3     1  UNL1        0.0840
     26  C         24.1470  -23.3720  -12.1880 C.3     1  UNL1        0.0250
     27  C         25.4000  -23.4320  -13.0570 C.3     1  UNL1        0.0020
     28  C         26.7070  -23.6280  -12.2970 C.3     1  UNL1        0.0000
     29  C         26.8690  -22.8600  -10.9900 C.3     1  UNL1        0.0000
     30  C         26.2760  -21.4560  -10.9870 C.3     1  UNL1        0.0020
     31  C         24.7970  -21.4410  -10.6020 C.3     1  UNL1        0.0250
@<TRIPOS>BOND
     1    27    28    1
     2    27    26    1
     3    22    21    2
     4    28    29    1
     5    26    25    1
     6     4     5    2
     7     4     3    1
     8    21     3    1
     9    21    23   am
    10    25    23    1
    11    25    31    1
    12     5     6    1
    13     3     2    2
    14    23    24    1
    15    29    30    1
    16    30    31    1
    17     6     7    1
    18     6     1    2
    19     2     1    1
    20     1     8    1
    21     9     8    2
    22     8    10    2
    23     8    11    1
    24    11    12    1
    25    11    13    1
    26    20    13    2
    27    20    18    1
    28    13    14    1
    29    19    18    1
    30    18    17    2
    31    14    16    1
    32    14    15    2
    33    17    15    1
