@<TRIPOS>MOLECULE
49310_out_ligand_01.pdbqt
 30 32 0 0 0
SMALL
GASTEIGER

@<TRIPOS>ATOM
      1  C         18.6240  -22.4870  -10.0300 C.2     1  UNL1        0.1020
      2  C         19.9340  -22.9900   -9.9390 C.2     1  UNL1        0.0440
      3  C         20.9500  -22.4620  -10.7430 C.2     1  UNL1        0.0340
      4  C         20.6560  -21.4420  -11.6520 C.2     1  UNL1        0.0190
      5  C         19.3520  -20.9430  -11.7380 C.2     1  UNL1        0.0260
      6  C         18.3310  -21.4570  -10.9260 C.2     1  UNL1        0.0570
      7 CL         16.7590  -20.7820  -11.1570 Cl      1  UNL1       -0.0830
      8  S         17.3910  -23.1770   -8.9550 S.O2    1  UNL1        0.2650
      9  O         16.2590  -23.5620   -9.7720 O.2     1  UNL1       -0.2000
     10  O         18.0270  -24.1610   -8.1080 O.2     1  UNL1       -0.2000
     11  N         16.9470  -21.8820   -7.9710 N.pl3   1  UNL1       -0.2800
     12  H         16.4430  -21.1590   -8.4770 H       1  UNL1        0.1790
     13  C         16.6980  -22.0780   -6.5770 C.2     1  UNL1        0.0490
     14  C         15.4210  -22.4810   -6.1720 C.2     1  UNL1        0.0310
     15  C         15.1170  -22.6300   -4.8230 C.2     1  UNL1        0.0030
     16  C         16.0890  -22.3780   -3.8630 C.2     1  UNL1        0.0070
     17  C         17.3840  -21.9900   -4.2410 C.2     1  UNL1       -0.0540
     18  C         18.3990  -21.7400   -3.1550 C.3     1  UNL1        0.0490
     19  C         17.7110  -21.8670   -5.6160 C.2     1  UNL1       -0.0290
     20  C         19.1110  -21.4610   -6.0010 C.3     1  UNL1        0.0510
     21  C         22.3190  -23.0380  -10.6330 C.2     1  UNL1        0.2560
     22  O         22.5480  -23.8030   -9.7060 O.2     1  UNL1       -0.2670
     23  N         23.2080  -22.6120  -11.6020 N.am    1  UNL1       -0.3220
     24  H         22.8980  -21.8790  -12.2280 H       1  UNL1        0.1690
     25  C         24.5520  -23.0230  -11.7580 C.2     1  UNL1        0.0520
     26  C         25.5890  -22.6730  -10.8990 C.2     1  UNL1        0.0320
     27  C         26.8810  -23.1420  -11.1450 C.2     1  UNL1        0.0210
     28  C         27.0950  -23.9530  -12.2460 C.2     1  UNL1        0.1160
     29  N         26.1190  -24.3200  -13.1020 N.2     1  UNL1       -0.2710
     30  C         24.8780  -23.8460  -12.8370 C.2     1  UNL1        0.1450
@<TRIPOS>BOND
     1    29    30    1
     2    29    28    2
     3    30    25    2
     4    28    27    1
     5    24    23    1
     6    25    23    1
     7    25    26    1
     8     5     4    2
     9     5     6    1
    10     4     3    1
    11    23    21   am
    12     7     6    1
    13    27    26    2
    14     6     1    2
    15     3    21    1
    16     3     2    2
    17    21    22    2
    18     1     2    1
    19     1     8    1
    20     9     8    2
    21     8    10    2
    22     8    11    1
    23    12    11    1
    24    11    13    1
    25    13    14    2
    26    13    19    1
    27    14    15    1
    28    20    19    1
    29    19    17    2
    30    15    16    2
    31    17    16    1
    32    17    18    1
