@<TRIPOS>MOLECULE
49325_out_ligand_01.pdbqt
 31 34 0 0 0
SMALL
GASTEIGER

@<TRIPOS>ATOM
      1  C         23.8240  -21.8560  -12.9600 C.2     1  UNL1        0.0540
      2  C         24.7680  -21.2740  -13.8190 C.2     1  UNL1        0.0190
      3  C         26.1080  -21.6570  -13.7440 C.2     1  UNL1        0.0010
      4  C         26.5090  -22.6220  -12.8200 C.2     1  UNL1        0.0020
      5  C         25.5720  -23.2120  -11.9680 C.2     1  UNL1        0.0250
      6  C         24.2270  -22.8400  -12.0420 C.2     1  UNL1        0.0380
      7  N         23.3070  -23.4010  -11.0920 N.pl3   1  UNL1       -0.1800
      8  H         22.3180  -23.2330  -11.3340 H       1  UNL1        0.1460
      9  S         23.5290  -22.9280   -9.4740 S.O2    1  UNL1        0.2450
     10  O         23.6860  -21.4900   -9.4710 O.2     1  UNL1       -0.2060
     11  O         24.5110  -23.7940   -8.8530 O.2     1  UNL1       -0.2060
     12  C         21.9380  -23.2740   -8.7650 C.2     1  UNL1        0.0750
     13  C         21.3290  -24.5030   -9.0260 C.2     1  UNL1        0.0260
     14  C         20.0820  -24.7820   -8.4670 C.2     1  UNL1        0.0140
     15  C         19.4330  -23.8370   -7.6520 C.2     1  UNL1       -0.0260
     16  C         18.1800  -24.1070   -7.0810 C.2     1  UNL1        0.0120
     17  C         20.0520  -22.5870   -7.4040 C.2     1  UNL1       -0.0250
     18  C         17.5450  -23.1600   -6.2770 C.2     1  UNL1        0.0010
     19  C         18.1530  -21.9320   -6.0330 C.2     1  UNL1        0.0010
     20  C         19.3990  -21.6470   -6.5930 C.2     1  UNL1        0.0120
     21  C         21.3050  -22.3130   -7.9710 C.2     1  UNL1        0.0370
     22  C         22.3920  -21.4700  -13.0470 C.2     1  UNL1        0.2530
     23  O         21.9930  -20.8550  -14.0310 O.2     1  UNL1       -0.2680
     24  N         21.5880  -21.8800  -12.0040 N.am    1  UNL1       -0.3520
     25  H         21.9450  -22.6120  -11.4030 H       1  UNL1        0.1630
     26  C         20.1430  -21.6850  -12.0440 C.3     1  UNL1        0.0840
     27  C         19.4410  -22.6590  -11.0940 C.3     1  UNL1        0.0250
     28  C         17.9180  -22.5560  -11.1910 C.3     1  UNL1        0.0020
     29  C         17.4220  -21.1590  -11.5680 C.3     1  UNL1        0.0000
     30  C         18.3790  -20.0760  -11.0910 C.3     1  UNL1        0.0020
     31  C         19.7690  -20.2280  -11.7140 C.3     1  UNL1        0.0250
@<TRIPOS>BOND
     1    23    22    2
     2     2     3    1
     3     2     1    2
     4     3     4    2
     5    22     1    1
     6    22    24   am
     7     1     6    1
     8     4     5    1
     9    26    24    1
    10    26    31    1
    11    26    27    1
    12     6     5    2
    13     6     7    1
    14    24    25    1
    15    31    30    1
    16    29    28    1
    17    29    30    1
    18     8     7    1
    19    28    27    1
    20     7     9    1
    21     9    10    2
    22     9    11    2
    23     9    12    1
    24    13    12    2
    25    13    14    1
    26    12    21    1
    27    14    15    2
    28    21    17    2
    29    15    17    1
    30    15    16    1
    31    17    20    1
    32    16    18    2
    33    20    19    2
    34    18    19    1
