@<TRIPOS>MOLECULE
49331_out_ligand_01.pdbqt
 36 38 0 0 0
SMALL
GASTEIGER

@<TRIPOS>ATOM
      1  C         19.1630  -23.0760   -9.5370 C.2     1  UNL1        0.0860
      2  C         20.0580  -22.4560  -10.4270 C.2     1  UNL1        0.0420
      3  C         21.4080  -22.8100  -10.4390 C.2     1  UNL1        0.0330
      4  C         21.8750  -23.7860   -9.5590 C.2     1  UNL1        0.0170
      5  C         20.9920  -24.3860   -8.6560 C.2     1  UNL1        0.0090
      6  C         19.6260  -24.0410   -8.6240 C.2     1  UNL1       -0.0390
      7  C         18.7600  -24.7180   -7.6000 C.3     1  UNL1        0.0500
      8  C         22.3040  -22.1610  -11.4320 C.2     1  UNL1        0.2560
      9  O         21.7890  -21.5090  -12.3320 O.2     1  UNL1       -0.2670
     10  N         23.6550  -22.3230  -11.1830 N.am    1  UNL1       -0.3230
     11  H         23.9110  -22.7100  -10.2840 H       1  UNL1        0.1690
     12  C         24.7200  -21.8610  -11.9850 C.2     1  UNL1        0.0360
     13  C         25.6010  -20.9350  -11.4080 C.2     1  UNL1        0.0290
     14  C         26.6730  -20.4200  -12.1410 C.2     1  UNL1        0.0040
     15  C         26.8800  -20.8380  -13.4530 C.2     1  UNL1        0.0250
     16  C         26.0220  -21.7770  -14.0300 C.2     1  UNL1        0.0260
     17  C         24.9470  -22.2890  -13.2950 C.2     1  UNL1        0.0540
     18  N         26.3150  -22.2140  -15.3720 N.pl3   1  UNL1       -0.1810
     19  C         27.0470  -21.2180  -16.1970 C.3     1  UNL1        0.1350
     20  S         25.0070  -22.9360  -16.2140 S.O2    1  UNL1        0.2110
     21  C         25.4300  -22.6160  -17.9140 C.3     1  UNL1        0.1800
     22  O         25.0160  -24.3670  -15.9940 O.2     1  UNL1       -0.2110
     23  O         23.8180  -22.1580  -15.9210 O.2     1  UNL1       -0.2110
     24  S         17.4640  -22.5180   -9.6380 S.O2    1  UNL1        0.2630
     25  O         17.2700  -21.7460  -10.8450 O.2     1  UNL1       -0.2000
     26  O         16.6330  -23.6760   -9.3730 O.2     1  UNL1       -0.2000
     27  N         17.3090  -21.5180   -8.2880 N.pl3   1  UNL1       -0.2800
     28  H         16.9620  -20.5910   -8.5240 H       1  UNL1        0.1790
     29  C         16.9880  -22.0640   -7.0120 C.2     1  UNL1        0.0480
     30  C         15.7420  -22.6650   -6.8220 C.2     1  UNL1        0.0310
     31  C         15.3830  -23.1770   -5.5740 C.2     1  UNL1        0.0090
     32  C         16.2710  -23.1030   -4.5010 C.2     1  UNL1       -0.0610
     33  C         15.8620  -23.6200   -3.1530 C.3     1  UNL1        0.0480
     34  C         17.5250  -22.5120   -4.6950 C.2     1  UNL1        0.0150
     35  C         17.9070  -22.0070   -5.9520 C.2     1  UNL1       -0.0340
     36  C         19.2780  -21.4080   -6.0980 C.3     1  UNL1        0.0500
@<TRIPOS>BOND
     1    21    20    1
     2    20    22    2
     3    20    23    2
     4    20    18    1
     5    19    18    1
     6    18    16    1
     7    16    15    2
     8    16    17    1
     9    15    14    1
    10    17    12    2
    11     9     8    2
    12    14    13    2
    13    12    13    1
    14    12    10    1
    15     8    10   am
    16     8     3    1
    17    10    11    1
    18    25    24    2
    19     3     2    1
    20     3     4    2
    21     2     1    2
    22    24     1    1
    23    24    26    2
    24    24    27    1
    25     4     5    1
    26     1     6    1
    27     5     6    2
    28     6     7    1
    29    28    27    1
    30    27    29    1
    31    29    30    2
    32    29    35    1
    33    30    31    1
    34    36    35    1
    35    35    34    2
    36    31    32    2
    37    34    32    1
    38    32    33    1
