@<TRIPOS>MOLECULE
49346_out_ligand_01.pdbqt
 29 31 0 0 0
SMALL
GASTEIGER

@<TRIPOS>ATOM
      1  C         18.5560  -22.7140   -9.6440 C.2     1  UNL1        0.0860
      2  C         19.8430  -22.5920  -10.1970 C.2     1  UNL1        0.0420
      3  C         20.0470  -21.8470  -11.3600 C.2     1  UNL1        0.0330
      4  C         18.9640  -21.2190  -11.9780 C.2     1  UNL1        0.0170
      5  C         17.6810  -21.3570  -11.4410 C.2     1  UNL1        0.0090
      6  C         17.4510  -22.1070  -10.2720 C.2     1  UNL1       -0.0390
      7  C         16.0400  -22.2020   -9.7650 C.3     1  UNL1        0.0500
      8  S         18.4530  -23.6660   -8.1300 S.O2    1  UNL1        0.2630
      9  O         19.7360  -24.3170   -7.9650 O.2     1  UNL1       -0.2000
     10  O         17.2290  -24.4360   -8.1060 O.2     1  UNL1       -0.2000
     11  N         18.3720  -22.4720   -6.9370 N.pl3   1  UNL1       -0.2810
     12  H         18.6450  -21.5560   -7.2890 H       1  UNL1        0.1790
     13  C         17.3320  -22.5260   -5.9680 C.2     1  UNL1        0.0430
     14  C         17.6310  -22.9760   -4.6820 C.2     1  UNL1        0.0300
     15  C         16.6370  -22.9950   -3.7040 C.2     1  UNL1        0.0030
     16  C         15.3440  -22.5710   -4.0120 C.2     1  UNL1        0.0070
     17  C         15.0300  -22.1390   -5.3060 C.2     1  UNL1       -0.0600
     18  C         13.6480  -21.6560   -5.6340 C.3     1  UNL1        0.0480
     19  C         16.0370  -22.1100   -6.2790 C.2     1  UNL1        0.0370
     20  C         21.4350  -21.7010  -11.8690 C.2     1  UNL1        0.2560
     21  O         21.6090  -21.0330  -12.8810 O.2     1  UNL1       -0.2670
     22  N         22.4070  -22.3270  -11.1140 N.am    1  UNL1       -0.3220
     23  H         22.1200  -22.7410  -10.2350 H       1  UNL1        0.1690
     24  C         23.7890  -22.3720  -11.3960 C.2     1  UNL1        0.0520
     25  C         24.6270  -21.5160  -10.6770 C.2     1  UNL1        0.0320
     26  C         26.0010  -21.5260  -10.9110 C.2     1  UNL1        0.0210
     27  C         26.5000  -22.3980  -11.8630 C.2     1  UNL1        0.1160
     28  N         25.7280  -23.2420  -12.5760 N.2     1  UNL1       -0.2710
     29  C         24.3910  -23.2110  -12.3290 C.2     1  UNL1        0.1450
@<TRIPOS>BOND
     1    21    20    2
     2    28    29    1
     3    28    27    2
     4    29    24    2
     5     4     5    2
     6     4     3    1
     7    20     3    1
     8    20    22   am
     9    27    26    1
    10     5     6    1
    11    24    22    1
    12    24    25    1
    13     3     2    2
    14    22    23    1
    15    26    25    2
    16     6     7    1
    17     6     1    2
    18     2     1    1
    19     1     8    1
    20     8    10    2
    21     8     9    2
    22     8    11    1
    23    12    11    1
    24    11    13    1
    25    19    13    2
    26    19    17    1
    27    13    14    1
    28    18    17    1
    29    17    16    2
    30    14    15    2
    31    16    15    1
