@<TRIPOS>MOLECULE
49359_out_ligand_01.pdbqt
 38 43 0 0 0
SMALL
GASTEIGER

@<TRIPOS>ATOM
      1  C         18.7660  -23.5520   -8.7130 C.2     1  UNL1        0.0800
      2  C         19.6530  -24.4650   -8.1400 C.2     1  UNL1        0.0270
      3  C         20.9980  -24.4440   -8.5130 C.2     1  UNL1        0.0310
      4  C         21.4740  -23.5100   -9.4420 C.2     1  UNL1        0.0350
      5  C         20.5570  -22.6040  -10.0330 C.2     1  UNL1       -0.0220
      6  C         19.2170  -22.5990   -9.6300 C.2     1  UNL1        0.0350
      7  C         21.1060  -21.5860  -10.9920 C.3     1  UNL1        0.0500
      8  C         20.2960  -21.0230  -12.1190 C.3     1  UNL1       -0.0210
      9  C         21.0890  -20.7890  -13.1790 C.3     1  UNL1       -0.0290
     10  C         22.5000  -21.2490  -12.9200 C.3     1  UNL1        0.0350
     11  C         22.2390  -22.2370  -11.7900 C.3     1  UNL1        0.0280
     12  C         23.3410  -22.5930  -10.8010 C.3     1  UNL1        0.1200
     13  N         22.8070  -23.5980   -9.8660 N.pl3   1  UNL1       -0.3800
     14  H         23.4600  -23.8840   -9.1420 H       1  UNL1        0.1600
     15  S         17.0510  -23.5640   -8.2430 S.O2    1  UNL1        0.2630
     16  O         16.2680  -23.4130   -9.4540 O.2     1  UNL1       -0.2000
     17  O         16.8490  -24.7010   -7.3700 O.2     1  UNL1       -0.2000
     18  N         16.8380  -22.1230   -7.3850 N.pl3   1  UNL1       -0.2800
     19  H         17.1960  -21.3180   -7.8930 H       1  UNL1        0.1790
     20  C         16.9390  -22.1140   -5.9600 C.2     1  UNL1        0.0540
     21  C         18.1730  -21.8210   -5.3450 C.2     1  UNL1       -0.0340
     22  C         18.2790  -21.9240   -3.9460 C.2     1  UNL1        0.0090
     23  C         19.4170  -21.4230   -6.0920 C.3     1  UNL1        0.0500
     24  C         17.1830  -22.2900   -3.1730 C.2     1  UNL1        0.0010
     25  C         15.9590  -22.5430   -3.7820 C.2     1  UNL1        0.0090
     26  C         15.8150  -22.4430   -5.1750 C.2     1  UNL1       -0.0340
     27  C         14.4510  -22.6990   -5.7560 C.3     1  UNL1        0.0500
     28  C         24.5730  -23.1520  -11.4850 C.2     1  UNL1       -0.0330
     29  C         25.7650  -23.3700  -10.7840 C.2     1  UNL1        0.0090
     30  C         26.8780  -23.9020  -11.4330 C.2     1  UNL1        0.0030
     31  C         26.8180  -24.2280  -12.7910 C.2     1  UNL1        0.0370
     32  C         25.6430  -24.0280  -13.5060 C.2     1  UNL1        0.0700
     33  C         24.5300  -23.4880  -12.8480 C.2     1  UNL1        0.0460
     34  O         25.4210  -24.2880  -14.8330 O.2     1  UNL1       -0.3440
     35  C         25.1190  -23.2780  -15.8260 C.3     1  UNL1        0.1470
     36  C         26.2620  -22.7010  -16.6970 C.3     1  UNL1        0.1070
     37  S         25.1080  -22.4420  -18.0840 S.3     1  UNL1       -0.1640
     38  C         24.2030  -23.6200  -17.0270 C.3     1  UNL1        0.1070
@<TRIPOS>BOND
     1    37    38    1
     2    37    36    1
     3    38    35    1
     4    36    35    1
     5    35    34    1
     6    34    32    1
     7    32    33    1
     8    32    31    2
     9     9    10    1
    10     9     8    1
    11    10    11    1
    12    33    28    2
    13    31    30    1
    14     8     7    1
    15    11     7    1
    16    11    12    1
    17    28    12    1
    18    28    29    1
    19    30    29    2
    20     7     5    1
    21    12    13    1
    22     5     6    1
    23     5     4    2
    24    13     4    1
    25    13    14    1
    26     6     1    2
    27    16    15    2
    28     4     3    1
    29     1    15    1
    30     1     2    1
    31     3     2    2
    32    15    18    1
    33    15    17    2
    34    19    18    1
    35    18    20    1
    36    23    21    1
    37    20    21    2
    38    20    26    1
    39    27    26    1
    40    21    22    1
    41    26    25    2
    42    22    24    2
    43    25    24    1
