@<TRIPOS>MOLECULE
49355_out_ligand_01.pdbqt
 32 34 0 0 0
SMALL
GASTEIGER

@<TRIPOS>ATOM
      1  C         18.5610  -22.2100  -10.3350 C.2     1  UNL1        0.0810
      2  C         19.8440  -22.7740  -10.2420 C.2     1  UNL1        0.0420
      3  C         20.8980  -22.2600  -11.0050 C.2     1  UNL1        0.0330
      4  C         20.6600  -21.2060  -11.8920 C.2     1  UNL1        0.0170
      5  C         19.3810  -20.6500  -11.9890 C.2     1  UNL1        0.0090
      6  C         18.3150  -21.1310  -11.2080 C.2     1  UNL1       -0.0390
      7  C         16.9620  -20.5000  -11.3860 C.3     1  UNL1        0.0500
      8  C         22.2450  -22.8860  -10.8730 C.2     1  UNL1        0.2560
      9  O         22.4350  -23.6590   -9.9440 O.2     1  UNL1       -0.2670
     10  N         23.1750  -22.4820  -11.8170 N.am    1  UNL1       -0.3230
     11  H         22.8990  -21.7330  -12.4390 H       1  UNL1        0.1690
     12  C         24.5050  -22.9340  -11.9520 C.2     1  UNL1        0.0370
     13  C         25.5020  -22.7280  -10.9940 C.2     1  UNL1        0.0290
     14  C         26.8000  -23.2100  -11.1920 C.2     1  UNL1        0.0050
     15  C         27.1210  -23.9100  -12.3530 C.2     1  UNL1        0.0360
     16  C         26.1270  -24.1240  -13.3130 C.2     1  UNL1        0.1050
     17  C         24.8230  -23.6420  -13.1180 C.2     1  UNL1        0.0650
     18  N         26.4490  -24.8620  -14.5400 N.pl3   1  UNL1       -0.1160
     19  O         26.1550  -24.3320  -15.6220 O.2     1  UNL1       -0.5320
     20  O         26.9920  -25.9690  -14.4250 O.2     1  UNL1       -0.5320
     21  S         17.2640  -22.9300   -9.3330 S.O2    1  UNL1        0.2460
     22  O         16.5910  -23.9350  -10.1300 O.2     1  UNL1       -0.2060
     23  O         16.5420  -21.8490   -8.7010 O.2     1  UNL1       -0.2060
     24  N         18.1950  -23.7860   -8.1830 N.pl3   1  UNL1       -0.1810
     25  H         17.7540  -24.7010   -8.0710 H       1  UNL1        0.1460
     26  C         18.2870  -23.1220   -6.9140 C.2     1  UNL1        0.0220
     27  C         17.4760  -23.5250   -5.8520 C.2     1  UNL1        0.0250
     28  C         17.5430  -22.8480   -4.6320 C.2     1  UNL1        0.0080
     29  C         18.4020  -21.7530   -4.4720 C.2     1  UNL1       -0.0620
     30  C         18.4910  -21.0440   -3.1530 C.3     1  UNL1        0.0480
     31  C         19.2050  -21.3550   -5.5470 C.2     1  UNL1        0.0080
     32  C         19.1390  -22.0300   -6.7680 C.2     1  UNL1        0.0250
@<TRIPOS>BOND
     1    19    18    2
     2    18    20    2
     3    18    16    1
     4    16    17    1
     5    16    15    2
     6    17    12    2
     7    11    10    1
     8    15    14    1
     9     5     4    2
    10     5     6    1
    11    12    10    1
    12    12    13    1
    13     4     3    1
    14    10     8   am
    15     7     6    1
    16     6     1    2
    17    14    13    2
    18     3     8    1
    19     3     2    2
    20     8     9    2
    21     1     2    1
    22     1    21    1
    23    22    21    2
    24    21    23    2
    25    21    24    1
    26    24    25    1
    27    24    26    1
    28    26    32    2
    29    26    27    1
    30    32    31    1
    31    27    28    2
    32    31    29    2
    33    28    29    1
    34    29    30    1
