@<TRIPOS>MOLECULE
49366_out_ligand_01.pdbqt
 28 30 0 0 0
SMALL
GASTEIGER

@<TRIPOS>ATOM
      1  N         23.2890  -23.3530  -11.2230 N.pl3   1  UNL1       -0.1800
      2  H         23.1700  -24.3780  -11.1910 H       1  UNL1        0.1460
      3  C         24.2800  -22.9280  -12.1710 C.2     1  UNL1        0.0380
      4  C         25.5470  -23.5150  -12.1210 C.2     1  UNL1        0.0250
      5  C         26.5100  -23.1860  -13.0760 C.2     1  UNL1        0.0020
      6  C         26.2130  -22.2730  -14.0870 C.2     1  UNL1        0.0010
      7  C         24.9460  -21.6860  -14.1510 C.2     1  UNL1        0.0190
      8  C         23.9710  -22.0200  -13.2010 C.2     1  UNL1        0.0540
      9  C         22.6270  -21.3910  -13.2470 C.2     1  UNL1        0.2530
     10  N         21.7940  -21.6520  -12.1810 N.am    1  UNL1       -0.3530
     11  H         22.1990  -22.0490  -11.3430 H       1  UNL1        0.1630
     12  O         22.3360  -20.6580  -14.1880 O.2     1  UNL1       -0.2680
     13  C         20.5420  -20.9540  -12.0170 C.3     1  UNL1        0.1490
     14  C         19.5680  -21.9170  -11.4150 C.2     1  UNL1       -0.0180
     15  C         18.4930  -21.5670  -10.6960 C.2     1  UNL1        0.0080
     16  S         23.5060  -22.8130   -9.6250 S.O2    1  UNL1        0.2450
     17  O         23.7110  -21.3780   -9.6290 O.2     1  UNL1       -0.2060
     18  O         24.4600  -23.7050   -9.0020 O.2     1  UNL1       -0.2060
     19  C         21.9240  -23.1600   -8.8980 C.2     1  UNL1        0.0750
     20  C         21.2630  -24.3390   -9.2400 C.2     1  UNL1        0.0260
     21  C         20.0170  -24.6150   -8.6740 C.2     1  UNL1        0.0140
     22  C         19.4290  -23.7210   -7.7630 C.2     1  UNL1       -0.0260
     23  C         18.1750  -23.9850   -7.1890 C.2     1  UNL1        0.0120
     24  C         20.1130  -22.5320   -7.4120 C.2     1  UNL1       -0.0250
     25  C         17.6030  -23.0910   -6.2830 C.2     1  UNL1        0.0010
     26  C         18.2770  -21.9230   -5.9370 C.2     1  UNL1        0.0010
     27  C         19.5250  -21.6450   -6.4980 C.2     1  UNL1        0.0120
     28  C         21.3660  -22.2630   -7.9820 C.2     1  UNL1        0.0370
@<TRIPOS>BOND
     1    12     9    2
     2     7     6    2
     3     7     8    1
     4     6     5    1
     5     9     8    1
     6     9    10   am
     7     8     3    2
     8     5     4    2
     9    10    13    1
    10    10    11    1
    11     3     4    1
    12     3     1    1
    13    13    14    1
    14    14    15    2
    15     1     2    1
    16     1    16    1
    17    17    16    2
    18    16    18    2
    19    16    19    1
    20    20    19    2
    21    20    21    1
    22    19    28    1
    23    21    22    2
    24    28    24    2
    25    22    24    1
    26    22    23    1
    27    24    27    1
    28    23    25    2
    29    27    26    2
    30    25    26    1
