@<TRIPOS>MOLECULE
49375_out_ligand_01.pdbqt
 31 33 0 0 0
SMALL
GASTEIGER

@<TRIPOS>ATOM
      1  C         17.3000  -23.1280   -8.9440 C.2     1  UNL1        0.0810
      2  C         18.6870  -23.3450   -8.9740 C.2     1  UNL1        0.0420
      3  C         19.4530  -22.8340  -10.0250 C.2     1  UNL1        0.0330
      4  C         18.8410  -22.0920  -11.0380 C.2     1  UNL1        0.0170
      5  C         17.4600  -21.8810  -11.0090 C.2     1  UNL1        0.0090
      6  C         16.6680  -22.3890   -9.9640 C.2     1  UNL1       -0.0390
      7  C         15.1850  -22.1340  -10.0050 C.3     1  UNL1        0.0500
      8  S         16.3830  -23.8400   -7.5820 S.O2    1  UNL1        0.2460
      9  O         15.5630  -22.7970   -7.0070 O.2     1  UNL1       -0.2060
     10  O         15.8080  -25.0880   -8.0400 O.2     1  UNL1       -0.2060
     11  N         17.6590  -24.2540   -6.5270 N.pl3   1  UNL1       -0.1810
     12  H         17.4330  -25.1670   -6.1250 H       1  UNL1        0.1460
     13  C         17.8840  -23.2900   -5.4890 C.2     1  UNL1        0.0230
     14  C         17.5380  -23.6000   -4.1760 C.2     1  UNL1        0.0240
     15  C         17.7990  -22.6870   -3.1560 C.2     1  UNL1        0.0020
     16  C         18.4130  -21.4680   -3.4490 C.2     1  UNL1        0.0070
     17  C         18.7720  -21.1520   -4.7650 C.2     1  UNL1       -0.0600
     18  C         19.4840  -19.8660   -5.0700 C.3     1  UNL1        0.0480
     19  C         18.5190  -22.0810   -5.7830 C.2     1  UNL1        0.0310
     20  C         20.9230  -23.0650  -10.0120 C.2     1  UNL1        0.2560
     21  O         21.3650  -23.9050   -9.2390 O.2     1  UNL1       -0.2670
     22  N         21.6380  -22.3060  -10.9200 N.am    1  UNL1       -0.3230
     23  H         21.1010  -21.7480  -11.5720 H       1  UNL1        0.1690
     24  C         23.0370  -22.2910  -11.1050 C.2     1  UNL1        0.0360
     25  C         23.9130  -21.4950  -10.3600 C.2     1  UNL1        0.0320
     26  C         25.2900  -21.5310  -10.6050 C.2     1  UNL1        0.0460
     27  C         25.7940  -22.3610  -11.5980 C.2     1  UNL1        0.1380
     28  F         27.1160  -22.3780  -11.8180 F       1  UNL1       -0.2040
     29  C         24.9350  -23.1550  -12.3510 C.2     1  UNL1        0.0740
     30 CL         25.5470  -24.1860  -13.5870 Cl      1  UNL1       -0.0810
     31  C         23.5600  -23.1220  -12.1060 C.2     1  UNL1        0.0560
@<TRIPOS>BOND
     1    30    29    1
     2    29    31    1
     3    29    27    2
     4    31    24    2
     5    28    27    1
     6    27    26    1
     7    23    22    1
     8    24    22    1
     9    24    25    1
    10     4     5    2
    11     4     3    1
    12     5     6    1
    13    22    20   am
    14    26    25    2
    15     3    20    1
    16     3     2    2
    17    20    21    2
    18     7     6    1
    19     6     1    2
    20     2     1    1
    21     1     8    1
    22    10     8    2
    23     8     9    2
    24     8    11    1
    25    11    12    1
    26    11    13    1
    27    19    13    2
    28    19    17    1
    29    13    14    1
    30    18    17    1
    31    17    16    2
    32    14    15    2
    33    16    15    1
