@<TRIPOS>MOLECULE
49374_out_ligand_01.pdbqt
 30 32 0 0 0
SMALL
GASTEIGER

@<TRIPOS>ATOM
      1  C         17.6390  -23.2830   -8.9270 C.2     1  UNL1        0.0860
      2  C         19.0350  -23.4460   -8.9780 C.2     1  UNL1        0.0420
      3  C         19.7790  -22.8780  -10.0150 C.2     1  UNL1        0.0330
      4  C         19.1310  -22.1380  -11.0050 C.2     1  UNL1        0.0170
      5  C         17.7480  -21.9500  -10.9390 C.2     1  UNL1        0.0090
      6  C         16.9790  -22.5090   -9.9000 C.2     1  UNL1       -0.0390
      7  C         15.5010  -22.2410   -9.9010 C.3     1  UNL1        0.0500
      8  S         16.8170  -24.0930   -7.5570 S.O2    1  UNL1        0.2630
      9  O         15.6370  -24.7300   -8.1030 O.2     1  UNL1       -0.2000
     10  O         17.7710  -24.8600   -6.7890 O.2     1  UNL1       -0.2000
     11  N         16.2600  -22.8030   -6.6220 N.pl3   1  UNL1       -0.2800
     12  H         15.6960  -22.1500   -7.1600 H       1  UNL1        0.1790
     13  C         17.0280  -22.3020   -5.5290 C.2     1  UNL1        0.0480
     14  C         18.1450  -21.4970   -5.7710 C.2     1  UNL1        0.0300
     15  C         18.9010  -20.9920   -4.7130 C.2     1  UNL1        0.0020
     16  C         18.5510  -21.3020   -3.4030 C.2     1  UNL1        0.0010
     17  C         17.4540  -22.1260   -3.1530 C.2     1  UNL1        0.0090
     18  C         16.6840  -22.6430   -4.2090 C.2     1  UNL1       -0.0350
     19  C         15.5320  -23.5530   -3.8850 C.3     1  UNL1        0.0500
     20  C         21.2440  -23.1310  -10.0530 C.2     1  UNL1        0.2560
     21  O         21.6980  -23.9800   -9.2970 O.2     1  UNL1       -0.2670
     22  N         21.9480  -22.3370  -10.9400 N.am    1  UNL1       -0.3230
     23  H         21.4360  -21.5930  -11.3960 H       1  UNL1        0.1690
     24  C         23.3320  -22.3860  -11.2120 C.2     1  UNL1        0.0370
     25  C         24.1480  -21.4660  -10.5340 C.2     1  UNL1        0.0290
     26  C         25.5300  -21.4410  -10.7480 C.2     1  UNL1        0.0050
     27  C         26.1070  -22.3340  -11.6460 C.2     1  UNL1        0.0420
     28  C         25.2970  -23.2400  -12.3180 C.2     1  UNL1        0.1180
     29  F         25.8540  -24.0960  -13.1860 F       1  UNL1       -0.2060
     30  C         23.9200  -23.2740  -12.1120 C.2     1  UNL1        0.0710
@<TRIPOS>BOND
     1    29    28    1
     2    28    30    1
     3    28    27    2
     4    30    24    2
     5    27    26    1
     6    23    22    1
     7    24    22    1
     8    24    25    1
     9     4     5    2
    10     4     3    1
    11    22    20   am
    12     5     6    1
    13    26    25    2
    14    20     3    1
    15    20    21    2
    16     3     2    2
    17     7     6    1
    18     6     1    2
    19     2     1    1
    20     1     8    1
    21     9     8    2
    22     8    10    2
    23     8    11    1
    24    12    11    1
    25    11    13    1
    26    14    13    2
    27    14    15    1
    28    13    18    1
    29    15    16    2
    30    18    19    1
    31    18    17    2
    32    16    17    1
