@<TRIPOS>MOLECULE
49385_out_ligand_01.pdbqt
 34 36 0 0 0
SMALL
GASTEIGER

@<TRIPOS>ATOM
      1  C         16.7220  -20.7560  -11.1330 C.3     1  UNL1        0.0500
      2  C         18.1170  -21.3070  -11.0590 C.2     1  UNL1       -0.0390
      3  C         19.0790  -20.7720  -11.9390 C.2     1  UNL1        0.0090
      4  C         20.3960  -21.2370  -11.9510 C.2     1  UNL1        0.0170
      5  C         20.7730  -22.2650  -11.0860 C.2     1  UNL1        0.0330
      6  C         19.8380  -22.8120  -10.2060 C.2     1  UNL1        0.0420
      7  C         18.5160  -22.3350  -10.1830 C.2     1  UNL1        0.0860
      8  C         22.1720  -22.7640  -11.0380 C.2     1  UNL1        0.2560
      9  O         22.4670  -23.5330  -10.1320 O.2     1  UNL1       -0.2670
     10  N         22.9810  -22.3050  -12.0620 N.am    1  UNL1       -0.3220
     11  H         22.5100  -21.7830  -12.7870 H       1  UNL1        0.1690
     12  C         24.3580  -22.5650  -12.2670 C.2     1  UNL1        0.0430
     13  C         25.2180  -22.8700  -11.1980 C.2     1  UNL1        0.0300
     14  C         26.5750  -23.1390  -11.4000 C.2     1  UNL1        0.0050
     15  C         27.1000  -23.1210  -12.6830 C.2     1  UNL1        0.0370
     16  C         26.2520  -22.8210  -13.7540 C.2     1  UNL1        0.1110
     17  C         24.8830  -22.5100  -13.5820 C.2     1  UNL1       -0.0020
     18  C         24.0070  -22.1540  -14.7580 C.3     1  UNL1        0.0530
     19  N         26.8490  -22.8590  -15.0790 N.pl3   1  UNL1       -0.1150
     20  O         27.1050  -23.9750  -15.5490 O.2     1  UNL1       -0.5320
     21  O         27.0490  -21.7730  -15.6410 O.2     1  UNL1       -0.5320
     22  S         17.4170  -23.1530   -9.0300 S.O2    1  UNL1        0.2630
     23  O         16.2630  -23.6670   -9.7330 O.2     1  UNL1       -0.2000
     24  O         18.2400  -24.0410   -8.2350 O.2     1  UNL1       -0.2000
     25  N         16.9490  -21.9070   -7.9980 N.pl3   1  UNL1       -0.2800
     26  H         16.4200  -21.1690   -8.4610 H       1  UNL1        0.1790
     27  C         16.7170  -22.1620   -6.6180 C.2     1  UNL1        0.0490
     28  C         15.4520  -22.6270   -6.2460 C.2     1  UNL1        0.0310
     29  C         15.1520  -22.8690   -4.9110 C.2     1  UNL1        0.0030
     30  C         16.1140  -22.6370   -3.9350 C.2     1  UNL1        0.0070
     31  C         17.3910  -22.1680   -4.2830 C.2     1  UNL1       -0.0540
     32  C         18.3930  -21.9340   -3.1830 C.3     1  UNL1        0.0490
     33  C         17.7150  -21.9500   -5.6450 C.2     1  UNL1       -0.0290
     34  C         19.0880  -21.4430   -6.0100 C.3     1  UNL1        0.0510
@<TRIPOS>BOND
     1    21    19    2
     2    20    19    2
     3    19    16    1
     4    18    17    1
     5    16    17    1
     6    16    15    2
     7    17    12    2
     8    11    10    1
     9    15    14    1
    10    12    10    1
    11    12    13    1
    12    10     8   am
    13     4     3    1
    14     4     5    2
    15     3     2    2
    16    14    13    2
    17     1     2    1
    18     5     8    1
    19     5     6    1
    20     2     7    1
    21     8     9    2
    22     6     7    2
    23     7    22    1
    24    23    22    2
    25    22    24    2
    26    22    25    1
    27    26    25    1
    28    25    27    1
    29    27    28    2
    30    27    33    1
    31    28    29    1
    32    34    33    1
    33    33    31    2
    34    29    30    2
    35    31    30    1
    36    31    32    1
