@<TRIPOS>MOLECULE
49386_out_ligand_01.pdbqt
 33 36 0 0 0
SMALL
GASTEIGER

@<TRIPOS>ATOM
      1  C         17.5930  -23.5620   -8.6380 C.2     1  UNL1        0.0860
      2  C         18.9770  -23.8040   -8.5790 C.2     1  UNL1        0.0420
      3  C         19.8410  -23.2160   -9.5060 C.2     1  UNL1        0.0330
      4  C         19.3220  -22.3870  -10.5010 C.2     1  UNL1        0.0170
      5  C         17.9430  -22.1640  -10.5750 C.2     1  UNL1        0.0090
      6  C         17.0550  -22.7470   -9.6520 C.2     1  UNL1       -0.0390
      7  C         15.5900  -22.4520   -9.8040 C.3     1  UNL1        0.0500
      8  C         21.3000  -23.4600   -9.3620 C.2     1  UNL1        0.2510
      9  O         21.6950  -24.5640   -9.0060 O.2     1  UNL1       -0.2680
     10  N         22.1280  -22.4050   -9.6700 N.am    1  UNL1       -0.3530
     11  H         21.7450  -21.6160  -10.1710 H       1  UNL1        0.1630
     12  C         23.5640  -22.5640   -9.7130 C.3     1  UNL1        0.1610
     13  C         24.1270  -21.9780  -10.9840 C.2     1  UNL1       -0.0380
     14  C         25.3990  -21.3580  -10.9730 C.2     1  UNL1        0.0120
     15  C         25.9540  -20.8290  -12.1420 C.2     1  UNL1        0.0400
     16  C         25.2220  -20.9380  -13.3040 C.2     1  UNL1        0.1050
     17  C         23.9890  -21.5440  -13.3260 C.2     1  UNL1        0.1050
     18  O         25.6020  -20.4860  -14.5280 O.2     1  UNL1       -0.3230
     19  C         23.4150  -22.0760  -12.1900 C.2     1  UNL1        0.0480
     20  O         23.4370  -21.5520  -14.5700 O.2     1  UNL1       -0.3230
     21  C         24.4650  -20.8750  -15.3250 C.3     1  UNL1        0.3520
     22  S         16.6180  -24.3420   -7.3540 S.O2    1  UNL1        0.2630
     23  O         17.5470  -25.0610   -6.5070 O.2     1  UNL1       -0.2000
     24  O         15.4740  -25.0130   -7.9300 O.2     1  UNL1       -0.2000
     25  N         16.0720  -23.0260   -6.4410 N.pl3   1  UNL1       -0.2810
     26  H         15.0810  -23.1010   -6.2180 H       1  UNL1        0.1790
     27  C         16.9310  -22.4610   -5.4570 C.2     1  UNL1        0.0430
     28  C         16.6950  -22.6630   -4.0990 C.2     1  UNL1        0.0300
     29  C         17.5220  -22.0600   -3.1530 C.2     1  UNL1        0.0030
     30  C         18.5860  -21.2560   -3.5650 C.2     1  UNL1        0.0070
     31  C         18.8420  -21.0610   -4.9260 C.2     1  UNL1       -0.0600
     32  C         19.9630  -20.1700   -5.3720 C.3     1  UNL1        0.0480
     33  C         18.0000  -21.6630   -5.8710 C.2     1  UNL1        0.0370
@<TRIPOS>BOND
     1    21    20    1
     2    21    18    1
     3    20    17    1
     4    18    16    1
     5    17    16    2
     6    17    19    1
     7    16    15    1
     8    19    13    2
     9    15    14    2
    10    13    14    1
    11    13    12    1
    12     5     4    2
    13     5     6    1
    14     4     3    1
    15    11    10    1
    16     7     6    1
    17    12    10    1
    18    10     8   am
    19     6     1    2
    20     3     8    1
    21     3     2    2
    22     8     9    2
    23     1     2    1
    24     1    22    1
    25    24    22    2
    26    22    23    2
    27    22    25    1
    28    25    26    1
    29    25    27    1
    30    33    27    2
    31    33    31    1
    32    27    28    1
    33    32    31    1
    34    31    30    2
    35    28    29    2
    36    30    29    1
