@<TRIPOS>MOLECULE
49394_out_ligand_01.pdbqt
 31 33 0 0 0
SMALL
GASTEIGER

@<TRIPOS>ATOM
      1  C         17.6410  -23.3910   -8.7610 C.2     1  UNL1        0.0810
      2  C         19.0310  -23.5820   -8.7850 C.2     1  UNL1        0.0420
      3  C         19.8000  -23.0210   -9.8090 C.2     1  UNL1        0.0330
      4  C         19.1800  -22.2570  -10.8020 C.2     1  UNL1        0.0170
      5  C         17.7960  -22.0670  -10.7770 C.2     1  UNL1        0.0090
      6  C         17.0040  -22.6240   -9.7560 C.2     1  UNL1       -0.0390
      7  C         15.5190  -22.3880   -9.7980 C.3     1  UNL1        0.0500
      8  S         16.7250  -24.1670   -7.4330 S.O2    1  UNL1        0.2460
      9  O         17.6810  -24.8050   -6.5530 O.2     1  UNL1       -0.2060
     10  O         15.6320  -24.9090   -8.0220 O.2     1  UNL1       -0.2060
     11  N         16.1400  -22.7860   -6.6190 N.pl3   1  UNL1       -0.1810
     12  H         16.0000  -22.0440   -7.3050 H       1  UNL1        0.1460
     13  C         16.9520  -22.3560   -5.5140 C.2     1  UNL1        0.0280
     14  C         18.0620  -21.5480   -5.7810 C.2     1  UNL1        0.0250
     15  C         18.8650  -21.0830   -4.7400 C.2     1  UNL1        0.0020
     16  C         18.5610  -21.4240   -3.4270 C.2     1  UNL1        0.0010
     17  C         17.4510  -22.2270   -3.1530 C.2     1  UNL1        0.0080
     18  C         16.6300  -22.7010   -4.1890 C.2     1  UNL1       -0.0400
     19  C         15.4460  -23.5600   -3.8450 C.3     1  UNL1        0.0500
     20  C         21.2720  -23.2270   -9.7850 C.2     1  UNL1        0.2520
     21  O         21.7630  -24.0140   -8.9850 O.2     1  UNL1       -0.2680
     22  N         21.9990  -22.5170  -10.7140 N.am    1  UNL1       -0.3490
     23  H         21.5110  -22.0830  -11.4860 H       1  UNL1        0.1630
     24  C         23.4320  -22.7130  -10.8680 C.3     1  UNL1        0.1140
     25  C         24.2320  -21.7580   -9.9750 C.3     1  UNL1        0.0370
     26  C         23.8030  -22.5780  -12.3360 C.2     1  UNL1       -0.0360
     27  C         24.8130  -23.3620  -12.9180 C.2     1  UNL1        0.0090
     28  C         25.1530  -23.2020  -14.2640 C.2     1  UNL1        0.0010
     29  C         24.4950  -22.2500  -15.0410 C.2     1  UNL1        0.0000
     30  C         23.5000  -21.4570  -14.4750 C.2     1  UNL1        0.0010
     31  C         23.1580  -21.6180  -13.1310 C.2     1  UNL1        0.0090
@<TRIPOS>BOND
     1    29    30    2
     2    29    28    1
     3    30    31    1
     4    28    27    2
     5    31    26    2
     6    27    26    1
     7    26    24    1
     8    23    22    1
     9    24    22    1
    10    24    25    1
    11     4     5    2
    12     4     3    1
    13     5     6    1
    14    22    20   am
    15     3    20    1
    16     3     2    2
    17     7     6    1
    18    20    21    2
    19     6     1    2
    20     2     1    1
    21     1     8    1
    22    10     8    2
    23     8    11    1
    24     8     9    2
    25    12    11    1
    26    11    13    1
    27    14    13    2
    28    14    15    1
    29    13    18    1
    30    15    16    2
    31    18    19    1
    32    18    17    2
    33    16    17    1
