@<TRIPOS>MOLECULE
49392_out_ligand_01.pdbqt
 38 41 0 0 0
SMALL
GASTEIGER

@<TRIPOS>ATOM
      1  C         19.6840  -22.0440   -6.6800 C.2     1  UNL1        0.2560
      2  O         19.8390  -20.9680   -6.1180 O.2     1  UNL1       -0.2670
      3  N         18.5720  -22.8570   -6.6290 N.am    1  UNL1       -0.3220
      4  H         18.5690  -23.6790   -7.2360 H       1  UNL1        0.1690
      5  C         20.7520  -22.5390   -7.5920 C.2     1  UNL1        0.0320
      6  C         21.8880  -21.7440   -7.7820 C.2     1  UNL1        0.0190
      7  C         22.8670  -22.1340   -8.6980 C.2     1  UNL1        0.0310
      8  C         22.7180  -23.3230   -9.4150 C.2     1  UNL1        0.0420
      9  C         21.6170  -24.1480   -9.1810 C.2     1  UNL1        0.0310
     10  C         20.6290  -23.7560   -8.2740 C.2     1  UNL1        0.0190
     11  N         23.6820  -23.6440  -10.4100 N.pl3   1  UNL1       -0.2810
     12  H         24.1480  -24.5490  -10.3510 H       1  UNL1        0.1790
     13  S         24.7350  -22.4380  -10.9610 S.O2    1  UNL1        0.2630
     14  O         24.0760  -21.1770  -10.6840 O.2     1  UNL1       -0.2000
     15  O         26.0690  -22.7080  -10.4690 O.2     1  UNL1       -0.2000
     16  C         24.7340  -22.6660  -12.7250 C.2     1  UNL1        0.0790
     17  C         25.3150  -23.8110  -13.2780 C.2     1  UNL1        0.0260
     18  C         25.3000  -23.9900  -14.6620 C.2     1  UNL1        0.0080
     19  C         24.7300  -23.0190  -15.4960 C.2     1  UNL1       -0.0620
     20  C         24.7000  -23.2360  -16.9810 C.3     1  UNL1        0.0480
     21  C         24.1600  -21.8700  -14.9280 C.2     1  UNL1        0.0080
     22  C         24.1680  -21.6860  -13.5450 C.2     1  UNL1        0.0260
     23  C         17.3740  -22.6780   -5.8950 C.2     1  UNL1        0.0500
     24  C         17.3720  -22.3740   -4.5310 C.2     1  UNL1        0.0300
     25  C         16.1690  -22.2240   -3.8330 C.2     1  UNL1        0.0020
     26  C         14.9490  -22.3790   -4.4890 C.2     1  UNL1        0.0010
     27  C         14.9280  -22.6770   -5.8500 C.2     1  UNL1        0.0190
     28  C         16.1320  -22.8140   -6.5620 C.2     1  UNL1        0.0580
     29  C         16.0930  -23.1000   -8.0270 C.2     1  UNL1        0.2540
     30  O         16.1590  -24.2590   -8.4280 O.2     1  UNL1       -0.2680
     31  N         16.0490  -22.0100   -8.8650 N.am    1  UNL1       -0.3510
     32  H         16.1810  -21.0830   -8.4840 H       1  UNL1        0.1630
     33  C         16.1450  -22.1580  -10.3010 C.3     1  UNL1        0.1870
     34  C         17.5250  -21.8080  -10.7180 C.2     1  UNL1        0.0700
     35  C         18.7420  -22.4460  -10.5950 C.2     1  UNL1        0.0360
     36  C         19.6960  -21.6060  -11.2180 C.2     1  UNL1        0.0270
     37  C         19.0020  -20.5110  -11.6750 C.2     1  UNL1        0.1420
     38  O         17.6820  -20.6240  -11.3810 O.2     1  UNL1       -0.3250
@<TRIPOS>BOND
     1    20    19    1
     2    19    21    2
     3    19    18    1
     4    21    22    1
     5    18    17    2
     6    22    16    2
     7    17    16    1
     8    16    13    1
     9    37    38    1
    10    37    36    2
    11    38    34    1
    12    36    35    1
    13    13    14    2
    14    13    15    2
    15    13    11    1
    16    34    35    2
    17    34    33    1
    18    11    12    1
    19    11     8    1
    20    33    31    1
    21     8     9    2
    22     8     7    1
    23     9    10    1
    24    31    32    1
    25    31    29   am
    26     7     6    2
    27    30    29    2
    28    10     5    2
    29    29    28    1
    30     6     5    1
    31     5     1    1
    32     4     3    1
    33     1     3   am
    34     1     2    2
    35     3    23    1
    36    28    23    2
    37    28    27    1
    38    23    24    1
    39    27    26    2
    40    24    25    2
    41    26    25    1
