@<TRIPOS>MOLECULE
49404_out_ligand_01.pdbqt
 35 39 0 0 0
SMALL
GASTEIGER

@<TRIPOS>ATOM
      1  O         20.2020  -23.4250   -7.6730 O.2     1  UNL1       -0.2720
      2  C         19.5910  -22.4930   -8.1930 C.2     1  UNL1        0.2350
      3  N         20.0230  -21.7400   -9.2760 N.am    1  UNL1       -0.3260
      4  H         19.3910  -21.0120   -9.5930 H       1  UNL1        0.1690
      5  C         21.2330  -21.8600   -9.9860 C.2     1  UNL1        0.0340
      6  C         22.4970  -21.8320   -9.3920 C.2     1  UNL1        0.0310
      7  C         23.6520  -21.9580  -10.1710 C.2     1  UNL1        0.0270
      8  C         23.5410  -22.1190  -11.5520 C.2     1  UNL1        0.0790
      9  C         22.2880  -22.1400  -12.1640 C.2     1  UNL1        0.0270
     10  C         21.1390  -22.0120  -11.3790 C.2     1  UNL1        0.0310
     11  S         25.0120  -22.2770  -12.5300 S.O2    1  UNL1        0.2590
     12  O         25.8310  -21.1020  -12.3360 O.2     1  UNL1       -0.2010
     13  O         25.5320  -23.6110  -12.3280 O.2     1  UNL1       -0.2010
     14  N         24.3990  -22.2370  -14.0840 N.3     1  UNL1       -0.3110
     15  H         23.4370  -22.5580  -14.1750 H       1  UNL1        0.1720
     16  C         25.2960  -22.2600  -15.2450 C.3     1  UNL1        0.0930
     17  C         25.1820  -23.6170  -15.9580 C.3     1  UNL1        0.0260
     18  C         24.1480  -23.5900  -17.0790 C.3     1  UNL1        0.0020
     19  C         24.4930  -22.5530  -18.1490 C.3     1  UNL1        0.0000
     20  C         25.2720  -21.3520  -17.6080 C.3     1  UNL1        0.0020
     21  C         24.9300  -21.0720  -16.1500 C.3     1  UNL1        0.0260
     22  C         18.2110  -22.0730   -7.6520 C.2     1  UNL1        0.1490
     23  C         18.2270  -21.9620   -6.1450 C.2     1  UNL1       -0.0070
     24  C         19.0140  -20.9910   -5.5040 C.2     1  UNL1        0.0110
     25  C         17.4730  -22.8460   -5.3700 C.2     1  UNL1        0.0830
     26  C         19.0480  -20.9170   -4.1120 C.2     1  UNL1        0.0010
     27  C         18.3000  -21.8090   -3.3470 C.2     1  UNL1        0.0030
     28  C         17.5130  -22.7740   -3.9750 C.2     1  UNL1        0.0380
     29  O         16.6730  -23.8260   -5.9020 O.2     1  UNL1       -0.3100
     30  C         16.4330  -23.8150   -7.2540 C.2     1  UNL1        0.0830
     31  C         15.4530  -24.6970   -7.7130 C.2     1  UNL1        0.0380
     32  C         17.1200  -22.9930   -8.1510 C.2     1  UNL1       -0.0070
     33  C         15.1450  -24.7550   -9.0720 C.2     1  UNL1        0.0030
     34  C         15.8180  -23.9330   -9.9730 C.2     1  UNL1        0.0010
     35  C         16.8020  -23.0550   -9.5170 C.3     1  UNL1        0.0110
@<TRIPOS>BOND
     1    19    20    1
     2    19    18    1
     3    20    21    1
     4    18    17    1
     5    21    16    1
     6    17    16    1
     7    16    14    1
     8    15    14    1
     9    14    11    1
    10    11    12    2
    11    11    13    2
    12    11     8    1
    13     9     8    2
    14     9    10    1
    15     8     7    1
    16    10     5    2
    17     7     6    2
    18     5     6    1
    19     5     3    1
    20    34    35    1
    21    34    33    2
    22     4     3    1
    23    35    32    1
    24     3     2   am
    25    33    31    1
    26     2     1    2
    27     2    22    1
    28    32    22    2
    29    32    30    1
    30    31    30    2
    31    22    23    1
    32    30    29    1
    33    23    24    2
    34    23    25    1
    35    29    25    1
    36    24    26    1
    37    25    28    2
    38    26    27    2
    39    28    27    1
