@<TRIPOS>MOLECULE
49413_out_ligand_01.pdbqt
 31 33 0 0 0
SMALL
GASTEIGER

@<TRIPOS>ATOM
      1  C         19.5220  -22.1710  -10.3280 C.2     1  UNL1        0.0340
      2  C         18.6910  -21.4410  -11.1850 C.2     1  UNL1        0.0190
      3  C         17.3060  -21.4600  -10.9910 C.2     1  UNL1        0.0260
      4  C         16.7370  -22.2110   -9.9540 C.2     1  UNL1        0.0570
      5 CL         15.0160  -22.1740   -9.8340 Cl      1  UNL1       -0.0830
      6  C         17.5670  -22.9510   -9.1110 C.2     1  UNL1        0.1020
      7  C         18.9600  -22.9310   -9.2980 C.2     1  UNL1        0.0440
      8  C         20.9990  -22.1990  -10.5130 C.2     1  UNL1        0.2560
      9  N         21.4200  -22.1340  -11.8280 N.am    1  UNL1       -0.3230
     10  H         20.7120  -21.9680  -12.5320 H       1  UNL1        0.1690
     11  O         21.6990  -22.2480   -9.5110 O.2     1  UNL1       -0.2670
     12  C         22.7490  -22.1810  -12.3020 C.2     1  UNL1        0.0350
     13  C         23.0390  -21.4610  -13.4700 C.2     1  UNL1        0.0370
     14  C         24.3320  -21.4480  -14.0270 C.2     1  UNL1       -0.0430
     15  C         24.5850  -20.6560  -15.2790 C.3     1  UNL1        0.0490
     16  C         25.3410  -22.1820  -13.3860 C.2     1  UNL1        0.0170
     17  C         25.0590  -22.9020  -12.2250 C.2     1  UNL1        0.0220
     18 BR         27.1190  -22.2380  -14.0470 Br      1  UNL1       -0.0510
     19  C         23.7690  -22.9030  -11.6860 C.2     1  UNL1        0.0310
     20  S         16.9170  -23.9170   -7.7720 S.O2    1  UNL1        0.2650
     21  O         15.8100  -24.6990   -8.2800 O.2     1  UNL1       -0.2000
     22  O         18.0290  -24.5840   -7.1270 O.2     1  UNL1       -0.2000
     23  N         16.3300  -22.7720   -6.6890 N.pl3   1  UNL1       -0.2800
     24  H         15.3150  -22.8060   -6.6210 H       1  UNL1        0.1790
     25  C         17.0800  -22.3160   -5.5590 C.2     1  UNL1        0.0480
     26  C         18.1520  -21.4290   -5.7080 C.2     1  UNL1        0.0300
     27  C         18.8750  -20.9840   -4.5980 C.2     1  UNL1        0.0020
     28  C         18.5150  -21.3990   -3.3240 C.2     1  UNL1        0.0010
     29  C         17.4190  -22.2430   -3.1560 C.2     1  UNL1        0.0090
     30  C         16.6800  -22.6960   -4.2630 C.2     1  UNL1       -0.0350
     31  C         15.4920  -23.5840   -4.0110 C.3     1  UNL1        0.0500
@<TRIPOS>BOND
     1    15    14    1
     2    18    16    1
     3    14    13    1
     4    14    16    2
     5    13    12    2
     6    16    17    1
     7    10     9    1
     8    12     9    1
     9    12    19    1
    10    17    19    2
    11     9     8   am
    12     2     3    1
    13     2     1    2
    14     3     4    2
    15     8     1    1
    16     8    11    2
    17     1     7    1
    18     4     5    1
    19     4     6    1
    20     7     6    2
    21     6    20    1
    22    21    20    2
    23    20    22    2
    24    20    23    1
    25    23    24    1
    26    23    25    1
    27    26    25    2
    28    26    27    1
    29    25    30    1
    30    27    28    2
    31    30    31    1
    32    30    29    2
    33    28    29    1
