@<TRIPOS>MOLECULE
49421_out_ligand_01.pdbqt
 32 34 0 0 0
SMALL
GASTEIGER

@<TRIPOS>ATOM
      1  C         26.6970  -22.6650  -14.0520 C.3     1  UNL1        0.1620
      2  C         26.1070  -23.5320  -15.0830 C.1     1  UNL1        0.0630
      3  N         25.6650  -24.2260  -15.9020 N.1     1  UNL1       -0.1970
      4  C         25.7600  -22.4110  -12.8960 C.2     1  UNL1       -0.0450
      5  C         26.1200  -21.5370  -11.8630 C.2     1  UNL1        0.0100
      6  C         25.2480  -21.2920  -10.7950 C.2     1  UNL1        0.0300
      7  C         23.9970  -21.9060  -10.7450 C.2     1  UNL1        0.0350
      8  C         23.6340  -22.7780  -11.7790 C.2     1  UNL1        0.0300
      9  C         24.5040  -23.0280  -12.8440 C.2     1  UNL1        0.0100
     10  N         23.0610  -21.7100   -9.7080 N.am    1  UNL1       -0.3230
     11  C         22.5690  -22.6610   -8.8320 C.2     1  UNL1        0.2560
     12  O         22.8840  -23.8410   -8.7670 O.2     1  UNL1       -0.2670
     13  H         22.7800  -20.7520   -9.5520 H       1  UNL1        0.1690
     14  C         21.5770  -22.1430   -7.8490 C.2     1  UNL1        0.0330
     15  C         20.3020  -22.7150   -7.8220 C.2     1  UNL1        0.0420
     16  C         19.3500  -22.2750   -6.8880 C.2     1  UNL1        0.0860
     17  C         19.6560  -21.2320   -5.9910 C.2     1  UNL1       -0.0390
     18  C         20.9310  -20.6430   -6.0640 C.2     1  UNL1        0.0090
     19  C         18.6800  -20.6860   -4.9840 C.3     1  UNL1        0.0500
     20  C         21.8850  -21.0940   -6.9790 C.2     1  UNL1        0.0170
     21  S         17.7560  -23.0940   -6.9010 S.O2    1  UNL1        0.2630
     22  O         17.8450  -24.2770   -6.0720 O.2     1  UNL1       -0.2000
     23  O         16.7330  -22.1010   -6.6540 O.2     1  UNL1       -0.2000
     24  N         17.6200  -23.6360   -8.4940 N.pl3   1  UNL1       -0.2810
     25  H         18.0040  -24.5690   -8.6220 H       1  UNL1        0.1790
     26  C         17.7180  -22.7100   -9.5700 C.2     1  UNL1        0.0430
     27  C         16.5860  -21.9720   -9.9220 C.2     1  UNL1        0.0300
     28  C         16.6400  -21.0790  -10.9910 C.2     1  UNL1        0.0030
     29  C         17.8240  -20.9230  -11.7130 C.2     1  UNL1        0.0070
     30  C         18.9650  -21.6590  -11.3700 C.2     1  UNL1       -0.0600
     31  C         20.2500  -21.4670  -12.1190 C.3     1  UNL1        0.0480
     32  C         18.9080  -22.5390  -10.2800 C.2     1  UNL1        0.0370
@<TRIPOS>BOND
     1     3     2    3
     2     2     1    1
     3     1     4    1
     4     4     9    2
     5     4     5    1
     6     9     8    1
     7    31    30    1
     8     5     6    2
     9     8     7    2
    10    29    30    2
    11    29    28    1
    12    30    32    1
    13    28    27    2
    14     6     7    1
    15     7    10    1
    16    32    26    2
    17    27    26    1
    18    10    13    1
    19    10    11   am
    20    26    24    1
    21    11    12    2
    22    11    14    1
    23    25    24    1
    24    24    21    1
    25    14    15    2
    26    14    20    1
    27    15    16    1
    28    20    18    2
    29    21    16    1
    30    21    23    2
    31    21    22    2
    32    16    17    2
    33    18    17    1
    34    17    19    1
