@<TRIPOS>MOLECULE
49426_out_ligand_01.pdbqt
 34 36 0 0 0
SMALL
GASTEIGER

@<TRIPOS>ATOM
      1  C         17.3300  -22.9780   -9.0840 C.2     1  UNL1        0.0810
      2  C         18.7120  -22.9510   -9.3300 C.2     1  UNL1        0.0420
      3  C         19.2310  -22.1440  -10.3480 C.2     1  UNL1        0.0330
      4  C         18.3620  -21.3930  -11.1470 C.2     1  UNL1        0.0170
      5  C         16.9860  -21.4270  -10.9060 C.2     1  UNL1        0.0090
      6  C         16.4480  -22.2060   -9.8660 C.2     1  UNL1       -0.0390
      7  C         14.9550  -22.2110   -9.6810 C.3     1  UNL1        0.0500
      8  C         20.7050  -22.1380  -10.5720 C.2     1  UNL1        0.2560
      9  O         21.4370  -22.1550   -9.5920 O.2     1  UNL1       -0.2670
     10  N         21.0940  -22.0700  -11.8980 N.am    1  UNL1       -0.3230
     11  H         20.3670  -21.9270  -12.5860 H       1  UNL1        0.1690
     12  C         22.4120  -22.0850  -12.4020 C.2     1  UNL1        0.0350
     13  C         22.6760  -21.2950  -13.5280 C.2     1  UNL1        0.0300
     14  C         23.9560  -21.2570  -14.0920 C.2     1  UNL1        0.0180
     15  C         25.0010  -22.0080  -13.5380 C.2     1  UNL1        0.0480
     16  C         24.7300  -22.8080  -12.4200 C.2     1  UNL1        0.0180
     17  C         23.4480  -22.8430  -11.8570 C.2     1  UNL1        0.0300
     18  C         26.3750  -21.9840  -14.1600 C.3     1  UNL1        0.4170
     19  F         27.1210  -23.0670  -13.8100 F       1  UNL1       -0.1660
     20  F         27.1100  -20.8920  -13.8090 F       1  UNL1       -0.1660
     21  F         26.3370  -21.9820  -15.5220 F       1  UNL1       -0.1660
     22  S         16.7420  -24.0390   -7.7660 S.O2    1  UNL1        0.2460
     23  O         15.7440  -24.9230   -8.3260 O.2     1  UNL1       -0.2060
     24  O         17.8990  -24.5470   -7.0580 O.2     1  UNL1       -0.2060
     25  N         16.0170  -22.8800   -6.7410 N.pl3   1  UNL1       -0.1810
     26  H         15.6980  -22.1080   -7.3270 H       1  UNL1        0.1460
     27  C         16.8630  -22.4160   -5.6740 C.2     1  UNL1        0.0290
     28  C         16.5840  -22.7170   -4.3300 C.2     1  UNL1       -0.0400
     29  C         17.4440  -22.2180   -3.3390 C.2     1  UNL1        0.0090
     30  C         15.4060  -23.5510   -3.9150 C.3     1  UNL1        0.0500
     31  C         18.5480  -21.4310   -3.6750 C.2     1  UNL1        0.0070
     32  C         18.8120  -21.1140   -5.0090 C.2     1  UNL1       -0.0600
     33  C         20.0070  -20.2870   -5.3770 C.3     1  UNL1        0.0480
     34  C         17.9680  -21.6210   -6.0040 C.2     1  UNL1        0.0310
@<TRIPOS>BOND
     1    21    18    1
     2    18    19    1
     3    18    20    1
     4    18    15    1
     5    14    15    2
     6    14    13    1
     7    15    16    1
     8    13    12    2
     9    11    10    1
    10    16    17    2
    11    12    10    1
    12    12    17    1
    13    10     8   am
    14     4     5    2
    15     4     3    1
    16     5     6    1
    17     8     3    1
    18     8     9    2
    19     3     2    2
    20     6     7    1
    21     6     1    2
    22     2     1    1
    23     1    22    1
    24    23    22    2
    25    22    24    2
    26    22    25    1
    27    26    25    1
    28    25    27    1
    29    34    27    2
    30    34    32    1
    31    27    28    1
    32    33    32    1
    33    32    31    2
    34    28    30    1
    35    28    29    2
    36    31    29    1
