@<TRIPOS>MOLECULE
49439_out_ligand_01.pdbqt
 37 41 0 0 0
SMALL
GASTEIGER

@<TRIPOS>ATOM
      1  C         23.6080  -22.7940  -10.8750 C.2     1  UNL1        0.0800
      2  C         23.7350  -23.2240   -9.5550 C.2     1  UNL1        0.0270
      3  C         22.5930  -23.3830   -8.7720 C.2     1  UNL1        0.0250
      4  C         21.3230  -23.0600   -9.2740 C.2     1  UNL1        0.0160
      5  C         21.1980  -22.6310  -10.6050 C.2     1  UNL1       -0.0270
      6  C         22.3510  -22.4910  -11.4030 C.2     1  UNL1        0.0350
      7  C         19.8430  -22.3560  -11.2070 C.3     1  UNL1        0.0490
      8  C         19.5840  -20.9090  -11.5330 C.3     1  UNL1       -0.0210
      9  C         18.3150  -20.5670  -11.2830 C.3     1  UNL1       -0.0290
     10  C         17.5360  -21.7210  -10.7380 C.3     1  UNL1        0.0340
     11  C         18.6410  -22.7060  -10.2980 C.3     1  UNL1        0.0230
     12  C         19.0010  -22.5320   -8.8060 C.3     1  UNL1        0.0990
     13  N         20.1970  -23.3140   -8.4760 N.pl3   1  UNL1       -0.2830
     14  H         20.4220  -23.2690   -7.4820 H       1  UNL1        0.1280
     15  S         25.0660  -22.6620  -11.8880 S.O2    1  UNL1        0.2630
     16  O         26.0030  -23.6550  -11.3970 O.2     1  UNL1       -0.2000
     17  O         25.4250  -21.2570  -11.9760 O.2     1  UNL1       -0.2000
     18  N         24.4370  -23.1460  -13.3880 N.pl3   1  UNL1       -0.2800
     19  H         24.2820  -24.1520  -13.4720 H       1  UNL1        0.1790
     20  C         24.9790  -22.5140  -14.5510 C.2     1  UNL1        0.0540
     21  C         24.3700  -21.3470  -15.0620 C.2     1  UNL1       -0.0340
     22  C         24.8710  -20.7790  -16.2410 C.2     1  UNL1        0.0090
     23  C         23.1750  -20.7010  -14.4030 C.3     1  UNL1        0.0500
     24  C         25.9630  -21.3430  -16.8980 C.2     1  UNL1        0.0010
     25  C         26.5710  -22.4810  -16.3780 C.2     1  UNL1        0.0090
     26  C         26.0980  -23.0770  -15.1990 C.2     1  UNL1       -0.0340
     27  C         26.7930  -24.3110  -14.6910 C.3     1  UNL1        0.0500
     28  C         17.8850  -23.0140   -7.8640 C.2     1  UNL1       -0.0250
     29  C         16.9360  -23.9390   -8.3450 C.2     1  UNL1        0.0090
     30  C         15.8970  -24.4050   -7.5370 C.2     1  UNL1        0.0010
     31  C         15.7880  -23.9630   -6.2270 C.2     1  UNL1        0.0010
     32  C         16.7260  -23.0660   -5.7200 C.2     1  UNL1        0.0170
     33  C         17.7910  -22.5910   -6.5140 C.2     1  UNL1        0.0550
     34  C         18.8020  -21.6500   -5.8860 C.3     1  UNL1        0.4180
     35  F         20.0780  -21.8410   -6.3390 F       1  UNL1       -0.1660
     36  F         18.8710  -21.7800   -4.5320 F       1  UNL1       -0.1660
     37  F         18.5240  -20.3380   -6.1350 F       1  UNL1       -0.1660
@<TRIPOS>BOND
     1    24    25    2
     2    24    22    1
     3    25    26    1
     4    22    21    2
     5    26    27    1
     6    26    20    2
     7    21    20    1
     8    21    23    1
     9    20    18    1
    10    19    18    1
    11    18    15    1
    12    17    15    2
    13    15    16    2
    14    15     1    1
    15     8     9    1
    16     8     7    1
    17     6     1    2
    18     6     5    1
    19     9    10    1
    20     7     5    1
    21     7    11    1
    22     1     2    1
    23    10    11    1
    24     5     4    2
    25    11    12    1
    26     2     3    2
    27     4     3    1
    28     4    13    1
    29    12    13    1
    30    12    28    1
    31    13    14    1
    32    29    28    2
    33    29    30    1
    34    28    33    1
    35    30    31    2
    36    33    34    1
    37    33    32    2
    38    35    34    1
    39    31    32    1
    40    37    34    1
    41    34    36    1
