@<TRIPOS>MOLECULE
49443_out_ligand_01.pdbqt
 32 34 0 0 0
SMALL
GASTEIGER

@<TRIPOS>ATOM
      1  C         16.3340  -21.3630  -10.8240 C.3     1  UNL1        0.0500
      2  C         17.7660  -21.8140  -10.7380 C.2     1  UNL1       -0.0390
      3  C         18.6940  -21.2550  -11.6340 C.2     1  UNL1        0.0090
      4  C         20.0440  -21.6150  -11.5970 C.2     1  UNL1        0.0170
      5  C         20.4970  -22.5460  -10.6570 C.2     1  UNL1        0.0330
      6  C         19.5940  -23.0900   -9.7360 C.2     1  UNL1        0.0420
      7  C         18.2370  -22.7320   -9.7780 C.2     1  UNL1        0.0810
      8  S         17.1440  -23.4680   -8.5630 S.O2    1  UNL1        0.2460
      9  O         16.0010  -24.0080   -9.2670 O.2     1  UNL1       -0.2060
     10  O         17.9500  -24.2850   -7.6840 O.2     1  UNL1       -0.2060
     11  N         16.6030  -22.0650   -7.7540 N.pl3   1  UNL1       -0.1810
     12  H         15.7050  -21.7950   -8.1510 H       1  UNL1        0.1460
     13  C         16.5470  -22.1800   -6.3190 C.2     1  UNL1        0.0290
     14  C         15.3540  -22.6390   -5.7510 C.2     1  UNL1        0.0250
     15  C         15.2350  -22.7660   -4.3730 C.2     1  UNL1        0.0020
     16  C         16.3110  -22.4400   -3.5540 C.2     1  UNL1        0.0070
     17  C         17.5220  -21.9780   -4.1000 C.2     1  UNL1       -0.0540
     18  C         18.6460  -21.6420   -3.1550 C.3     1  UNL1        0.0490
     19  C         17.6440  -21.8260   -5.5020 C.2     1  UNL1       -0.0340
     20  C         18.9280  -21.3320   -6.1190 C.3     1  UNL1        0.0500
     21  C         21.9300  -22.9580  -10.5840 C.2     1  UNL1        0.2560
     22  O         22.2520  -23.8060   -9.7630 O.2     1  UNL1       -0.2670
     23  N         22.7500  -22.3860  -11.5360 N.am    1  UNL1       -0.3180
     24  H         22.3030  -21.9750  -12.3490 H       1  UNL1        0.1690
     25  C         24.1540  -22.5340  -11.6490 C.2     1  UNL1        0.1130
     26  C         24.8200  -23.4190  -12.5010 C.2     1  UNL1        0.1460
     27  F         24.1600  -24.3040  -13.2580 F       1  UNL1       -0.2040
     28  C         26.2160  -23.4750  -12.5310 C.2     1  UNL1        0.0450
     29  C         26.9750  -22.6570  -11.6950 C.2     1  UNL1        0.0060
     30  C         26.3310  -21.7940  -10.8160 C.2     1  UNL1        0.0450
     31  C         24.9380  -21.7460  -10.7960 C.2     1  UNL1        0.1460
     32  F         24.3340  -20.9080   -9.9370 F       1  UNL1       -0.2040
@<TRIPOS>BOND
     1    27    26    1
     2    28    26    1
     3    28    29    2
     4    26    25    2
     5    24    23    1
     6    29    30    1
     7    25    23    1
     8    25    31    1
     9     3     4    1
    10     3     2    2
    11     4     5    2
    12    23    21   am
    13     1     2    1
    14    30    31    2
    15    31    32    1
    16     2     7    1
    17     5    21    1
    18     5     6    1
    19    21    22    2
    20     7     6    2
    21     7     8    1
    22     9     8    2
    23     8    11    1
    24     8    10    2
    25    12    11    1
    26    11    13    1
    27    13    14    2
    28    13    19    1
    29    20    19    1
    30    14    15    1
    31    19    17    2
    32    15    16    2
    33    17    16    1
    34    17    18    1
