@<TRIPOS>MOLECULE
49459_out_ligand_01.pdbqt
 37 41 0 0 0
SMALL
GASTEIGER

@<TRIPOS>ATOM
      1  C         23.5290  -22.6810  -11.2190 C.2     1  UNL1        0.0800
      2  C         23.9630  -23.0720   -9.9510 C.2     1  UNL1        0.0270
      3  C         23.0240  -23.2870   -8.9390 C.2     1  UNL1        0.0310
      4  C         21.6540  -23.1380   -9.1870 C.2     1  UNL1        0.0350
      5  C         21.2300  -22.7170  -10.4720 C.2     1  UNL1       -0.0220
      6  C         22.1690  -22.5190  -11.4920 C.2     1  UNL1        0.0350
      7  C         19.7490  -22.6340  -10.7150 C.3     1  UNL1        0.0500
      8  C         19.1450  -21.6960  -11.7130 C.3     1  UNL1       -0.0210
      9  C         17.9580  -21.2540  -11.2660 C.3     1  UNL1       -0.0290
     10  C         17.6660  -21.7690   -9.8810 C.3     1  UNL1        0.0350
     11  C         19.0810  -22.1190   -9.4370 C.3     1  UNL1        0.0280
     12  C         19.3110  -23.1660   -8.3550 C.3     1  UNL1        0.1200
     13  N         20.7580  -23.2710   -8.1140 N.pl3   1  UNL1       -0.3800
     14  H         21.0260  -23.9800   -7.4380 H       1  UNL1        0.1600
     15  S         24.7140  -22.4180  -12.5120 S.O2    1  UNL1        0.2630
     16  O         25.9010  -21.8100  -11.9500 O.2     1  UNL1       -0.2000
     17  O         24.8030  -23.6480  -13.2730 O.2     1  UNL1       -0.2000
     18  N         23.9300  -21.3060  -13.5150 N.pl3   1  UNL1       -0.2810
     19  H         23.0070  -21.6460  -13.7830 H       1  UNL1        0.1790
     20  C         24.7010  -20.6470  -14.5090 C.2     1  UNL1        0.0420
     21  C         24.7150  -21.1270  -15.8170 C.2     1  UNL1        0.0330
     22  C         25.5050  -20.4980  -16.7860 C.2     1  UNL1        0.0390
     23  C         26.2880  -19.3930  -16.4450 C.2     1  UNL1        0.0680
     24  C         26.2630  -18.9210  -15.1290 C.2     1  UNL1        0.0390
     25  C         25.4780  -19.5480  -14.1600 C.2     1  UNL1        0.0330
     26  O         27.0960  -18.6830  -17.2850 O.2     1  UNL1       -0.3520
     27  C         26.5100  -17.7140  -18.1520 C.3     1  UNL1        0.1710
     28  C         26.5600  -16.3320  -17.5260 C.3     1  UNL1        0.0340
     29  C         18.6230  -22.8070   -7.0490 C.2     1  UNL1       -0.0330
     30  C         19.1160  -21.7560   -6.2580 C.2     1  UNL1        0.0090
     31  C         18.5050  -21.4210   -5.0480 C.2     1  UNL1        0.0030
     32  C         17.3880  -22.1290   -4.6050 C.2     1  UNL1        0.0360
     33  C         16.8880  -23.1800   -5.3830 C.2     1  UNL1        0.1030
     34  C         17.4970  -23.5220   -6.5970 C.2     1  UNL1        0.0450
     35  N         15.7130  -23.9310   -4.9210 N.pl3   1  UNL1       -0.1160
     36  O         14.7040  -23.9260   -5.6400 O.2     1  UNL1       -0.5320
     37  O         15.8010  -24.5290   -3.8380 O.2     1  UNL1       -0.5320
@<TRIPOS>BOND
     1    27    28    1
     2    27    26    1
     3    26    23    1
     4    22    23    2
     5    22    21    1
     6    23    24    1
     7    21    20    2
     8    24    25    2
     9    20    25    1
    10    20    18    1
    11    19    18    1
    12    18    15    1
    13    17    15    2
    14    15    16    2
    15    15     1    1
    16     8     9    1
    17     8     7    1
    18     6     1    2
    19     6     5    1
    20     9    10    1
    21     1     2    1
    22     7     5    1
    23     7    11    1
    24     5     4    2
    25     2     3    2
    26    10    11    1
    27    11    12    1
    28     4     3    1
    29     4    13    1
    30    12    13    1
    31    12    29    1
    32    13    14    1
    33    29    34    2
    34    29    30    1
    35    34    33    1
    36    30    31    2
    37    36    35    2
    38    33    35    1
    39    33    32    2
    40    31    32    1
    41    35    37    2
