@<TRIPOS>MOLECULE
49462_out_ligand_01.pdbqt
 33 37 0 0 0
SMALL
GASTEIGER

@<TRIPOS>ATOM
      1  C         17.6500  -22.4580   -9.9040 C.2     1  UNL1        0.0750
      2  C         17.5890  -21.5390  -10.9510 C.2     1  UNL1        0.0260
      3  C         18.7590  -21.2050  -11.6360 C.2     1  UNL1        0.0250
      4  C         19.9860  -21.7900  -11.2960 C.2     1  UNL1        0.0160
      5  C         20.0540  -22.6510  -10.1840 C.2     1  UNL1       -0.0270
      6  C         18.8740  -23.0000   -9.5050 C.2     1  UNL1        0.0340
      7  C         21.3840  -23.2100   -9.7170 C.3     1  UNL1        0.0490
      8  C         21.7210  -22.7960   -8.3090 C.3     1  UNL1       -0.0210
      9  C         22.6380  -21.8230   -8.2800 C.3     1  UNL1       -0.0290
     10  C         23.0700  -21.4420   -9.6600 C.3     1  UNL1        0.0340
     11  C         22.6040  -22.6550  -10.4920 C.3     1  UNL1        0.0230
     12  C         22.2250  -22.3940  -11.9580 C.3     1  UNL1        0.0980
     13  N         21.1440  -21.4040  -11.9930 N.pl3   1  UNL1       -0.2830
     14  H         20.9330  -21.0500  -12.9210 H       1  UNL1        0.1280
     15  S         16.1610  -22.8980   -9.0370 S.O2    1  UNL1        0.2460
     16  O         15.0320  -22.5300   -9.8620 O.2     1  UNL1       -0.2060
     17  O         16.3250  -24.2510   -8.5480 O.2     1  UNL1       -0.2060
     18  N         16.2030  -21.8950   -7.6730 N.pl3   1  UNL1       -0.1780
     19  H         15.5540  -21.1130   -7.7850 H       1  UNL1        0.1460
     20  C         16.2020  -22.5120   -6.3830 C.2     1  UNL1        0.0610
     21  C         15.0080  -22.8790   -5.7620 C.2     1  UNL1        0.0270
     22  C         15.0350  -23.4390   -4.4820 C.2     1  UNL1        0.0020
     23  C         16.2510  -23.6300   -3.8210 C.2     1  UNL1        0.0030
     24  C         17.4460  -23.2640   -4.4400 C.2     1  UNL1        0.0440
     25  C         17.4130  -22.7070   -5.7140 C.2     1  UNL1        0.1380
     26  F         18.5630  -22.3470   -6.3040 F       1  UNL1       -0.2040
     27  C         23.3290  -21.9990  -12.9380 C.2     1  UNL1       -0.0400
     28  C         24.6130  -22.5700  -12.7770 C.2     1  UNL1        0.0120
     29  C         25.6700  -22.2350  -13.6260 C.2     1  UNL1        0.0430
     30  C         25.4640  -21.3110  -14.6390 C.2     1  UNL1        0.1160
     31  F         26.4770  -20.9840  -15.4520 F       1  UNL1       -0.2060
     32  C         24.2250  -20.7120  -14.8080 C.2     1  UNL1        0.0430
     33  C         23.1670  -21.0470  -13.9570 C.2     1  UNL1        0.0120
@<TRIPOS>BOND
     1    31    30    1
     2    32    30    2
     3    32    33    1
     4    30    29    1
     5    33    27    2
     6    29    28    2
     7    27    28    1
     8    27    12    1
     9    14    13    1
    10    13    12    1
    11    13     4    1
    12    12    11    1
    13     3     4    2
    14     3     2    1
    15     4     5    1
    16     2     1    2
    17    11     7    1
    18    11    10    1
    19     5     7    1
    20     5     6    2
    21     1     6    1
    22     1    15    1
    23    16    15    2
    24     7     8    1
    25    10     9    1
    26    15    17    2
    27    15    18    1
    28     8     9    1
    29    19    18    1
    30    18    20    1
    31    20    21    2
    32    20    25    1
    33    26    25    1
    34    21    22    1
    35    25    24    2
    36    22    23    2
    37    24    23    1
