@<TRIPOS>MOLECULE
49473_out_ligand_01.pdbqt
 37 41 0 0 0
SMALL
GASTEIGER

@<TRIPOS>ATOM
      1  C         18.2430  -22.4970  -10.0070 C.2     1  UNL1        0.0750
      2  C         18.1060  -21.4930  -10.9650 C.2     1  UNL1        0.0260
      3  C         19.2160  -21.1200  -11.7220 C.2     1  UNL1        0.0250
      4  C         20.4580  -21.7350  -11.5230 C.2     1  UNL1        0.0160
      5  C         20.6180  -22.6650  -10.4810 C.2     1  UNL1       -0.0270
      6  C         19.4940  -23.0620   -9.7380 C.2     1  UNL1        0.0340
      7  C         21.9810  -23.2410  -10.1580 C.3     1  UNL1        0.0490
      8  C         22.4430  -22.8840   -8.7700 C.3     1  UNL1       -0.0210
      9  C         23.3730  -21.9230   -8.7790 C.3     1  UNL1       -0.0290
     10  C         23.6930  -21.4870  -10.1730 C.3     1  UNL1        0.0340
     11  C         23.1290  -22.6480  -11.0140 C.3     1  UNL1        0.0240
     12  C         22.6170  -22.3260  -12.4250 C.3     1  UNL1        0.1010
     13  N         21.5280  -21.3490  -12.3490 N.pl3   1  UNL1       -0.2830
     14  H         21.8360  -20.4110  -12.0890 H       1  UNL1        0.1280
     15  S         16.8160  -23.0600   -9.1050 S.O2    1  UNL1        0.2460
     16  O         16.0870  -23.9850   -9.9480 O.2     1  UNL1       -0.2060
     17  O         16.1670  -21.8860   -8.5540 O.2     1  UNL1       -0.2060
     18  N         17.4920  -23.8930   -7.7890 N.pl3   1  UNL1       -0.1790
     19  H         16.9510  -24.7420   -7.6070 H       1  UNL1        0.1460
     20  C         17.7380  -23.1410   -6.5920 C.2     1  UNL1        0.0560
     21  C         18.7280  -22.1580   -6.5820 C.2     1  UNL1        0.0340
     22  C         18.9390  -21.3830   -5.4370 C.2     1  UNL1       -0.0600
     23  C         18.1270  -21.5910   -4.3160 C.2     1  UNL1        0.0090
     24  C         19.9790  -20.3020   -5.4280 C.3     1  UNL1        0.0480
     25  C         17.1290  -22.5710   -4.3260 C.2     1  UNL1        0.0390
     26  C         16.9230  -23.3480   -5.4660 C.2     1  UNL1        0.0900
     27  O         15.9690  -24.3310   -5.5860 O.2     1  UNL1       -0.3540
     28  C         14.6260  -23.9300   -5.3370 C.3     1  UNL1        0.2100
     29  C         23.5980  -21.8660  -13.4950 C.2     1  UNL1       -0.0070
     30  C         23.4250  -20.6790  -14.2250 C.2     1  UNL1        0.0110
     31  C         24.3350  -20.2930  -15.2190 C.2     1  UNL1        0.0010
     32  C         25.4520  -21.0760  -15.5060 C.2     1  UNL1        0.0020
     33  C         25.6760  -22.2420  -14.7830 C.2     1  UNL1        0.0370
     34  C         24.7640  -22.6170  -13.7840 C.2     1  UNL1        0.1100
     35  N         25.1080  -23.8070  -13.0100 N.pl3   1  UNL1       -0.1150
     36  O         24.7240  -24.8990  -13.4530 O.2     1  UNL1       -0.5320
     37  O         25.8300  -23.6420  -12.0150 O.2     1  UNL1       -0.5320
@<TRIPOS>BOND
     1    32    31    2
     2    32    33    1
     3    31    30    1
     4    33    34    2
     5    30    29    2
     6    34    29    1
     7    34    35    1
     8    29    12    1
     9    36    35    2
    10    35    37    2
    11    12    13    1
    12    12    11    1
    13    13    14    1
    14    13     4    1
    15     3     4    2
    16     3     2    1
    17     4     5    1
    18    11    10    1
    19    11     7    1
    20     2     1    2
    21     5     7    1
    22     5     6    2
    23    10     9    1
    24     7     8    1
    25     1     6    1
    26     1    15    1
    27    16    15    2
    28    15    17    2
    29    15    18    1
    30     9     8    1
    31    18    19    1
    32    18    20    1
    33    20    21    2
    34    20    26    1
    35    21    22    1
    36    27    26    1
    37    27    28    1
    38    26    25    2
    39    22    24    1
    40    22    23    2
    41    25    23    1
