@<TRIPOS>MOLECULE
49474_out_ligand_01.pdbqt
 32 34 0 0 0
SMALL
GASTEIGER

@<TRIPOS>ATOM
      1  C         19.5230  -22.1310  -10.3680 C.2     1  UNL1        0.0330
      2  C         18.6700  -21.4710  -11.2520 C.2     1  UNL1        0.0170
      3  C         17.2880  -21.5340  -11.0580 C.2     1  UNL1        0.0090
      4  C         16.7280  -22.2660   -9.9940 C.2     1  UNL1       -0.0390
      5  C         15.2310  -22.2720   -9.8590 C.3     1  UNL1        0.0500
      6  C         17.6000  -22.9450   -9.1210 C.2     1  UNL1        0.0860
      7  C         18.9910  -22.8640   -9.3060 C.2     1  UNL1        0.0420
      8  C         20.9970  -22.1230  -10.5510 C.2     1  UNL1        0.2560
      9  N         21.4170  -22.1130  -11.8680 N.am    1  UNL1       -0.3230
     10  H         20.6980  -22.0110  -12.5740 H       1  UNL1        0.1690
     11  O         21.6960  -22.0940   -9.5470 O.2     1  UNL1       -0.2670
     12  C         22.7470  -22.1170  -12.3380 C.2     1  UNL1        0.0360
     13  C         23.0180  -21.3720  -13.4910 C.2     1  UNL1        0.0320
     14  C         24.3120  -21.3110  -14.0250 C.2     1  UNL1        0.0410
     15  C         25.3600  -22.0020  -13.4140 C.2     1  UNL1        0.0900
     16  C         25.0830  -22.7600  -12.2660 C.2     1  UNL1        0.0690
     17  C         23.7890  -22.8170  -11.7320 C.2     1  UNL1        0.0560
     18 CL         26.3300  -23.6540  -11.4610 Cl      1  UNL1       -0.0810
     19  O         26.6540  -22.0030  -13.8670 O.2     1  UNL1       -0.3540
     20  C         26.9060  -21.4200  -15.1380 C.3     1  UNL1        0.2100
     21  S         17.0630  -23.9170   -7.7170 S.O2    1  UNL1        0.2630
     22  O         15.9460  -24.7200   -8.1750 O.2     1  UNL1       -0.2000
     23  O         18.2010  -24.5450   -7.0840 O.2     1  UNL1       -0.2000
     24  N         16.4070  -22.7610   -6.6820 N.pl3   1  UNL1       -0.2800
     25  H         15.7710  -22.1210   -7.1490 H       1  UNL1        0.1790
     26  C         17.1280  -22.3110   -5.5400 C.2     1  UNL1        0.0480
     27  C         18.2090  -21.4430   -5.7220 C.2     1  UNL1        0.0300
     28  C         18.9310  -20.9660   -4.6290 C.2     1  UNL1        0.0020
     29  C         18.5750  -21.3570   -3.3420 C.2     1  UNL1        0.0010
     30  C         17.5050  -22.2320   -3.1530 C.2     1  UNL1        0.0090
     31  C         16.7760  -22.7350   -4.2470 C.2     1  UNL1       -0.0350
     32  C         15.6170  -23.6490   -3.9600 C.3     1  UNL1        0.0500
@<TRIPOS>BOND
     1    20    19    1
     2    14    13    1
     3    14    15    2
     4    19    15    1
     5    13    12    2
     6    15    16    1
     7    10     9    1
     8    12     9    1
     9    12    17    1
    10    16    17    2
    11    16    18    1
    12     9     8   am
    13     2     3    1
    14     2     1    2
    15     3     4    2
    16     8     1    1
    17     8    11    2
    18     1     7    1
    19     4     5    1
    20     4     6    1
    21     7     6    2
    22     6    21    1
    23    22    21    2
    24    21    23    2
    25    21    24    1
    26    25    24    1
    27    24    26    1
    28    27    26    2
    29    27    28    1
    30    26    31    1
    31    28    29    2
    32    31    32    1
    33    31    30    2
    34    29    30    1
