@<TRIPOS>MOLECULE
4947_out_ligand_01.pdbqt
 32 35 0 0 0
SMALL
GASTEIGER

@<TRIPOS>ATOM
      1  C         26.7560  -23.9740  -11.7600 C.3     1  UNL1        0.1630
      2  N         25.6860  -23.2030  -12.3620 N.ar    1  UNL1       -0.2860
      3  C         25.7140  -22.8810  -13.7140 C.ar    1  UNL1        0.3300
      4  O         26.6210  -23.2040  -14.4810 O.2     1  UNL1       -0.2460
      5  N         24.6520  -22.1470  -14.2080 N.ar    1  UNL1       -0.2730
      6  C         23.5640  -21.6750  -13.5070 C.ar    1  UNL1        0.2800
      7  O         22.6940  -20.9920  -14.0330 O.2     1  UNL1       -0.2650
      8  C         23.5930  -22.0570  -12.1390 C.ar    1  UNL1        0.1660
      9  C         24.6160  -22.7790  -11.6020 C.ar    1  UNL1        0.1860
     10  N         24.4420  -22.9940  -10.2750 N.ar    1  UNL1       -0.0420
     11  C         23.2910  -22.4160   -9.9700 C.ar    1  UNL1        0.7250
     12  N         22.7310  -21.8340  -11.0970 N.ar    1  UNL1       -0.1700
     13  H         24.6980  -21.9110  -15.1870 H       1  UNL1        0.1730
     14  N         22.6890  -22.3370   -8.7480 N.pl3   1  UNL1       -0.1070
     15  H         22.8390  -21.4860   -8.2100 H       1  UNL1        0.2080
     16  N         21.4920  -22.9240   -8.4270 N.2     1  UNL1       -0.1720
     17  C         20.7220  -22.2500   -7.6290 C.2     1  UNL1        0.1500
     18  C         19.4220  -22.7780   -7.1710 C.2     1  UNL1       -0.0170
     19  C         19.0690  -24.1150   -7.3930 C.2     1  UNL1        0.0160
     20  C         17.8330  -24.5880   -6.9490 C.2     1  UNL1        0.0430
     21  C         16.9650  -23.7240   -6.2890 C.2     1  UNL1        0.1160
     22  F         15.7800  -24.1800   -5.8640 F       1  UNL1       -0.2060
     23  C         17.3090  -22.3950   -6.0620 C.2     1  UNL1        0.0430
     24  C         18.5440  -21.9160   -6.5040 C.2     1  UNL1        0.0160
     25  C         21.4850  -21.0940  -11.1800 C.3     1  UNL1        0.1530
     26  C         20.4530  -21.8130  -12.0450 C.3     1  UNL1        0.0590
     27  C         19.0890  -21.7890  -11.4030 C.2     1  UNL1       -0.0570
     28  C         18.2690  -20.6600  -11.5330 C.2     1  UNL1        0.0070
     29  C         16.9960  -20.6420  -10.9600 C.2     1  UNL1        0.0010
     30  C         16.5330  -21.7500  -10.2540 C.2     1  UNL1        0.0000
     31  C         17.3400  -22.8780  -10.1220 C.2     1  UNL1        0.0010
     32  C         18.6130  -22.9000  -10.6940 C.2     1  UNL1        0.0070
@<TRIPOS>BOND
     1    13     5    1
     2     4     3    2
     3     5     3   ar
     4     5     6   ar
     5     7     6    2
     6     3     2   ar
     7     6     8   ar
     8     2     1    1
     9     2     9   ar
    10     8     9   ar
    11     8    12   ar
    12    26    27    1
    13    26    25    1
    14     9    10   ar
    15    28    27    2
    16    28    29    1
    17    27    32    1
    18    25    12    1
    19    12    11   ar
    20    29    30    2
    21    32    31    2
    22    10    11   ar
    23    30    31    1
    24    11    14    1
    25    14    16    1
    26    14    15    1
    27    16    17    2
    28    17    18    1
    29    19    18    2
    30    19    20    1
    31    18    24    1
    32    20    21    2
    33    24    23    2
    34    21    23    1
    35    21    22    1
