@<TRIPOS>MOLECULE
49478_out_ligand_01.pdbqt
 31 33 0 0 0
SMALL
GASTEIGER

@<TRIPOS>ATOM
      1  C         17.1650  -21.0280  -11.4910 C.3     1  UNL1        0.0500
      2  C         18.5530  -21.5000  -11.1640 C.2     1  UNL1       -0.0390
      3  C         19.6150  -20.9950  -11.9410 C.2     1  UNL1        0.0090
      4  C         20.9350  -21.3930  -11.7180 C.2     1  UNL1        0.0170
      5  C         21.2200  -22.3270  -10.7210 C.2     1  UNL1        0.0330
      6  C         20.1810  -22.8390   -9.9400 C.2     1  UNL1        0.0420
      7  C         18.8550  -22.4180  -10.1430 C.2     1  UNL1        0.0860
      8  S         17.6350  -23.1470   -9.0530 S.O2    1  UNL1        0.2630
      9  O         16.4820  -23.5750   -9.8140 O.2     1  UNL1       -0.2000
     10  O         18.3430  -24.0870   -8.2080 O.2     1  UNL1       -0.2000
     11  N         17.1940  -21.8650   -8.0490 N.pl3   1  UNL1       -0.2800
     12  H         16.7360  -21.1120   -8.5570 H       1  UNL1        0.1790
     13  C         16.8390  -22.0900   -6.6830 C.2     1  UNL1        0.0490
     14  C         15.5740  -22.5990   -6.3800 C.2     1  UNL1        0.0310
     15  C         15.1980  -22.8180   -5.0590 C.2     1  UNL1        0.0030
     16  C         16.0930  -22.5420   -4.0310 C.2     1  UNL1        0.0070
     17  C         17.3820  -22.0580   -4.3090 C.2     1  UNL1       -0.0540
     18  C         18.3150  -21.8120   -3.1530 C.3     1  UNL1        0.0490
     19  C         17.7710  -21.8330   -5.6510 C.2     1  UNL1       -0.0290
     20  C         19.1700  -21.3770   -5.9870 C.3     1  UNL1        0.0510
     21  C         22.6090  -22.7730  -10.4240 C.2     1  UNL1        0.2510
     22  O         22.7960  -23.7440   -9.7000 O.2     1  UNL1       -0.2680
     23  N         23.6230  -22.0570  -11.0230 N.am    1  UNL1       -0.3530
     24  H         23.3960  -21.4230  -11.7750 H       1  UNL1        0.1630
     25  C         25.0050  -22.4750  -10.9110 C.3     1  UNL1        0.1620
     26  C         25.4590  -23.1610  -12.1650 C.2     1  UNL1       -0.0230
     27  C         24.8570  -22.9120  -13.4010 C.2     1  UNL1        0.0120
     28  C         25.3040  -23.5850  -14.5330 C.2     1  UNL1        0.0200
     29  C         26.3420  -24.4900  -14.3920 C.2     1  UNL1        0.1160
     30  N         26.9450  -24.7600  -13.2160 N.2     1  UNL1       -0.2730
     31  C         26.4910  -24.0940  -12.1300 C.2     1  UNL1        0.1240
@<TRIPOS>BOND
     1    28    29    2
     2    28    27    1
     3    29    30    1
     4    27    26    2
     5    30    31    2
     6    26    31    1
     7    26    25    1
     8     3     4    1
     9     3     2    2
    10    24    23    1
    11     4     5    2
    12     1     2    1
    13     2     7    1
    14    23    25    1
    15    23    21   am
    16     5    21    1
    17     5     6    1
    18    21    22    2
    19     7     6    2
    20     7     8    1
    21     9     8    2
    22     8    10    2
    23     8    11    1
    24    12    11    1
    25    11    13    1
    26    13    14    2
    27    13    19    1
    28    14    15    1
    29    20    19    1
    30    19    17    2
    31    15    16    2
    32    17    16    1
    33    17    18    1
