@<TRIPOS>MOLECULE
49476_out_ligand_01.pdbqt
 37 41 0 0 0
SMALL
GASTEIGER

@<TRIPOS>ATOM
      1  C         22.7210  -22.2090  -11.9450 C.3     1  UNL1        0.1010
      2  N         21.4930  -21.4390  -12.1130 N.pl3   1  UNL1       -0.2830
      3  C         20.3530  -21.8250  -11.4040 C.2     1  UNL1        0.0160
      4  C         19.1300  -21.2310  -11.7510 C.2     1  UNL1        0.0250
      5  C         17.9550  -21.5440  -11.0670 C.2     1  UNL1        0.0270
      6  C         18.0030  -22.4650  -10.0230 C.2     1  UNL1        0.0800
      7  C         19.2020  -23.0950   -9.6850 C.2     1  UNL1        0.0350
      8  C         20.3930  -22.7480  -10.3490 C.2     1  UNL1       -0.0270
      9  C         21.7050  -23.3420   -9.8950 C.3     1  UNL1        0.0490
     10  C         21.9650  -23.1210   -8.4260 C.3     1  UNL1       -0.0210
     11  C         22.8260  -22.1190   -8.2140 C.3     1  UNL1       -0.0290
     12  C         23.2840  -21.5180   -9.5010 C.3     1  UNL1        0.0340
     13  C         22.9340  -22.6380  -10.4930 C.3     1  UNL1        0.0240
     14  H         21.6560  -20.4360  -12.0060 H       1  UNL1        0.1280
     15  S         16.5400  -22.8350   -9.0950 S.O2    1  UNL1        0.2630
     16  O         16.7430  -24.1280   -8.4760 O.2     1  UNL1       -0.2000
     17  O         15.3860  -22.5880   -9.9300 O.2     1  UNL1       -0.2000
     18  N         16.6010  -21.7070   -7.8280 N.pl3   1  UNL1       -0.2800
     19  H         17.2140  -20.9300   -8.0690 H       1  UNL1        0.1790
     20  C         16.6830  -22.1930   -6.4850 C.2     1  UNL1        0.0540
     21  C         15.5080  -22.5440   -5.7940 C.2     1  UNL1       -0.0340
     22  C         14.1260  -22.3430   -6.3510 C.3     1  UNL1        0.0500
     23  C         15.6160  -23.1150   -4.5130 C.2     1  UNL1        0.0090
     24  C         16.8580  -23.2970   -3.9160 C.2     1  UNL1        0.0010
     25  C         18.0110  -22.8940   -4.5800 C.2     1  UNL1        0.0090
     26  C         17.9400  -22.3270   -5.8640 C.2     1  UNL1       -0.0340
     27  C         19.2290  -21.9520   -6.5460 C.3     1  UNL1        0.0500
     28  C         23.9700  -21.5210  -12.5080 C.2     1  UNL1       -0.0040
     29  C         25.0090  -21.2460  -11.5910 C.2     1  UNL1        0.0120
     30  C         26.1580  -20.5530  -11.9690 C.2     1  UNL1        0.0030
     31  C         26.2890  -20.1010  -13.2770 C.2     1  UNL1        0.0390
     32  C         25.2860  -20.3480  -14.2100 C.2     1  UNL1        0.1020
     33  C         24.1540  -21.1010  -13.8430 C.2     1  UNL1        0.1090
     34  O         25.5370  -19.8280  -15.4510 O.2     1  UNL1       -0.3530
     35  C         26.3710  -18.6730  -15.4620 C.3     1  UNL1        0.2100
     36  O         23.2140  -21.4280  -14.7890 O.2     1  UNL1       -0.3520
     37  C         23.7250  -22.4690  -15.6340 C.3     1  UNL1        0.2100
@<TRIPOS>BOND
     1    37    36    1
     2    35    34    1
     3    34    32    1
     4    36    33    1
     5    32    33    1
     6    32    31    2
     7    33    28    2
     8    31    30    1
     9    28     1    1
    10    28    29    1
    11     2    14    1
    12     2     1    1
    13     2     3    1
    14    30    29    2
    15     1    13    1
    16     4     3    2
    17     4     5    1
    18     3     8    1
    19     5     6    2
    20    13     9    1
    21    13    12    1
    22     8     9    1
    23     8     7    2
    24     6     7    1
    25     6    15    1
    26    17    15    2
    27     9    10    1
    28    12    11    1
    29    15    16    2
    30    15    18    1
    31    10    11    1
    32    19    18    1
    33    18    20    1
    34    27    26    1
    35    20    26    2
    36    20    21    1
    37    22    21    1
    38    26    25    1
    39    21    23    2
    40    25    24    2
    41    23    24    1
