@<TRIPOS>MOLECULE
49482_out_ligand_01.pdbqt
 30 33 0 0 0
SMALL
GASTEIGER

@<TRIPOS>ATOM
      1  C         26.9430  -24.6230  -14.4940 C.1     1  UNL1        0.0180
      2  C         26.4280  -23.9260  -13.6630 C.1     1  UNL1       -0.0780
      3  C         25.8100  -23.0980  -12.6720 C.2     1  UNL1        0.0190
      4  C         26.5800  -22.1770  -11.9610 C.2     1  UNL1        0.0210
      5  C         25.9790  -21.3680  -11.0000 C.2     1  UNL1        0.0040
      6  C         24.6100  -21.4820  -10.7510 C.2     1  UNL1        0.0290
      7  C         23.8270  -22.4060  -11.4580 C.2     1  UNL1        0.0360
      8  C         24.4370  -23.2110  -12.4220 C.2     1  UNL1        0.0500
      9  N         22.4500  -22.4500  -11.1470 N.am    1  UNL1       -0.3230
     10  C         21.4340  -21.7280  -11.7450 C.2     1  UNL1        0.2560
     11  O         21.5270  -20.9660  -12.6980 O.2     1  UNL1       -0.2670
     12  H         22.1840  -23.1370  -10.4540 H       1  UNL1        0.1690
     13  C         20.0810  -21.9530  -11.1670 C.2     1  UNL1        0.0330
     14  C         18.9370  -21.3020  -11.6970 C.2     1  UNL1        0.0180
     15  C         17.6670  -21.5320  -11.1540 C.2     1  UNL1        0.0190
     16  C         17.5820  -22.4190  -10.0980 C.2     1  UNL1        0.0480
     17  C         18.6940  -23.0660   -9.5880 C.2     1  UNL1        0.0490
     18  C         16.4210  -22.8650   -9.3290 C.2     1  UNL1        0.2620
     19  C         19.9590  -22.8610  -10.1030 C.2     1  UNL1        0.0350
     20  C         18.2430  -23.9210   -8.4910 C.2     1  UNL1        0.2620
     21  O         18.9770  -24.6200   -7.8200 O.2     1  UNL1       -0.2670
     22  N         16.8890  -23.7540   -8.4020 N.am    1  UNL1       -0.2760
     23  O         15.2840  -22.4820   -9.5220 O.2     1  UNL1       -0.2670
     24  C         16.0580  -24.3910   -7.4060 C.3     1  UNL1        0.1750
     25  C         16.0250  -23.6020   -6.1260 C.2     1  UNL1       -0.0220
     26  C         14.8870  -22.8890   -5.7380 C.2     1  UNL1        0.0120
     27  C         14.8870  -22.1910   -4.5350 C.2     1  UNL1        0.0200
     28  C         16.0290  -22.2350   -3.7520 C.2     1  UNL1        0.1160
     29  N         17.1410  -22.9230   -4.0850 N.2     1  UNL1       -0.2730
     30  C         17.1140  -23.5940   -5.2600 C.2     1  UNL1        0.1240
@<TRIPOS>BOND
     1     1     2    3
     2     2     3    1
     3    11    10    2
     4     3     8    2
     5     3     4    1
     6     8     7    1
     7     4     5    2
     8    10    13    1
     9    10     9   am
    10    14    13    2
    11    14    15    1
    12     7     9    1
    13     7     6    2
    14    13    19    1
    15    15    16    2
    16     9    12    1
    17     5     6    1
    18    19    17    2
    19    16    17    1
    20    16    18    1
    21    17    20    1
    22    23    18    2
    23    18    22   am
    24    20    22   am
    25    20    21    2
    26    22    24    1
    27    24    25    1
    28    25    26    2
    29    25    30    1
    30    26    27    1
    31    30    29    2
    32    27    28    2
    33    29    28    1
