@<TRIPOS>MOLECULE
49496_out_ligand_01.pdbqt
 40 43 0 0 0
SMALL
GASTEIGER

@<TRIPOS>ATOM
      1  C         17.6950  -23.5740   -8.6090 C.2     1  UNL1        0.0860
      2  C         19.0460  -23.9600   -8.5570 C.2     1  UNL1        0.0420
      3  C         19.9760  -23.4300   -9.4560 C.2     1  UNL1        0.0330
      4  C         19.5500  -22.5060  -10.4130 C.2     1  UNL1        0.0170
      5  C         18.2090  -22.1090  -10.4550 C.2     1  UNL1        0.0090
      6  C         17.2590  -22.6380   -9.5630 C.2     1  UNL1       -0.0390
      7  C         15.8460  -22.1330   -9.6570 C.3     1  UNL1        0.0500
      8  C         21.3920  -23.9030   -9.3700 C.2     1  UNL1        0.2560
      9  O         21.6230  -24.9130   -8.7130 O.2     1  UNL1       -0.2670
     10  N         22.3170  -23.1240  -10.0350 N.am    1  UNL1       -0.3220
     11  H         21.9890  -22.2450  -10.4410 H       1  UNL1        0.1690
     12  C         23.7240  -23.2980  -10.1090 C.2     1  UNL1        0.0500
     13  C         24.4410  -23.9970   -9.1310 C.2     1  UNL1        0.0300
     14  C         25.8330  -24.1130   -9.2010 C.2     1  UNL1        0.0020
     15  C         26.5330  -23.5270  -10.2490 C.2     1  UNL1        0.0010
     16  C         25.8400  -22.8420  -11.2460 C.2     1  UNL1        0.0190
     17  C         24.4370  -22.7420  -11.2000 C.2     1  UNL1        0.0580
     18  C         23.7100  -22.0390  -12.3060 C.2     1  UNL1        0.2540
     19  O         22.4900  -22.1350  -12.4140 O.2     1  UNL1       -0.2680
     20  N         24.4790  -21.3340  -13.2040 N.am    1  UNL1       -0.3510
     21  H         25.4710  -21.5280  -13.2700 H       1  UNL1        0.1630
     22  C         23.8830  -20.7370  -14.3770 C.3     1  UNL1        0.1870
     23  C         24.3240  -21.4900  -15.5770 C.2     1  UNL1        0.0700
     24  C         24.6490  -22.8130  -15.7970 C.2     1  UNL1        0.0360
     25  C         25.0060  -22.9170  -17.1640 C.2     1  UNL1        0.0270
     26  C         24.8780  -21.6540  -17.6890 C.2     1  UNL1        0.1420
     27  O         24.4670  -20.7790  -16.7360 O.2     1  UNL1       -0.3250
     28  S         16.5930  -24.2970   -7.3960 S.O2    1  UNL1        0.2630
     29  O         15.4550  -24.8570   -8.0940 O.2     1  UNL1       -0.2000
     30  O         17.3770  -25.1290   -6.5070 O.2     1  UNL1       -0.2000
     31  N         16.0930  -22.9730   -6.4820 N.pl3   1  UNL1       -0.2800
     32  H         15.0860  -22.9510   -6.3490 H       1  UNL1        0.1790
     33  C         16.9360  -22.3920   -5.4850 C.2     1  UNL1        0.0490
     34  C         16.6710  -22.6270   -4.1240 C.2     1  UNL1       -0.0350
     35  C         17.5170  -22.0580   -3.1590 C.2     1  UNL1        0.0090
     36  C         15.5230  -23.4820   -3.6620 C.3     1  UNL1        0.0500
     37  C         18.6020  -21.2680   -3.5350 C.2     1  UNL1        0.0070
     38  C         18.8590  -21.0210   -4.8830 C.2     1  UNL1       -0.0600
     39  C         20.0120  -20.1620   -5.3060 C.3     1  UNL1        0.0480
     40  C         18.0040  -21.5680   -5.8500 C.2     1  UNL1        0.0370
@<TRIPOS>BOND
     1    26    25    2
     2    26    27    1
     3    25    24    1
     4    27    23    1
     5    24    23    2
     6    23    22    1
     7    22    20    1
     8    21    20    1
     9    20    18   am
    10    19    18    2
    11    18    17    1
    12    16    17    1
    13    16    15    2
    14    17    12    2
    15     5     4    2
    16     5     6    1
    17    11    10    1
    18     4     3    1
    19    15    14    1
    20    12    10    1
    21    12    13    1
    22    10     8   am
    23     7     6    1
    24     6     1    2
    25     3     8    1
    26     3     2    2
    27     8     9    2
    28    14    13    2
    29     1     2    1
    30     1    28    1
    31    29    28    2
    32    28    30    2
    33    28    31    1
    34    31    32    1
    35    31    33    1
    36    40    33    2
    37    40    38    1
    38    33    34    1
    39    39    38    1
    40    38    37    2
    41    34    36    1
    42    34    35    2
    43    37    35    1
