@<TRIPOS>MOLECULE
494_out_ligand_01.pdbqt
 35 38 0 0 0
SMALL
GASTEIGER

@<TRIPOS>ATOM
      1  N         19.3900  -23.2690   -7.6560 N.am    1  UNL1       -0.3210
      2  C         20.3930  -22.3550   -7.4240 C.2     1  UNL1        0.2560
      3  O         20.4150  -21.4800   -6.5680 O.2     1  UNL1       -0.2670
      4  H         19.5670  -24.0140   -8.3240 H       1  UNL1        0.1690
      5  C         21.5780  -22.4970   -8.3140 C.2     1  UNL1        0.0320
      6  C         22.3110  -21.3470   -8.6390 C.2     1  UNL1        0.0180
      7  C         23.4210  -21.4390   -9.4820 C.2     1  UNL1        0.0260
      8  C         23.7740  -22.6810  -10.0200 C.2     1  UNL1        0.0790
      9  C         23.0470  -23.8340   -9.7010 C.2     1  UNL1        0.0260
     10  C         21.9440  -23.7410   -8.8500 C.2     1  UNL1        0.0180
     11  S         25.1850  -22.8050  -11.0930 S.O2    1  UNL1        0.2590
     12  O         25.5320  -21.4800  -11.5550 O.2     1  UNL1       -0.2010
     13  O         26.1510  -23.6660  -10.4470 O.2     1  UNL1       -0.2010
     14  N         24.5580  -23.6720  -12.3740 N.3     1  UNL1       -0.3090
     15  H         23.8100  -24.3140  -12.1070 H       1  UNL1        0.1720
     16  C         25.4930  -24.1560  -13.3850 C.3     1  UNL1        0.1970
     17  C         25.1750  -23.4710  -14.6620 C.2     1  UNL1        0.0700
     18  C         24.7980  -22.1840  -14.9820 C.2     1  UNL1        0.0360
     19  C         24.6430  -22.1480  -16.3890 C.2     1  UNL1        0.0270
     20  C         24.9350  -23.4150  -16.8370 C.2     1  UNL1        0.1420
     21  O         25.2520  -24.2280  -15.7960 O.2     1  UNL1       -0.3250
     22  C         18.1380  -23.3680   -7.0100 C.2     1  UNL1        0.0690
     23  C         17.9470  -23.1520   -5.6440 C.2     1  UNL1        0.0320
     24  C         16.6690  -23.2640   -5.0830 C.2     1  UNL1        0.0020
     25  C         15.5720  -23.5970   -5.8790 C.2     1  UNL1        0.0030
     26  C         15.7460  -23.8160   -7.2420 C.2     1  UNL1        0.0390
     27  C         17.0200  -23.6820   -7.8040 C.2     1  UNL1        0.1020
     28  O         17.2190  -23.9260   -9.1470 O.2     1  UNL1       -0.3080
     29  C         17.6090  -22.8630   -9.9320 C.2     1  UNL1        0.0760
     30  C         16.6450  -21.8800  -10.1550 C.2     1  UNL1        0.0370
     31  C         16.9390  -20.7890  -10.9700 C.2     1  UNL1        0.0030
     32  C         18.1940  -20.6830  -11.5690 C.2     1  UNL1        0.0070
     33  C         19.1680  -21.6650  -11.3560 C.2     1  UNL1       -0.0590
     34  C         20.5030  -21.5680  -12.0360 C.3     1  UNL1        0.0480
     35  C         18.8600  -22.7680  -10.5480 C.2     1  UNL1        0.0440
@<TRIPOS>BOND
     1    20    19    2
     2    20    21    1
     3    19    18    1
     4    21    17    1
     5    18    17    2
     6    17    16    1
     7    16    14    1
     8    14    15    1
     9    14    11    1
    10    34    33    1
    11    32    33    2
    12    32    31    1
    13    12    11    2
    14    33    35    1
    15    11    13    2
    16    11     8    1
    17    31    30    2
    18    35    29    2
    19    30    29    1
    20     8     9    2
    21     8     7    1
    22    29    28    1
    23     9    10    1
    24     7     6    2
    25    28    27    1
    26    10     5    2
    27     6     5    1
    28     4     1    1
    29     5     2    1
    30    27    26    1
    31    27    22    2
    32     1     2   am
    33     1    22    1
    34     2     3    2
    35    26    25    2
    36    22    23    1
    37    25    24    1
    38    23    24    2
