@<TRIPOS>MOLECULE
49531_out_ligand_01.pdbqt
 33 35 0 0 0
SMALL
GASTEIGER

@<TRIPOS>ATOM
      1  C         18.6310  -22.2670  -10.3640 C.2     1  UNL1        0.0810
      2  C         19.9420  -22.7710  -10.3500 C.2     1  UNL1        0.0420
      3  C         20.9370  -22.1570  -11.1150 C.2     1  UNL1        0.0330
      4  C         20.6240  -21.0490  -11.9070 C.2     1  UNL1        0.0170
      5  C         19.3200  -20.5460  -11.9180 C.2     1  UNL1        0.0090
      6  C         18.3040  -21.1460  -11.1530 C.2     1  UNL1       -0.0390
      7  C         16.9260  -20.5420  -11.2020 C.3     1  UNL1        0.0500
      8  C         22.3100  -22.7310  -11.0930 C.2     1  UNL1        0.2560
      9  O         22.6110  -23.4620  -10.1590 O.2     1  UNL1       -0.2670
     10  N         23.1210  -22.3280  -12.1380 N.am    1  UNL1       -0.3220
     11  H         22.7540  -21.5930  -12.7250 H       1  UNL1        0.1690
     12  C         24.4470  -22.7430  -12.4110 C.2     1  UNL1        0.0430
     13  C         24.7460  -23.6920  -13.3990 C.2     1  UNL1        0.0660
     14  C         26.0750  -24.0680  -13.6370 C.2     1  UNL1        0.1050
     15  C         27.1210  -23.5070  -12.9020 C.2     1  UNL1        0.0370
     16  C         26.8320  -22.5570  -11.9240 C.2     1  UNL1        0.0110
     17  C         25.5050  -22.1640  -11.6700 C.2     1  UNL1       -0.0350
     18  C         25.2670  -21.1350  -10.5950 C.3     1  UNL1        0.0500
     19  N         26.3770  -25.0580  -14.6760 N.pl3   1  UNL1       -0.1160
     20  O         26.0320  -24.7920  -15.8380 O.2     1  UNL1       -0.5320
     21  O         26.9460  -26.1030  -14.3360 O.2     1  UNL1       -0.5320
     22  S         17.4200  -23.0850   -9.3310 S.O2    1  UNL1        0.2460
     23  O         16.6790  -22.0620   -8.6220 O.2     1  UNL1       -0.2060
     24  O         16.7520  -24.0810  -10.1370 O.2     1  UNL1       -0.2060
     25  N         18.4420  -23.8260   -8.1810 N.pl3   1  UNL1       -0.1810
     26  H         19.3790  -23.8620   -8.5890 H       1  UNL1        0.1460
     27  C         18.4720  -23.1490   -6.9170 C.2     1  UNL1        0.0220
     28  C         19.2160  -21.9800   -6.7660 C.2     1  UNL1        0.0250
     29  C         19.2070  -21.3020   -5.5440 C.2     1  UNL1        0.0080
     30  C         18.4370  -21.7770   -4.4750 C.2     1  UNL1       -0.0620
     31  C         18.4450  -21.0680   -3.1530 C.3     1  UNL1        0.0480
     32  C         17.6880  -22.9490   -4.6410 C.2     1  UNL1        0.0080
     33  C         17.6960  -23.6270   -5.8630 C.2     1  UNL1        0.0250
@<TRIPOS>BOND
     1    20    19    2
     2    19    21    2
     3    19    14    1
     4    14    13    1
     5    14    15    2
     6    13    12    2
     7    15    16    1
     8    11    10    1
     9    12    10    1
    10    12    17    1
    11    10     8   am
    12    16    17    2
    13     5     4    2
    14     5     6    1
    15     4     3    1
    16    17    18    1
    17     7     6    1
    18     6     1    2
    19     3     8    1
    20     3     2    2
    21     8     9    2
    22     1     2    1
    23     1    22    1
    24    24    22    2
    25    22    23    2
    26    22    25    1
    27    26    25    1
    28    25    27    1
    29    27    28    2
    30    27    33    1
    31    28    29    1
    32    33    32    2
    33    29    30    2
    34    32    30    1
    35    30    31    1
