@<TRIPOS>MOLECULE
49540_out_ligand_01.pdbqt
 33 36 0 0 0
SMALL
GASTEIGER

@<TRIPOS>ATOM
      1  C         18.3430  -24.7800   -7.2050 C.3     1  UNL1        0.0500
      2  C         19.0390  -24.0260   -8.3040 C.2     1  UNL1       -0.0390
      3  C         20.4250  -24.2140   -8.4570 C.2     1  UNL1        0.0090
      4  C         21.1410  -23.5440   -9.4530 C.2     1  UNL1        0.0170
      5  C         20.4820  -22.6560  -10.3070 C.2     1  UNL1        0.0330
      6  C         19.1070  -22.4540  -10.1730 C.2     1  UNL1        0.0420
      7  C         18.3850  -23.1340   -9.1780 C.2     1  UNL1        0.0860
      8  C         21.2090  -21.9370  -11.3900 C.2     1  UNL1        0.2560
      9  O         20.6020  -21.0870  -12.0280 O.2     1  UNL1       -0.2670
     10  N         22.5360  -22.3010  -11.5330 N.am    1  UNL1       -0.3230
     11  H         22.9200  -22.9180  -10.8290 H       1  UNL1        0.1690
     12  C         23.4500  -21.8250  -12.4980 C.2     1  UNL1        0.0370
     13  C         24.7390  -21.4740  -12.0350 C.2     1  UNL1        0.0320
     14  C         25.7200  -20.9970  -12.9120 C.2     1  UNL1        0.0420
     15  C         25.3860  -20.8880  -14.2430 C.2     1  UNL1        0.1050
     16  C         24.1380  -21.2320  -14.7020 C.2     1  UNL1        0.1070
     17  O         26.2060  -20.4510  -15.2350 O.2     1  UNL1       -0.3230
     18  C         23.1500  -21.7010  -13.8580 C.2     1  UNL1        0.0690
     19  O         24.0160  -21.0540  -16.0460 O.2     1  UNL1       -0.3230
     20  C         25.3290  -20.5560  -16.3760 C.3     1  UNL1        0.3520
     21  S         16.6320  -22.7800   -9.0650 S.O2    1  UNL1        0.2630
     22  O         15.9530  -24.0050   -8.6970 O.2     1  UNL1       -0.2000
     23  O         16.2310  -22.0600  -10.2550 O.2     1  UNL1       -0.2000
     24  N         16.5370  -21.6810   -7.7900 N.pl3   1  UNL1       -0.2800
     25  H         17.0850  -20.8390   -7.9450 H       1  UNL1        0.1790
     26  C         16.3380  -22.1520   -6.4590 C.2     1  UNL1        0.0490
     27  C         15.1140  -22.7470   -6.1410 C.2     1  UNL1        0.0310
     28  C         14.8990  -23.2930   -4.8810 C.2     1  UNL1        0.0030
     29  C         15.9120  -23.2510   -3.9290 C.2     1  UNL1        0.0070
     30  C         17.1500  -22.6550   -4.2220 C.2     1  UNL1       -0.0540
     31  C         18.2110  -22.6530   -3.1530 C.3     1  UNL1        0.0490
     32  C         17.3640  -22.0680   -5.4930 C.2     1  UNL1       -0.0290
     33  C         18.6980  -21.4400   -5.8040 C.3     1  UNL1        0.0510
@<TRIPOS>BOND
     1    20    19    1
     2    20    17    1
     3    19    16    1
     4    17    15    1
     5    16    15    2
     6    16    18    1
     7    15    14    1
     8    18    12    2
     9    14    13    2
    10    12    13    1
    11    12    10    1
    12     9     8    2
    13    10     8   am
    14    10    11    1
    15     8     5    1
    16     5     6    2
    17     5     4    1
    18    23    21    2
    19     6     7    1
    20     4     3    2
    21     7    21    1
    22     7     2    2
    23    21    22    2
    24    21    24    1
    25     3     2    1
    26     2     1    1
    27    25    24    1
    28    24    26    1
    29    26    27    2
    30    26    32    1
    31    27    28    1
    32    33    32    1
    33    32    30    2
    34    28    29    2
    35    30    29    1
    36    30    31    1
