@<TRIPOS>MOLECULE
49557_out_ligand_01.pdbqt
 33 36 0 0 0
SMALL
GASTEIGER

@<TRIPOS>ATOM
      1  C         18.4540  -22.4900   -9.9200 C.2     1  UNL1        0.0860
      2  C         19.7950  -22.9150   -9.8530 C.2     1  UNL1        0.0420
      3  C         20.7490  -22.3770  -10.7200 C.2     1  UNL1        0.0330
      4  C         20.3580  -21.4340  -11.6710 C.2     1  UNL1        0.0170
      5  C         19.0300  -21.0050  -11.7330 C.2     1  UNL1        0.0090
      6  C         18.0560  -21.5170  -10.8570 C.2     1  UNL1       -0.0390
      7  C         16.6560  -20.9820  -10.9730 C.3     1  UNL1        0.0500
      8  C         22.1770  -22.7920  -10.6750 C.2     1  UNL1        0.2510
      9  O         22.5270  -23.6970   -9.9270 O.2     1  UNL1       -0.2680
     10  N         23.0280  -22.1320  -11.5370 N.am    1  UNL1       -0.3530
     11  H         22.6290  -21.5930  -12.2920 H       1  UNL1        0.1630
     12  C         24.4010  -22.5540  -11.7040 C.3     1  UNL1        0.1610
     13  C         24.6840  -22.8930  -13.1460 C.2     1  UNL1       -0.0380
     14  C         25.2910  -24.1270  -13.4780 C.2     1  UNL1        0.0120
     15  C         25.5360  -24.4750  -14.8090 C.2     1  UNL1        0.0400
     16  C         25.1630  -23.5770  -15.7850 C.2     1  UNL1        0.1050
     17  C         24.5660  -22.3790  -15.4740 C.2     1  UNL1        0.1050
     18  O         25.3240  -23.7460  -17.1250 O.2     1  UNL1       -0.3230
     19  C         24.3100  -22.0080  -14.1710 C.2     1  UNL1        0.0480
     20  O         24.2710  -21.6450  -16.5810 O.2     1  UNL1       -0.3230
     21  C         24.7490  -22.5210  -17.6230 C.3     1  UNL1        0.3520
     22  S         17.3410  -23.2320   -8.7330 S.O2    1  UNL1        0.2630
     23  O         18.0220  -24.2380   -7.9530 O.2     1  UNL1       -0.2000
     24  O         16.1320  -23.5700   -9.4610 O.2     1  UNL1       -0.2000
     25  N         16.9200  -21.9240   -7.7470 N.pl3   1  UNL1       -0.2800
     26  H         16.1860  -21.3670   -8.1820 H       1  UNL1        0.1790
     27  C         16.8270  -22.1360   -6.3420 C.2     1  UNL1        0.0480
     28  C         15.6030  -22.5570   -5.8130 C.2     1  UNL1        0.0300
     29  C         15.4570  -22.7410   -4.4390 C.2     1  UNL1        0.0020
     30  C         16.5340  -22.5050   -3.5900 C.2     1  UNL1        0.0010
     31  C         17.7590  -22.0870   -4.1150 C.2     1  UNL1        0.0090
     32  C         17.9210  -21.8940   -5.4960 C.2     1  UNL1       -0.0350
     33  C         19.2580  -21.4570   -6.0250 C.3     1  UNL1        0.0500
@<TRIPOS>BOND
     1    21    18    1
     2    21    20    1
     3    18    16    1
     4    20    17    1
     5    16    17    2
     6    16    15    1
     7    17    19    1
     8    15    14    2
     9    19    13    2
    10    14    13    1
    11    13    12    1
    12    11    10    1
    13     5     4    2
    14     5     6    1
    15    12    10    1
    16     4     3    1
    17    10     8   am
    18     7     6    1
    19     6     1    2
    20     3     8    1
    21     3     2    2
    22     8     9    2
    23     1     2    1
    24     1    22    1
    25    24    22    2
    26    22    23    2
    27    22    25    1
    28    26    25    1
    29    25    27    1
    30    27    28    2
    31    27    32    1
    32    33    32    1
    33    28    29    1
    34    32    31    2
    35    29    30    2
    36    31    30    1
