@<TRIPOS>MOLECULE
49564_out_ligand_01.pdbqt
 36 40 0 0 0
SMALL
GASTEIGER

@<TRIPOS>ATOM
      1  C         19.4910  -23.2130   -8.3240 C.3     1  UNL1        0.1230
      2  N         20.9510  -23.3240   -8.1180 N.pl3   1  UNL1       -0.3800
      3  C         21.8220  -23.1930   -9.2100 C.2     1  UNL1        0.0350
      4  C         23.1950  -23.3670   -8.9970 C.2     1  UNL1        0.0310
      5  C         24.1130  -23.1500  -10.0260 C.2     1  UNL1        0.0270
      6  C         23.6570  -22.7280  -11.2750 C.2     1  UNL1        0.0800
      7  C         22.2920  -22.5500  -11.5170 C.2     1  UNL1        0.0350
      8  C         21.3740  -22.7510  -10.4790 C.2     1  UNL1       -0.0220
      9  C         19.8890  -22.6520  -10.6880 C.3     1  UNL1        0.0500
     10  C         19.2800  -21.6900  -11.6620 C.3     1  UNL1       -0.0210
     11  C         18.1060  -21.2410  -11.1860 C.3     1  UNL1       -0.0290
     12  C         17.8310  -21.7810   -9.8070 C.3     1  UNL1        0.0350
     13  C         19.2490  -22.1520   -9.3900 C.3     1  UNL1        0.0280
     14  H         21.2130  -24.0560   -7.4630 H       1  UNL1        0.1600
     15  S         24.8200  -22.4360  -12.5900 S.O2    1  UNL1        0.2630
     16  O         24.8160  -23.6070  -13.4430 O.2     1  UNL1       -0.2000
     17  O         26.0470  -21.9370  -12.0070 O.2     1  UNL1       -0.2000
     18  N         24.0780  -21.2050  -13.4820 N.pl3   1  UNL1       -0.2810
     19  H         23.4900  -20.6180  -12.8930 H       1  UNL1        0.1790
     20  C         24.8030  -20.5800  -14.5320 C.2     1  UNL1        0.0420
     21  C         24.6730  -21.0720  -15.8340 C.2     1  UNL1        0.0330
     22  C         25.3480  -20.4450  -16.8830 C.2     1  UNL1        0.0440
     23  C         26.1460  -19.3360  -16.6210 C.2     1  UNL1        0.1160
     24  F         26.7920  -18.7370  -17.6290 F       1  UNL1       -0.2060
     25  C         26.2820  -18.8430  -15.3290 C.2     1  UNL1        0.0440
     26  C         25.6050  -19.4650  -14.2790 C.2     1  UNL1        0.0330
     27  C         18.8230  -22.8520   -7.0060 C.2     1  UNL1        0.0010
     28  C         19.2220  -21.7000   -6.3050 C.2     1  UNL1        0.0120
     29  C         18.6130  -21.3480   -5.1040 C.2     1  UNL1        0.0030
     30  C         17.5990  -22.1450   -4.5740 C.2     1  UNL1        0.0390
     31  C         17.1740  -23.2970   -5.2470 C.2     1  UNL1        0.1020
     32  C         17.7640  -23.6260   -6.4860 C.2     1  UNL1        0.1090
     33  O         16.2140  -24.1470   -4.7630 O.2     1  UNL1       -0.3530
     34  C         14.8970  -23.6370   -4.6040 C.3     1  UNL1        0.2100
     35  O         17.4120  -24.7310   -7.2270 O.2     1  UNL1       -0.3520
     36  C         16.1750  -24.6100   -7.9270 C.3     1  UNL1        0.2100
@<TRIPOS>BOND
     1    24    23    1
     2    22    23    2
     3    22    21    1
     4    23    25    1
     5    21    20    2
     6    25    26    2
     7    20    26    1
     8    20    18    1
     9    18    19    1
    10    18    15    1
    11    16    15    2
    12    15    17    2
    13    15     6    1
    14    10    11    1
    15    10     9    1
    16     7     6    2
    17     7     8    1
    18     6     5    1
    19    11    12    1
    20     9     8    1
    21     9    13    1
    22     8     3    2
    23     5     4    2
    24    12    13    1
    25    13     1    1
    26     3     4    1
    27     3     2    1
    28     1     2    1
    29     1    27    1
    30     2    14    1
    31    36    35    1
    32    35    32    1
    33    27    32    2
    34    27    28    1
    35    32    31    1
    36    28    29    2
    37    31    33    1
    38    31    30    2
    39    29    30    1
    40    33    34    1
