@<TRIPOS>MOLECULE
49569_out_ligand_01.pdbqt
 35 38 0 0 0
SMALL
GASTEIGER

@<TRIPOS>ATOM
      1  C         19.3470  -22.4020   -6.7020 C.2     1  UNL1        0.2560
      2  O         19.1590  -21.2730   -6.2640 O.2     1  UNL1       -0.2670
      3  N         18.5610  -23.5100   -6.4640 N.am    1  UNL1       -0.3220
      4  H         18.7700  -24.3550   -6.9950 H       1  UNL1        0.1690
      5  C         17.4180  -23.6230   -5.6340 C.2     1  UNL1        0.0500
      6  C         17.4960  -23.6460   -4.2370 C.2     1  UNL1        0.0300
      7  C         16.3390  -23.7480   -3.4560 C.2     1  UNL1        0.0020
      8  C         15.0860  -23.8290   -4.0560 C.2     1  UNL1        0.0010
      9  C         14.9850  -23.8240   -5.4460 C.2     1  UNL1        0.0190
     10  C         16.1440  -23.7360   -6.2360 C.2     1  UNL1        0.0580
     11  C         16.0210  -23.7840   -7.7210 C.2     1  UNL1        0.2540
     12  O         15.5900  -24.7950   -8.2670 O.2     1  UNL1       -0.2680
     13  N         16.3440  -22.6270   -8.3970 N.am    1  UNL1       -0.3510
     14  H         16.4460  -21.7790   -7.8590 H       1  UNL1        0.1630
     15  C         15.9820  -22.4680   -9.7910 C.3     1  UNL1        0.1870
     16  C         17.1490  -21.9120  -10.5330 C.2     1  UNL1        0.0700
     17  C         17.3160  -20.8040  -11.3430 C.2     1  UNL1        0.0360
     18  C         18.6760  -20.8080  -11.7530 C.2     1  UNL1        0.0270
     19  C         19.2490  -21.9180  -11.1720 C.2     1  UNL1        0.1420
     20  O         18.3310  -22.5930  -10.4290 O.2     1  UNL1       -0.3250
     21  C         20.5300  -22.6340   -7.5880 C.2     1  UNL1        0.0320
     22  C         21.5500  -21.6740   -7.5980 C.2     1  UNL1        0.0170
     23  C         22.6870  -21.8560   -8.3910 C.2     1  UNL1        0.0090
     24  C         22.8250  -23.0040   -9.1840 C.2     1  UNL1       -0.0490
     25  C         21.8060  -23.9690   -9.1640 C.2     1  UNL1        0.0090
     26  C         20.6700  -23.7900   -8.3690 C.2     1  UNL1        0.0170
     27  C         24.0670  -23.2180  -10.0160 C.3     1  UNL1        0.1170
     28  S         24.6770  -21.6830  -10.7920 S.3     1  UNL1       -0.1250
     29  C         24.7030  -22.1980  -12.4990 C.2     1  UNL1        0.0000
     30  C         25.2900  -23.4160  -12.8510 C.2     1  UNL1        0.0190
     31  C         25.3140  -23.8300  -14.1880 C.2     1  UNL1        0.0080
     32  C         24.7600  -23.0240  -15.1890 C.2     1  UNL1       -0.0620
     33  C         24.7550  -23.4820  -16.6190 C.3     1  UNL1        0.0480
     34  C         24.1660  -21.8080  -14.8300 C.2     1  UNL1        0.0080
     35  C         24.1490  -21.3910  -13.4940 C.2     1  UNL1        0.0190
@<TRIPOS>BOND
     1    33    32    1
     2    32    34    2
     3    32    31    1
     4    34    35    1
     5    31    30    2
     6    35    29    2
     7    30    29    1
     8    29    28    1
     9    18    17    1
    10    18    19    2
    11    17    16    2
    12    19    20    1
    13    28    27    1
    14    16    20    1
    15    16    15    1
    16    27    24    1
    17    15    13    1
    18    24    25    2
    19    24    23    1
    20    25    26    1
    21    13    14    1
    22    13    11   am
    23    23    22    2
    24    26    21    2
    25    12    11    2
    26    11    10    1
    27    22    21    1
    28    21     1    1
    29     4     3    1
    30     1     3   am
    31     1     2    2
    32     3     5    1
    33    10     5    2
    34    10     9    1
    35     5     6    1
    36     9     8    2
    37     6     7    2
    38     8     7    1
