@<TRIPOS>MOLECULE
4956_out_ligand_01.pdbqt
 33 36 0 0 0
SMALL
GASTEIGER

@<TRIPOS>ATOM
      1  C         26.7890  -23.9640  -11.2330 C.3     1  UNL1        0.1630
      2  N         25.7470  -23.2860  -11.9800 N.ar    1  UNL1       -0.2860
      3  C         25.8400  -23.1370  -13.3590 C.ar    1  UNL1        0.3300
      4  O         26.7790  -23.5550  -14.0370 O.2     1  UNL1       -0.2460
      5  N         24.8020  -22.4770  -13.9930 N.ar    1  UNL1       -0.2730
      6  C         23.6670  -21.9560  -13.4140 C.ar    1  UNL1        0.2800
      7  O         22.7860  -21.4130  -14.0720 O.2     1  UNL1       -0.2650
      8  C         23.6450  -22.1350  -12.0050 C.ar    1  UNL1        0.1660
      9  C         24.6410  -22.7780  -11.3330 C.ar    1  UNL1        0.1860
     10  N         24.3920  -22.8440  -10.0020 N.ar    1  UNL1       -0.0420
     11  C         23.2280  -22.2400   -9.8290 C.ar    1  UNL1        0.7250
     12  N         22.7440  -21.7690  -11.0390 N.ar    1  UNL1       -0.1700
     13  H         24.8840  -22.3880  -14.9930 H       1  UNL1        0.1730
     14  N         22.5390  -22.0620   -8.6650 N.pl3   1  UNL1       -0.1070
     15  H         22.5910  -21.1430   -8.2320 H       1  UNL1        0.2080
     16  N         21.3630  -22.6930   -8.3530 N.2     1  UNL1       -0.1710
     17  C         20.6540  -22.1520   -7.4090 C.2     1  UNL1        0.1550
     18  C         19.3930  -22.7470   -6.9220 C.2     1  UNL1        0.0430
     19  C         18.9690  -23.9950   -7.3920 C.2     1  UNL1        0.1290
     20  F         19.6700  -24.6790   -8.3080 F       1  UNL1       -0.2050
     21  C         17.7800  -24.5700   -6.9400 C.2     1  UNL1        0.0430
     22  C         16.9940  -23.9010   -6.0070 C.2     1  UNL1        0.0050
     23  C         17.4020  -22.6560   -5.5310 C.2     1  UNL1        0.0250
     24  C         18.5970  -22.0780   -5.9830 C.2     1  UNL1        0.0480
     25 CL         19.0170  -20.5400   -5.3090 Cl      1  UNL1       -0.0830
     26  C         21.5270  -21.0110  -11.2630 C.3     1  UNL1        0.1530
     27  C         20.5050  -21.8030  -12.0760 C.3     1  UNL1        0.0590
     28  C         19.1400  -21.7480  -11.4420 C.2     1  UNL1       -0.0570
     29  C         18.6620  -22.8380  -10.7030 C.2     1  UNL1        0.0070
     30  C         17.3890  -22.8020  -10.1330 C.2     1  UNL1        0.0010
     31  C         16.5820  -21.6770  -10.2970 C.2     1  UNL1        0.0000
     32  C         17.0480  -20.5890  -11.0330 C.2     1  UNL1        0.0010
     33  C         18.3210  -20.6230  -11.6050 C.2     1  UNL1        0.0070
@<TRIPOS>BOND
     1    13     5    1
     2     7     6    2
     3     4     3    2
     4     5     6   ar
     5     5     3   ar
     6     6     8   ar
     7     3     2   ar
     8    27    28    1
     9    27    26    1
    10     8     9   ar
    11     8    12   ar
    12     2     9   ar
    13     2     1    1
    14    33    28    2
    15    33    32    1
    16    28    29    1
    17     9    10   ar
    18    26    12    1
    19    12    11   ar
    20    32    31    2
    21    29    30    2
    22    31    30    1
    23    10    11   ar
    24    11    14    1
    25    14    16    1
    26    14    15    1
    27    16    17    2
    28    20    19    1
    29    17    18    1
    30    19    21    1
    31    19    18    2
    32    21    22    2
    33    18    24    1
    34    22    23    1
    35    24    23    2
    36    24    25    1
