@<TRIPOS>MOLECULE
49589_out_ligand_01.pdbqt
 30 33 0 0 0
SMALL
GASTEIGER

@<TRIPOS>ATOM
      1  C         20.9090  -22.7940  -10.3550 C.2     1  UNL1        0.0330
      2  C         20.1650  -21.9170  -11.1870 C.2     1  UNL1        0.0180
      3  C         20.7530  -21.2860  -12.2900 C.2     1  UNL1        0.0190
      4  C         22.0840  -21.5610  -12.5330 C.2     1  UNL1        0.0480
      5  C         22.8090  -22.4230  -11.7310 C.2     1  UNL1        0.0490
      6  C         22.2560  -23.0650  -10.6370 C.2     1  UNL1        0.0350
      7  C         24.1650  -22.4920  -12.2720 C.2     1  UNL1        0.2620
      8  O         25.0590  -23.1550  -11.7840 O.2     1  UNL1       -0.2670
      9  N         24.1870  -21.6770  -13.3680 N.am    1  UNL1       -0.2760
     10  C         22.9770  -21.0820  -13.5880 C.2     1  UNL1        0.2620
     11  O         22.6490  -20.3020  -14.4610 O.2     1  UNL1       -0.2670
     12  C         20.2030  -23.4380   -9.2080 C.2     1  UNL1        0.2560
     13  N         19.1690  -22.7020   -8.6620 N.am    1  UNL1       -0.3230
     14  H         18.8970  -21.8520   -9.1390 H       1  UNL1        0.1690
     15  O         20.5680  -24.5580   -8.8730 O.2     1  UNL1       -0.2670
     16  C         18.3680  -23.0450   -7.5500 C.2     1  UNL1        0.0350
     17  C         17.3460  -23.9770   -7.7660 C.2     1  UNL1        0.0290
     18  C         16.5030  -24.3610   -6.7230 C.2     1  UNL1        0.0030
     19  C         16.6760  -23.8170   -5.4510 C.2     1  UNL1        0.0110
     20  C         17.6970  -22.8900   -5.2080 C.2     1  UNL1       -0.0350
     21  C         18.5280  -22.5000   -6.2730 C.2     1  UNL1        0.0410
     22  C         17.8220  -22.3200   -3.8580 C.2     1  UNL1        0.0010
     23  C         18.5600  -21.2460   -3.5490 C.2     1  UNL1        0.0120
     24  C         25.3440  -21.4970  -14.2150 C.3     1  UNL1        0.1750
     25  C         25.1010  -22.0230  -15.6030 C.2     1  UNL1       -0.0220
     26  C         25.0640  -21.1710  -16.7110 C.2     1  UNL1        0.0120
     27  C         24.8140  -21.6940  -17.9750 C.2     1  UNL1        0.0200
     28  C         24.5990  -23.0560  -18.0910 C.2     1  UNL1        0.1160
     29  N         24.6140  -23.9100  -17.0440 N.2     1  UNL1       -0.2730
     30  C         24.8580  -23.3750  -15.8260 C.2     1  UNL1        0.1240
@<TRIPOS>BOND
     1    28    27    2
     2    28    29    1
     3    27    26    1
     4    29    30    2
     5    26    25    2
     6    30    25    1
     7    25    24    1
     8    11    10    2
     9    24     9    1
    10    10     9   am
    11    10     4    1
    12     9     7   am
    13     4     3    2
    14     4     5    1
    15     3     2    1
    16     7     8    2
    17     7     5    1
    18     5     6    2
    19     2     1    2
    20     6     1    1
    21     1    12    1
    22    12    15    2
    23    12    13   am
    24    14    13    1
    25    13    16    1
    26    17    16    2
    27    17    18    1
    28    16    21    1
    29    18    19    2
    30    21    20    2
    31    19    20    1
    32    20    22    1
    33    22    23    2
