@<TRIPOS>MOLECULE
49586_out_ligand_01.pdbqt
 32 35 0 0 0
SMALL
GASTEIGER

@<TRIPOS>ATOM
      1  C         19.1570  -22.0380  -10.5290 C.2     1  UNL1        0.0330
      2  C         18.9540  -21.1930  -11.6500 C.2     1  UNL1        0.0180
      3  C         19.9900  -20.9290  -12.5560 C.2     1  UNL1        0.0190
      4  C         21.2110  -21.5180  -12.3020 C.2     1  UNL1        0.0480
      5  C         21.4150  -22.3320  -11.2030 C.2     1  UNL1        0.0490
      6  C         20.4150  -22.6120  -10.2900 C.2     1  UNL1        0.0350
      7  C         22.8060  -22.7760  -11.2360 C.2     1  UNL1        0.2620
      8  O         23.2940  -23.5320  -10.4170 O.2     1  UNL1       -0.2670
      9  N         23.3720  -22.1970  -12.3350 N.am    1  UNL1       -0.2740
     10  C         22.4740  -21.4450  -13.0380 C.2     1  UNL1        0.2620
     11  O         22.6140  -20.8400  -14.0830 O.2     1  UNL1       -0.2670
     12  C         18.0100  -22.2600   -9.5990 C.2     1  UNL1        0.2560
     13  N         18.2950  -23.0380   -8.4910 N.am    1  UNL1       -0.3220
     14  H         19.2040  -23.4760   -8.4740 H       1  UNL1        0.1690
     15  O         16.9280  -21.7790   -9.9080 O.2     1  UNL1       -0.2670
     16  C         17.4400  -23.3400   -7.4010 C.2     1  UNL1        0.0420
     17  C         17.6470  -22.6950   -6.1530 C.2     1  UNL1       -0.0180
     18  C         18.8280  -21.7810   -5.9280 C.3     1  UNL1        0.0520
     19  C         16.7110  -22.9120   -5.1090 C.2     1  UNL1        0.0450
     20  C         15.6470  -23.8090   -5.2820 C.2     1  UNL1        0.0190
     21  C         15.4840  -24.4740   -6.4900 C.2     1  UNL1        0.0030
     22  C         16.3660  -24.2300   -7.5410 C.2     1  UNL1        0.0300
     23  C         16.7890  -22.1670   -3.8240 C.2     1  UNL1        0.1760
     24  O         17.7970  -21.8790   -3.2070 O.2     1  UNL1       -0.6460
     25  O         15.5720  -21.8260   -3.3630 O.3     1  UNL1       -0.7730
     26  H         14.9960  -21.8730   -4.1540 H       1  UNL1        0.1670
     27  C         24.7570  -22.3690  -12.7150 C.3     1  UNL1        0.2000
     28  C         25.5320  -21.1720  -12.2930 C.2     1  UNL1        0.0700
     29  C         25.9870  -20.7210  -11.0710 C.2     1  UNL1        0.0360
     30  C         26.6670  -19.5050  -11.3220 C.2     1  UNL1        0.0270
     31  C         26.5870  -19.2930  -12.6780 C.2     1  UNL1        0.1420
     32  O         25.9010  -20.3010  -13.2760 O.2     1  UNL1       -0.3250
@<TRIPOS>BOND
     1    11    10    2
     2    32    31    1
     3    32    28    1
     4    10     9   am
     5    10     4    1
     6    27     9    1
     7    27    28    1
     8    31    30    2
     9     3     4    2
    10     3     2    1
    11     9     7   am
    12     4     5    1
    13    28    29    2
    14     2     1    2
    15    30    29    1
    16     7     5    1
    17     7     8    2
    18     5     6    2
    19     1     6    1
    20     1    12    1
    21    15    12    2
    22    12    13   am
    23    13    14    1
    24    13    16    1
    25    22    16    2
    26    22    21    1
    27    16    17    1
    28    21    20    2
    29    17    18    1
    30    17    19    2
    31    20    19    1
    32    19    23    1
    33    26    25    1
    34    23    25    1
    35    23    24    2
