@<TRIPOS>MOLECULE
495_out_ligand_01.pdbqt
 41 45 0 0 0
SMALL
GASTEIGER

@<TRIPOS>ATOM
      1  C         22.0360  -22.6350  -10.7400 C.2     1  UNL1        0.0330
      2  C         21.4720  -21.7700  -11.6880 C.2     1  UNL1        0.0190
      3  C         22.2040  -21.3810  -12.8140 C.2     1  UNL1        0.0250
      4  C         23.4980  -21.8630  -12.9990 C.2     1  UNL1        0.0220
      5  C         24.0820  -22.7000  -12.0460 C.2     1  UNL1        0.0250
      6  C         23.3520  -23.0870  -10.9170 C.2     1  UNL1        0.0190
      7  C         21.2130  -23.0160   -9.5580 C.2     1  UNL1        0.2700
      8  O         21.6570  -22.9000   -8.4180 O.2     1  UNL1       -0.2660
      9  N         19.9290  -23.4640   -9.8120 N.am    1  UNL1       -0.2630
     10  H         19.4620  -23.2910  -10.7000 H       1  UNL1        0.1900
     11  N         19.0830  -23.6320   -8.7090 N.am    1  UNL1       -0.2620
     12  C         17.8540  -23.0110   -8.7160 C.2     1  UNL1        0.2910
     13  O         17.3550  -22.4530   -9.6830 O.2     1  UNL1       -0.2640
     14  H         19.5010  -23.9840   -7.8470 H       1  UNL1        0.1900
     15  C         17.1400  -23.0630   -7.3740 C.ar    1  UNL1        0.1570
     16  N         16.0600  -23.7900   -7.3280 N.ar    1  UNL1       -0.1660
     17  N         15.3880  -23.8600   -6.1440 N.ar    1  UNL1       -0.2420
     18  C         15.7350  -23.2240   -4.9770 C.ar    1  UNL1        0.2720
     19  H         14.5360  -24.4140   -6.1350 H       1  UNL1        0.1920
     20  O         15.0690  -23.3190   -3.9540 O.2     1  UNL1       -0.2660
     21  C         16.9700  -22.4200   -5.0190 C.ar    1  UNL1        0.0460
     22  C         17.4200  -21.7630   -3.8690 C.2     1  UNL1        0.0180
     23  C         17.6870  -22.3350   -6.2110 C.ar    1  UNL1        0.0160
     24  C         18.5990  -21.0190   -3.9120 C.2     1  UNL1        0.0010
     25  C         19.3250  -20.9370   -5.1010 C.2     1  UNL1        0.0010
     26  C         18.8740  -21.5940   -6.2500 C.2     1  UNL1        0.0150
     27  N         24.2520  -21.4190  -14.1280 N.pl3   1  UNL1       -0.1810
     28  H         24.1920  -22.0730  -14.9110 H       1  UNL1        0.1460
     29  S         25.9150  -21.1770  -13.8360 S.O2    1  UNL1        0.2450
     30  O         26.1270  -20.5380  -12.5570 O.2     1  UNL1       -0.2060
     31  O         26.5560  -22.4300  -14.1810 O.2     1  UNL1       -0.2060
     32  C         26.2960  -19.9930  -15.1020 C.2     1  UNL1        0.0770
     33  C         26.6170  -20.4440  -16.3870 C.2     1  UNL1        0.0280
     34  C         26.8950  -19.5160  -17.3930 C.2     1  UNL1        0.0410
     35  C         26.8400  -18.1510  -17.1110 C.2     1  UNL1        0.1020
     36  C         26.5340  -17.7080  -15.8180 C.2     1  UNL1        0.1030
     37  O         27.1020  -17.2980  -18.1530 O.2     1  UNL1       -0.3460
     38  C         26.2400  -18.6270  -14.8130 C.2     1  UNL1        0.0640
     39  O         26.4910  -16.3830  -15.4680 O.2     1  UNL1       -0.3460
     40  C         27.1150  -15.5580  -16.4600 C.3     1  UNL1        0.2020
     41  C         26.6710  -15.9650  -17.8570 C.3     1  UNL1        0.2020
@<TRIPOS>BOND
     1    37    41    1
     2    37    35    1
     3    41    40    1
     4    34    35    2
     5    34    33    1
     6    35    36    1
     7    40    39    1
     8    33    32    2
     9    36    39    1
    10    36    38    2
    11    32    38    1
    12    32    29    1
    13    28    27    1
    14    31    29    2
    15    27    29    1
    16    27     4    1
    17    29    30    2
    18     4     3    2
    19     4     5    1
    20     3     2    1
    21     5     6    2
    22     2     1    2
    23     6     1    1
    24     1     7    1
    25    10     9    1
    26     9     7   am
    27     9    11    1
    28    13    12    2
    29     7     8    2
    30    12    11   am
    31    12    15    1
    32    11    14    1
    33    15    16   ar
    34    15    23   ar
    35    16    17   ar
    36    26    23    1
    37    26    25    2
    38    23    21   ar
    39    17    19    1
    40    17    18   ar
    41    25    24    1
    42    21    18   ar
    43    21    22    1
    44    18    20    2
    45    24    22    2
