@<TRIPOS>MOLECULE
49604_out_ligand_01.pdbqt
 31 33 0 0 0
SMALL
GASTEIGER

@<TRIPOS>ATOM
      1  C         17.4930  -23.4190   -8.7430 C.2     1  UNL1        0.0860
      2  C         18.8870  -23.5740   -8.8270 C.2     1  UNL1        0.0420
      3  C         19.6080  -22.9620   -9.8550 C.2     1  UNL1        0.0330
      4  C         18.9370  -22.1860  -10.8020 C.2     1  UNL1        0.0170
      5  C         17.5540  -22.0110  -10.7050 C.2     1  UNL1        0.0090
      6  C         16.8080  -22.6180   -9.6750 C.2     1  UNL1       -0.0390
      7  C         15.3250  -22.3790   -9.6490 C.3     1  UNL1        0.0500
      8  S         16.6980  -24.3070   -7.4050 S.O2    1  UNL1        0.2630
      9  O         17.6830  -25.0250   -6.6260 O.2     1  UNL1       -0.2000
     10  O         15.5660  -24.9990   -7.9850 O.2     1  UNL1       -0.2000
     11  N         16.0560  -23.0630   -6.4550 N.pl3   1  UNL1       -0.2810
     12  H         15.4320  -22.4570   -6.9870 H       1  UNL1        0.1790
     13  C         16.8760  -22.4570   -5.4630 C.2     1  UNL1        0.0430
     14  C         16.6380  -22.6760   -4.1070 C.2     1  UNL1        0.0300
     15  C         17.4770  -22.1000   -3.1540 C.2     1  UNL1        0.0030
     16  C         18.5570  -21.3130   -3.5550 C.2     1  UNL1        0.0070
     17  C         18.8120  -21.0980   -4.9150 C.2     1  UNL1       -0.0600
     18  C         19.9550  -20.2300   -5.3500 C.3     1  UNL1        0.0480
     19  C         17.9530  -21.6650   -5.8660 C.2     1  UNL1        0.0370
     20  C         21.0720  -23.2090   -9.9390 C.2     1  UNL1        0.2560
     21  O         21.5420  -24.0760   -9.2120 O.2     1  UNL1       -0.2670
     22  N         21.7470  -22.3910  -10.8260 N.am    1  UNL1       -0.3220
     23  H         21.2050  -21.6410  -11.2310 H       1  UNL1        0.1690
     24  C         23.1250  -22.4200  -11.1610 C.2     1  UNL1        0.0420
     25  C         24.0880  -22.9160  -10.2720 C.2     1  UNL1        0.0300
     26  C         25.4390  -22.9460  -10.6150 C.2     1  UNL1        0.0040
     27  C         25.8470  -22.4830  -11.8580 C.2     1  UNL1        0.0240
     28  C         24.9060  -21.9880  -12.7630 C.2     1  UNL1        0.0420
     29 CL         25.5200  -21.4400  -14.2860 Cl      1  UNL1       -0.0840
     30  C         23.5340  -21.9470  -12.4370 C.2     1  UNL1       -0.0130
     31  C         22.5140  -21.4110  -13.4120 C.3     1  UNL1        0.0520
@<TRIPOS>BOND
     1    29    28    1
     2    31    30    1
     3    28    30    1
     4    28    27    2
     5    30    24    2
     6    27    26    1
     7    23    22    1
     8    24    22    1
     9    24    25    1
    10    22    20   am
    11     4     5    2
    12     4     3    1
    13     5     6    1
    14    26    25    2
    15    20     3    1
    16    20    21    2
    17     3     2    2
    18     6     7    1
    19     6     1    2
    20     2     1    1
    21     1     8    1
    22    10     8    2
    23     8     9    2
    24     8    11    1
    25    12    11    1
    26    11    13    1
    27    19    13    2
    28    19    17    1
    29    13    14    1
    30    18    17    1
    31    17    16    2
    32    14    15    2
    33    16    15    1
