@<TRIPOS>MOLECULE
49608_out_ligand_01.pdbqt
 35 37 0 0 0
SMALL
GASTEIGER

@<TRIPOS>ATOM
      1  C         20.4610  -22.1030  -11.0390 C.ar    1  UNL1        0.0800
      2  C         20.5430  -22.9020   -9.9030 C.ar    1  UNL1        0.0940
      3  S         22.0970  -23.5370   -9.6670 S.2     1  UNL1       -0.0650
      4  C         22.7320  -22.7290  -11.0220 C.ar    1  UNL1        0.0810
      5  C         21.7550  -22.0270  -11.7160 C.ar    1  UNL1       -0.0200
      6  C         21.9890  -21.2890  -13.0030 C.3     1  UNL1        0.0510
      7  N         19.5180  -23.1730   -9.0050 N.am    1  UNL1       -0.3160
      8  C         19.3650  -22.6850   -7.7230 C.2     1  UNL1        0.2560
      9  O         20.1390  -22.0020   -7.0690 O.2     1  UNL1       -0.2670
     10  H         18.8380  -23.8480   -9.3360 H       1  UNL1        0.1690
     11  C         18.0890  -23.0910   -7.0670 C.2     1  UNL1        0.0340
     12  C         17.2130  -24.0000   -7.6770 C.2     1  UNL1        0.0180
     13  C         16.0150  -24.3550   -7.0470 C.2     1  UNL1        0.0100
     14  C         15.6660  -23.8100   -5.8020 C.2     1  UNL1       -0.0290
     15  C         14.3630  -24.2140   -5.1680 C.3     1  UNL1        0.0500
     16  C         16.5430  -22.8710   -5.2260 C.2     1  UNL1        0.1090
     17  C         17.7490  -22.5120   -5.8430 C.2     1  UNL1        0.0530
     18  N         16.2350  -22.2470   -3.9480 N.pl3   1  UNL1       -0.1150
     19  O         17.1720  -22.1140   -3.1530 O.2     1  UNL1       -0.5320
     20  O         15.0630  -21.9010   -3.7470 O.2     1  UNL1       -0.5320
     21  C         19.2420  -21.4170  -11.4980 C.2     1  UNL1        0.2960
     22  O         19.2420  -20.2840  -11.9680 O.2     1  UNL1       -0.2590
     23  O         18.1010  -22.1610  -11.3390 O.3     1  UNL1       -0.3220
     24  C         17.0020  -21.4270  -10.7930 C.3     1  UNL1        0.2130
     25  C         24.1560  -22.8490  -11.2970 C.2     1  UNL1        0.2590
     26  O         25.0350  -22.2830  -10.6560 O.2     1  UNL1       -0.2670
     27  N         24.4350  -23.6700  -12.3720 N.am    1  UNL1       -0.3520
     28  H         23.6680  -23.8990  -12.9860 H       1  UNL1        0.1630
     29  C         25.7730  -23.8180  -12.8900 C.3     1  UNL1        0.1610
     30  C         25.9660  -23.0140  -14.1510 C.2     1  UNL1       -0.0410
     31  C         26.4150  -21.6880  -14.0790 C.2     1  UNL1        0.0090
     32  C         26.5920  -20.9410  -15.2440 C.2     1  UNL1        0.0010
     33  C         26.3080  -21.5070  -16.4890 C.2     1  UNL1        0.0000
     34  C         25.8450  -22.8120  -16.5700 C.2     1  UNL1        0.0010
     35  C         25.6780  -23.5660  -15.4080 C.2     1  UNL1        0.0090
@<TRIPOS>BOND
     1    34    33    2
     2    34    35    1
     3    33    32    1
     4    35    30    2
     5    32    31    2
     6    30    31    1
     7    30    29    1
     8     6     5    1
     9    28    27    1
    10    29    27    1
    11    27    25   am
    12    22    21    2
    13     5     1   ar
    14     5     4   ar
    15    21    23    1
    16    21     1    1
    17    23    24    1
    18    25     4    1
    19    25    26    2
    20     1     2   ar
    21     4     3   ar
    22     2     3   ar
    23     2     7    1
    24    10     7    1
    25     7     8   am
    26     8     9    2
    27     8    11    1
    28    12    11    2
    29    12    13    1
    30    11    17    1
    31    13    14    2
    32    17    16    2
    33    14    16    1
    34    14    15    1
    35    16    18    1
    36    18    20    2
    37    18    19    2
