@<TRIPOS>MOLECULE
49613_out_ligand_01.pdbqt
 36 40 0 0 0
SMALL
GASTEIGER

@<TRIPOS>ATOM
      1  C         19.9820  -21.9630  -11.0700 C.2     1  UNL1        0.0330
      2  C         18.8180  -21.3280  -11.5700 C.2     1  UNL1        0.0180
      3  C         17.5660  -21.5670  -10.9900 C.2     1  UNL1        0.0190
      4  C         17.5200  -22.4480   -9.9260 C.2     1  UNL1        0.0480
      5  C         18.6540  -23.0800   -9.4460 C.2     1  UNL1        0.0490
      6  C         19.9020  -22.8660   -9.9980 C.2     1  UNL1        0.0350
      7  C         18.2430  -23.9330   -8.3320 C.2     1  UNL1        0.2620
      8  O         19.0010  -24.6230   -7.6780 O.2     1  UNL1       -0.2670
      9  N         16.8920  -23.7770   -8.2020 N.am    1  UNL1       -0.2760
     10  C         16.3860  -22.9000   -9.1210 C.2     1  UNL1        0.2620
     11  O         15.2390  -22.5300   -9.2860 O.2     1  UNL1       -0.2670
     12  C         21.3160  -21.7240  -11.6880 C.2     1  UNL1        0.2560
     13  O         21.3670  -21.0090  -12.6800 O.2     1  UNL1       -0.2670
     14  N         22.3650  -22.3830  -11.0780 N.am    1  UNL1       -0.3230
     15  H         22.1340  -23.0470  -10.3490 H       1  UNL1        0.1690
     16  C         23.7340  -22.2990  -11.4090 C.2     1  UNL1        0.0350
     17  C         24.6650  -21.5360  -10.7020 C.2     1  UNL1        0.0290
     18  C         26.0120  -21.5290  -11.0770 C.2     1  UNL1        0.0030
     19  C         26.4420  -22.2780  -12.1710 C.2     1  UNL1        0.0150
     20  C         25.5160  -23.0280  -12.9010 C.2     1  UNL1        0.0170
     21  C         24.1710  -23.0500  -12.5070 C.2     1  UNL1        0.0450
     22  C         25.9160  -23.8570  -14.0640 C.2     1  UNL1        0.1920
     23  O         26.4150  -24.9610  -13.8620 O.2     1  UNL1       -0.2870
     24  C         25.7290  -23.3910  -15.4620 C.2     1  UNL1        0.0150
     25  C         26.7250  -22.5940  -16.0370 C.2     1  UNL1        0.0150
     26  C         26.5920  -22.1480  -17.3520 C.2     1  UNL1        0.0010
     27  C         25.4710  -22.5080  -18.1000 C.2     1  UNL1        0.0000
     28  C         24.4860  -23.3210  -17.5380 C.2     1  UNL1        0.0010
     29  C         24.6160  -23.7690  -16.2220 C.2     1  UNL1        0.0150
     30  C         16.1030  -24.4190   -7.1740 C.3     1  UNL1        0.1750
     31  C         16.1510  -23.6520   -5.8820 C.2     1  UNL1       -0.0220
     32  C         17.2760  -23.6910   -5.0520 C.2     1  UNL1        0.0120
     33  C         17.2710  -22.9890   -3.8500 C.2     1  UNL1        0.0200
     34  C         16.1340  -22.2740   -3.5130 C.2     1  UNL1        0.1160
     35  N         15.0250  -22.2230   -4.2810 N.2     1  UNL1       -0.2730
     36  C         15.0560  -22.9150   -5.4430 C.2     1  UNL1        0.1240
@<TRIPOS>BOND
     1    27    28    2
     2    27    26    1
     3    28    29    1
     4    26    25    2
     5    29    24    2
     6    25    24    1
     7    24    22    1
     8    22    23    2
     9    22    20    1
    10    20    21    1
    11    20    19    2
    12    13    12    2
    13    21    16    2
    14    19    18    1
    15    12    14   am
    16    12     1    1
    17     2     1    2
    18     2     3    1
    19    16    14    1
    20    16    17    1
    21    14    15    1
    22    18    17    2
    23     1     6    1
    24     3     4    2
    25     6     5    2
    26     4     5    1
    27     4    10    1
    28     5     7    1
    29    11    10    2
    30    10     9   am
    31     7     9   am
    32     7     8    2
    33     9    30    1
    34    30    31    1
    35    31    36    2
    36    31    32    1
    37    36    35    1
    38    32    33    2
    39    35    34    2
    40    33    34    1
