@<TRIPOS>MOLECULE
4961_out_ligand_01.pdbqt
 32 36 0 0 0
SMALL
GASTEIGER

@<TRIPOS>ATOM
      1  N         26.4110  -24.6730  -12.7020 N.1     1  UNL1       -0.1910
      2  C         25.8330  -23.7300  -13.0580 C.1     1  UNL1        0.1030
      3  C         25.2130  -22.5710  -13.6310 C.ar    1  UNL1        0.0850
      4  C         23.9610  -22.0450  -13.3470 C.ar    1  UNL1        0.0980
      5  S         23.5490  -20.7140  -14.3750 S.2     1  UNL1       -0.0750
      6  C         25.0340  -20.8050  -15.1280 C.ar    1  UNL1       -0.0070
      7  C         25.8280  -21.8160  -14.6660 C.ar    1  UNL1       -0.0210
      8  C         27.1210  -21.8560  -15.3990 C.3     1  UNL1        0.0420
      9  C         26.8410  -20.9190  -16.6160 C.3     1  UNL1        0.0100
     10  C         25.6400  -20.0060  -16.2180 C.3     1  UNL1        0.0470
     11  N         22.9320  -22.3110  -12.4690 N.am    1  UNL1       -0.3160
     12  C         22.9410  -21.9890  -11.1300 C.2     1  UNL1        0.2560
     13  O         23.8050  -21.3410  -10.5550 O.2     1  UNL1       -0.2670
     14  H         22.0660  -22.6060  -12.9010 H       1  UNL1        0.1690
     15  C         21.7350  -22.4190  -10.3620 C.2     1  UNL1        0.0320
     16  C         20.5370  -21.7140  -10.5560 C.2     1  UNL1        0.0180
     17  C         19.3810  -22.0750   -9.8600 C.2     1  UNL1        0.0260
     18  C         19.4280  -23.1470   -8.9670 C.2     1  UNL1        0.0750
     19  C         20.6210  -23.8430   -8.7450 C.2     1  UNL1        0.0260
     20  C         21.7770  -23.4770   -9.4400 C.2     1  UNL1        0.0180
     21  S         17.9710  -23.6280   -8.0570 S.O2    1  UNL1        0.2480
     22  O         16.9140  -23.7690   -9.0370 O.2     1  UNL1       -0.2050
     23  O         18.3360  -24.7180   -7.1760 O.2     1  UNL1       -0.2050
     24  N         17.6970  -22.2370   -7.1000 N.pl3   1  UNL1       -0.1710
     25  C         18.8930  -21.7290   -6.3390 C.3     1  UNL1        0.1180
     26  C         18.5810  -21.8920   -4.8420 C.3     1  UNL1        0.0560
     27  C         17.1070  -22.1160   -4.8460 C.2     1  UNL1       -0.0350
     28  C         16.2480  -22.1590   -3.7590 C.2     1  UNL1        0.0090
     29  C         16.6440  -22.3650   -6.1360 C.2     1  UNL1        0.0310
     30  C         14.9000  -22.4380   -3.9910 C.2     1  UNL1        0.0010
     31  C         14.4330  -22.6720   -5.2930 C.2     1  UNL1        0.0020
     32  C         15.3090  -22.6330   -6.3800 C.2     1  UNL1        0.0250
@<TRIPOS>BOND
     1     9    10    1
     2     9     8    1
     3    10     6    1
     4     8     7    1
     5     6     7   ar
     6     6     5   ar
     7     7     3   ar
     8     5     4   ar
     9     3     4   ar
    10     3     2    1
    11     4    11    1
    12     2     1    3
    13    14    11    1
    14    11    12   am
    15    12    13    2
    16    12    15    1
    17    16    15    2
    18    16    17    1
    19    15    20    1
    20    17    18    2
    21    20    19    2
    22    22    21    2
    23    18    19    1
    24    18    21    1
    25    21    23    2
    26    21    24    1
    27    24    25    1
    28    24    29    1
    29    32    29    1
    30    32    31    2
    31    25    26    1
    32    29    27    2
    33    31    30    1
    34    27    26    1
    35    27    28    1
    36    30    28    2
