@<TRIPOS>MOLECULE
49611_out_ligand_01.pdbqt
 30 32 0 0 0
SMALL
GASTEIGER

@<TRIPOS>ATOM
      1  C         17.5440  -23.5410   -8.5120 C.2     1  UNL1        0.0810
      2  C         18.9390  -23.6870   -8.4340 C.2     1  UNL1        0.0420
      3  C         19.7700  -23.0780   -9.3820 C.2     1  UNL1        0.0330
      4  C         19.1970  -22.3480  -10.4270 C.2     1  UNL1        0.0170
      5  C         17.8090  -22.2090  -10.5090 C.2     1  UNL1        0.0090
      6  C         16.9610  -22.7910   -9.5520 C.2     1  UNL1       -0.0390
      7  C         15.4750  -22.6200   -9.7180 C.3     1  UNL1        0.0500
      8  S         16.5540  -24.3540   -7.2650 S.O2    1  UNL1        0.2460
      9  O         15.5150  -25.1000   -7.9390 O.2     1  UNL1       -0.2060
     10  O         17.4510  -24.9850   -6.3200 O.2     1  UNL1       -0.2060
     11  N         15.8910  -23.0010   -6.4590 N.pl3   1  UNL1       -0.1810
     12  H         15.6550  -22.3110   -7.1750 H       1  UNL1        0.1460
     13  C         16.7640  -22.4310   -5.4740 C.2     1  UNL1        0.0230
     14  C         16.5580  -22.7150   -4.1250 C.2     1  UNL1        0.0240
     15  C         17.4300  -22.2010   -3.1670 C.2     1  UNL1        0.0020
     16  C         18.5130  -21.4110   -3.5590 C.2     1  UNL1        0.0070
     17  C         18.7310  -21.1270   -4.9130 C.2     1  UNL1       -0.0600
     18  C         19.9240  -20.3220   -5.3370 C.3     1  UNL1        0.0480
     19  C         17.8590  -21.6610   -5.8720 C.2     1  UNL1        0.0310
     20  C         21.2440  -23.2580   -9.2510 C.2     1  UNL1        0.2520
     21  O         21.7090  -24.3470   -8.9300 O.2     1  UNL1       -0.2680
     22  N         22.0240  -22.1540   -9.4780 N.am    1  UNL1       -0.3510
     23  H         21.6340  -21.2210   -9.5530 H       1  UNL1        0.1630
     24  C         23.4590  -22.1950   -9.3000 C.3     1  UNL1        0.1820
     25  C         24.1860  -22.0180  -10.6160 C.2     1  UNL1        0.0510
     26  C         23.8900  -22.8590  -11.6870 C.2     1  UNL1        0.0290
     27  C         24.5880  -22.6960  -12.8800 C.2     1  UNL1        0.0030
     28  C         25.5590  -21.7070  -12.9740 C.2     1  UNL1        0.0190
     29  C         25.7980  -20.9140  -11.8640 C.2     1  UNL1        0.1170
     30  N         25.1400  -21.0460  -10.6910 N.2     1  UNL1       -0.2640
@<TRIPOS>BOND
     1    28    27    2
     2    28    29    1
     3    27    26    1
     4    29    30    2
     5    26    25    2
     6    30    25    1
     7    25    24    1
     8     5     4    2
     9     5     6    1
    10     4     3    1
    11     7     6    1
    12    23    22    1
    13     6     1    2
    14    22    24    1
    15    22    20   am
    16     3    20    1
    17     3     2    2
    18    20    21    2
    19     1     2    1
    20     1     8    1
    21     9     8    2
    22     8    11    1
    23     8    10    2
    24    12    11    1
    25    11    13    1
    26    19    13    2
    27    19    17    1
    28    13    14    1
    29    18    17    1
    30    17    16    2
    31    14    15    2
    32    16    15    1
