@<TRIPOS>MOLECULE
49629_out_ligand_01.pdbqt
 31 34 0 0 0
SMALL
GASTEIGER

@<TRIPOS>ATOM
      1  C         18.3370  -22.5390   -9.8990 C.2     1  UNL1        0.0970
      2  C         19.6560  -23.0150   -9.7750 C.2     1  UNL1        0.0430
      3  C         20.6610  -22.5220  -10.6120 C.2     1  UNL1        0.0330
      4  C         20.3500  -21.5380  -11.5550 C.2     1  UNL1        0.0190
      5  C         19.0400  -21.0710  -11.6790 C.2     1  UNL1        0.0260
      6  C         18.0230  -21.5710  -10.8560 C.2     1  UNL1        0.0570
      7 CL         16.4470  -20.9140  -11.0920 Cl      1  UNL1       -0.0830
      8  S         17.1020  -23.2170   -8.8170 S.O2    1  UNL1        0.2470
      9  O         17.7840  -24.1320   -7.9230 O.2     1  UNL1       -0.2050
     10  O         16.0050  -23.6630   -9.6440 O.2     1  UNL1       -0.2050
     11  N         16.6820  -21.8610   -7.8770 N.pl3   1  UNL1       -0.1810
     12  H         17.3610  -21.1210   -8.0520 H       1  UNL1        0.1460
     13  C         16.5350  -22.1230   -6.4680 C.2     1  UNL1        0.0290
     14  C         15.3000  -22.6000   -6.0220 C.2     1  UNL1        0.0250
     15  C         15.0990  -22.8820   -4.6760 C.2     1  UNL1        0.0020
     16  C         16.1340  -22.6860   -3.7670 C.2     1  UNL1        0.0070
     17  C         17.3860  -22.2080   -4.1910 C.2     1  UNL1       -0.0540
     18  C         18.4610  -22.0190   -3.1530 C.3     1  UNL1        0.0490
     19  C         17.6030  -21.9310   -5.5620 C.2     1  UNL1       -0.0340
     20  C         18.9330  -21.4130   -6.0490 C.3     1  UNL1        0.0500
     21  C         22.0730  -22.9830  -10.5080 C.2     1  UNL1        0.2520
     22  O         22.4470  -23.5710   -9.5010 O.2     1  UNL1       -0.2680
     23  N         22.8950  -22.6890  -11.5760 N.am    1  UNL1       -0.3520
     24  H         22.5850  -22.0360  -12.2820 H       1  UNL1        0.1630
     25  C         24.3030  -23.0500  -11.5540 C.3     1  UNL1        0.0890
     26  C         24.7890  -23.5710  -12.9240 C.3     1  UNL1        0.0300
     27  C         25.9280  -22.6000  -13.2840 C.3     1  UNL1       -0.0120
     28  C         27.1210  -22.8580  -12.3480 C.3     1  UNL1        0.0050
     29  C         25.3890  -21.2760  -12.7480 C.3     1  UNL1        0.0110
     30  C         26.6300  -22.3050  -11.0020 C.3     1  UNL1        0.0070
     31  C         25.2070  -21.8150  -11.3280 C.3     1  UNL1        0.0090
@<TRIPOS>BOND
     1    27    26    1
     2    27    29    1
     3    27    28    1
     4    26    25    1
     5    29    31    1
     6    28    30    1
     7    24    23    1
     8     5     4    2
     9     5     6    1
    10    23    25    1
    11    23    21   am
    12     4     3    1
    13    25    31    1
    14    31    30    1
    15     7     6    1
    16     6     1    2
    17     3    21    1
    18     3     2    2
    19    21    22    2
    20     1     2    1
    21     1     8    1
    22    10     8    2
    23     8     9    2
    24     8    11    1
    25    12    11    1
    26    11    13    1
    27    13    14    2
    28    13    19    1
    29    20    19    1
    30    14    15    1
    31    19    17    2
    32    15    16    2
    33    17    16    1
    34    17    18    1
