@<TRIPOS>MOLECULE
49634_out_ligand_01.pdbqt
 33 35 0 0 0
SMALL
GASTEIGER

@<TRIPOS>ATOM
      1  C         20.6320  -22.3220  -10.8750 C.2     1  UNL1        0.0330
      2  C         20.3680  -21.3490  -11.8430 C.2     1  UNL1        0.0170
      3  C         19.0820  -20.8180  -11.9670 C.2     1  UNL1        0.0090
      4  C         18.0360  -21.2380  -11.1270 C.2     1  UNL1       -0.0390
      5  C         16.6780  -20.6230  -11.3230 C.3     1  UNL1        0.0500
      6  C         18.3150  -22.2110  -10.1460 C.2     1  UNL1        0.0810
      7  C         19.6100  -22.7390  -10.0170 C.2     1  UNL1        0.0420
      8  C         21.9910  -22.9120  -10.7070 C.2     1  UNL1        0.2560
      9  N         22.9450  -22.4280  -11.5770 N.am    1  UNL1       -0.3200
     10  H         22.6550  -21.8010  -12.3200 H       1  UNL1        0.1690
     11  O         22.1420  -23.7810   -9.8580 O.2     1  UNL1       -0.2670
     12  C         24.3150  -22.7630  -11.6450 C.2     1  UNL1        0.0690
     13  C         25.0180  -23.3660  -10.5990 C.2     1  UNL1        0.0390
     14  C         26.3830  -23.6580  -10.7290 C.2     1  UNL1       -0.0600
     15  C         27.0340  -23.3620  -11.9300 C.2     1  UNL1        0.0090
     16  C         27.1200  -24.3350   -9.6100 C.3     1  UNL1        0.0480
     17  C         26.3420  -22.7570  -12.9830 C.2     1  UNL1        0.0390
     18  C         24.9860  -22.4530  -12.8480 C.2     1  UNL1        0.0950
     19  O         24.2120  -21.8560  -13.8190 O.2     1  UNL1       -0.3540
     20  C         24.6720  -20.6130  -14.3340 C.3     1  UNL1        0.2100
     21  S         17.0600  -22.8210   -9.0180 S.O2    1  UNL1        0.2460
     22  O         16.4460  -21.6660   -8.3970 O.2     1  UNL1       -0.2060
     23  O         16.2750  -23.8130   -9.7160 O.2     1  UNL1       -0.2060
     24  N         18.0310  -23.5650   -7.8200 N.pl3   1  UNL1       -0.1810
     25  H         18.9480  -23.7440   -8.2290 H       1  UNL1        0.1460
     26  C         18.1540  -22.7970   -6.6080 C.2     1  UNL1        0.0290
     27  C         19.1640  -21.8290   -6.5440 C.2     1  UNL1        0.0250
     28  C         19.3190  -21.0480   -5.4020 C.2     1  UNL1        0.0020
     29  C         18.4690  -21.2370   -4.3170 C.2     1  UNL1        0.0070
     30  C         17.4490  -22.2020   -4.3610 C.2     1  UNL1       -0.0540
     31  C         16.5590  -22.3570   -3.1550 C.3     1  UNL1        0.0490
     32  C         17.2640  -22.9770   -5.5310 C.2     1  UNL1       -0.0340
     33  C         16.1910  -24.0320   -5.5800 C.3     1  UNL1        0.0500
@<TRIPOS>BOND
     1    20    19    1
     2    19    18    1
     3    17    18    1
     4    17    15    2
     5    18    12    2
     6    10     9    1
     7     3     2    1
     8     3     4    2
     9    15    14    1
    10     2     1    2
    11    12     9    1
    12    12    13    1
    13     9     8   am
    14     5     4    1
    15     4     6    1
    16     1     8    1
    17     1     7    1
    18    14    13    2
    19    14    16    1
    20     8    11    2
    21     6     7    2
    22     6    21    1
    23    23    21    2
    24    21    22    2
    25    21    24    1
    26    25    24    1
    27    24    26    1
    28    26    27    2
    29    26    32    1
    30    27    28    1
    31    33    32    1
    32    32    30    2
    33    28    29    2
    34    30    29    1
    35    30    31    1
