@<TRIPOS>MOLECULE
49631_out_ligand_01.pdbqt
 32 34 0 0 0
SMALL
GASTEIGER

@<TRIPOS>ATOM
      1  C         19.7120  -22.8970   -9.8660 C.2     1  UNL1        0.0330
      2  C         19.0420  -22.1370  -10.8300 C.2     1  UNL1        0.0170
      3  C         17.6540  -21.9900  -10.7640 C.2     1  UNL1        0.0090
      4  C         16.9060  -22.5960   -9.7380 C.2     1  UNL1       -0.0390
      5  C         15.4140  -22.4080   -9.7480 C.3     1  UNL1        0.0500
      6  C         17.5870  -23.3840   -8.7890 C.2     1  UNL1        0.0810
      7  C         18.9810  -23.5370   -8.8590 C.2     1  UNL1        0.0420
      8  S         16.7230  -24.2420   -7.4730 S.O2    1  UNL1        0.2460
      9  O         17.7170  -24.8410   -6.6100 O.2     1  UNL1       -0.2060
     10  O         15.6650  -25.0230   -8.0730 O.2     1  UNL1       -0.2060
     11  N         16.0810  -22.9110   -6.6160 N.pl3   1  UNL1       -0.1810
     12  H         15.8810  -22.1780   -7.2980 H       1  UNL1        0.1460
     13  C         16.9210  -22.4230   -5.5530 C.2     1  UNL1        0.0290
     14  C         17.9920  -21.5890   -5.8980 C.2     1  UNL1        0.0310
     15  C         18.8350  -21.0560   -4.9150 C.2     1  UNL1       -0.0600
     16  C         19.9540  -20.1350   -5.2980 C.3     1  UNL1        0.0480
     17  C         18.5720  -21.3440   -3.5740 C.2     1  UNL1        0.0070
     18  C         17.4980  -22.1660   -3.2240 C.2     1  UNL1        0.0090
     19  C         16.6620  -22.7210   -4.2070 C.2     1  UNL1       -0.0400
     20  C         15.5000  -23.5710   -3.7650 C.3     1  UNL1        0.0500
     21  C         21.1940  -23.0740   -9.8960 C.2     1  UNL1        0.2560
     22  N         21.8590  -22.2780  -10.8130 N.am    1  UNL1       -0.3230
     23  H         21.3110  -21.5870  -11.3070 H       1  UNL1        0.1690
     24  O         21.6970  -23.8630   -9.1050 O.2     1  UNL1       -0.2670
     25  C         23.2430  -22.2670  -11.0920 C.2     1  UNL1        0.0360
     26  C         24.1840  -21.5460  -10.3550 C.2     1  UNL1        0.0290
     27  C         25.5400  -21.6000  -10.6910 C.2     1  UNL1        0.0040
     28  C         25.9660  -22.3790  -11.7670 C.2     1  UNL1        0.0180
     29  C         25.0380  -23.1000  -12.5210 C.2     1  UNL1        0.0020
     30  C         23.6820  -23.0480  -12.1710 C.2     1  UNL1        0.0480
     31  S         25.5360  -24.1360  -13.8900 S.3     1  UNL1       -0.1340
     32  C         25.0420  -23.0860  -15.2850 C.3     1  UNL1        0.0950
@<TRIPOS>BOND
     1    32    31    1
     2    31    29    1
     3    29    30    1
     4    29    28    2
     5    30    25    2
     6    28    27    1
     7    23    22    1
     8    25    22    1
     9    25    26    1
    10     2     3    1
    11     2     1    2
    12    22    21   am
    13     3     4    2
    14    27    26    2
    15    21     1    1
    16    21    24    2
    17     1     7    1
    18     5     4    1
    19     4     6    1
    20     7     6    2
    21     6     8    1
    22    10     8    2
    23     8    11    1
    24     8     9    2
    25    12    11    1
    26    11    13    1
    27    14    13    2
    28    14    15    1
    29    13    19    1
    30    16    15    1
    31    15    17    2
    32    19    20    1
    33    19    18    2
    34    17    18    1
