@<TRIPOS>MOLECULE
49632_out_ligand_01.pdbqt
 30 32 0 0 0
SMALL
GASTEIGER

@<TRIPOS>ATOM
      1  N         20.5820  -23.1060   -7.8480 N.am    1  UNL1       -0.3270
      2  C         21.1920  -24.1160   -8.5710 C.2     1  UNL1        0.2310
      3  O         20.7190  -25.2390   -8.7720 O.2     1  UNL1       -0.2720
      4  H         21.1070  -22.2400   -7.7440 H       1  UNL1        0.1690
      5  C         22.5160  -23.7420   -9.2250 C.3     1  UNL1        0.1850
      6  S         22.7410  -21.9450   -9.4680 S.3     1  UNL1       -0.0800
      7  C         22.5000  -21.8510  -11.1840 C.ar    1  UNL1        0.2030
      8  N         23.5100  -21.7740  -12.0240 N.ar    1  UNL1       -0.1350
      9  N         22.9640  -21.4760  -13.2350 N.ar    1  UNL1        0.0190
     10  N         21.6460  -21.3520  -13.1510 N.ar    1  UNL1        0.0030
     11  N         21.3040  -21.6600  -11.8710 N.ar    1  UNL1       -0.2170
     12  C         19.9310  -21.7000  -11.4850 C.2     1  UNL1        0.0570
     13  C         19.3270  -22.8630  -10.9830 C.2     1  UNL1        0.0340
     14  C         17.9780  -22.8480  -10.6040 C.2     1  UNL1        0.0440
     15  C         17.2280  -21.6820  -10.7460 C.2     1  UNL1        0.1160
     16  F         15.9400  -21.6740  -10.3720 F       1  UNL1       -0.2060
     17  C         17.8000  -20.5270  -11.2630 C.2     1  UNL1        0.0440
     18  C         19.1460  -20.5370  -11.6440 C.2     1  UNL1        0.0340
     19  C         19.3380  -23.1500   -7.1840 C.2     1  UNL1        0.0340
     20  C         18.4370  -24.2180   -7.2770 C.2     1  UNL1        0.0310
     21  C         17.2200  -24.1890   -6.5860 C.2     1  UNL1        0.0270
     22  C         16.9080  -23.0860   -5.7870 C.2     1  UNL1        0.0740
     23  C         17.7860  -22.0010   -5.6970 C.2     1  UNL1        0.0270
     24  C         18.9960  -22.0350   -6.3980 C.2     1  UNL1        0.0310
     25  S         15.3610  -23.0420   -4.9180 S.O2    1  UNL1        0.2390
     26  O         14.4210  -22.2670   -5.6910 O.2     1  UNL1       -0.2060
     27  O         15.0670  -24.3760   -4.4390 O.2     1  UNL1       -0.2060
     28  N         15.7660  -22.1470   -3.5460 N.3     1  UNL1       -0.2250
     29  H         15.8250  -22.7090   -2.6960 H       1  UNL1        0.1360
     30  H         15.0920  -21.3840   -3.4500 H       1  UNL1        0.1360
@<TRIPOS>BOND
     1     9    10   ar
     2     9     8   ar
     3    10    11   ar
     4     8     7   ar
     5    11    12    1
     6    11     7   ar
     7    18    12    2
     8    18    17    1
     9    12    13    1
    10    17    15    2
    11     7     6    1
    12    13    14    2
    13    15    14    1
    14    15    16    1
    15     6     5    1
    16     5     2    1
    17     3     2    2
    18     2     1   am
    19     1     4    1
    20     1    19    1
    21    20    19    2
    22    20    21    1
    23    19    24    1
    24    21    22    2
    25    24    23    2
    26    22    23    1
    27    22    25    1
    28    26    25    2
    29    25    27    2
    30    25    28    1
    31    28    30    1
    32    28    29    1
