@<TRIPOS>MOLECULE
49640_out_ligand_01.pdbqt
 31 33 0 0 0
SMALL
GASTEIGER

@<TRIPOS>ATOM
      1  C         17.4260  -23.4670   -8.7250 C.2     1  UNL1        0.0810
      2  C         18.8220  -23.5990   -8.8000 C.2     1  UNL1        0.0420
      3  C         19.5380  -22.9410   -9.8060 C.2     1  UNL1        0.0330
      4  C         18.8620  -22.1180  -10.7130 C.2     1  UNL1        0.0170
      5  C         17.4720  -21.9820  -10.6310 C.2     1  UNL1        0.0090
      6  C         16.7310  -22.6600   -9.6490 C.2     1  UNL1       -0.0390
      7  C         15.2420  -22.4520   -9.6110 C.3     1  UNL1        0.0500
      8  S         16.5830  -24.3360   -7.4050 S.O2    1  UNL1        0.2460
      9  O         17.5810  -25.0170   -6.6130 O.2     1  UNL1       -0.2060
     10  O         15.4550  -25.0370   -7.9820 O.2     1  UNL1       -0.2060
     11  N         15.9220  -23.0200   -6.5360 N.pl3   1  UNL1       -0.1810
     12  H         15.0710  -23.3650   -6.0880 H       1  UNL1        0.1460
     13  C         16.8130  -22.4840   -5.5460 C.2     1  UNL1        0.0230
     14  C         16.5290  -22.6740   -4.1950 C.2     1  UNL1        0.0240
     15  C         17.3630  -22.1170   -3.2260 C.2     1  UNL1        0.0020
     16  C         18.4710  -21.3590   -3.6090 C.2     1  UNL1        0.0070
     17  C         18.7570  -21.1540   -4.9660 C.2     1  UNL1       -0.0600
     18  C         19.9170  -20.2940   -5.3740 C.3     1  UNL1        0.0480
     19  C         17.9080  -21.7060   -5.9330 C.2     1  UNL1        0.0310
     20  C         21.0180  -23.1120   -9.8570 C.2     1  UNL1        0.2560
     21  O         21.5470  -23.8270   -9.0150 O.2     1  UNL1       -0.2670
     22  N         21.6490  -22.4630  -10.9040 N.am    1  UNL1       -0.3230
     23  H         21.0570  -22.0210  -11.5950 H       1  UNL1        0.1690
     24  C         23.0350  -22.4260  -11.1710 C.2     1  UNL1        0.0380
     25  C         23.8020  -21.5060  -10.4380 C.2     1  UNL1        0.0320
     26  C         25.1820  -21.4070  -10.6380 C.2     1  UNL1        0.0480
     27  C         25.7980  -22.2320  -11.5700 C.2     1  UNL1        0.1540
     28  F         27.1210  -22.1360  -11.7610 F       1  UNL1       -0.2030
     29  C         25.0490  -23.1480  -12.2950 C.2     1  UNL1        0.1570
     30  F         25.6490  -23.9450  -13.1910 F       1  UNL1       -0.2030
     31  C         23.6720  -23.2520  -12.1020 C.2     1  UNL1        0.0750
@<TRIPOS>BOND
     1    30    29    1
     2    29    31    1
     3    29    27    2
     4    31    24    2
     5    28    27    1
     6    23    22    1
     7    27    26    1
     8    24    22    1
     9    24    25    1
    10    22    20   am
    11     4     5    2
    12     4     3    1
    13    26    25    2
    14     5     6    1
    15    20     3    1
    16    20    21    2
    17     3     2    2
    18     6     7    1
    19     6     1    2
    20     2     1    1
    21     1     8    1
    22    10     8    2
    23     8     9    2
    24     8    11    1
    25    11    12    1
    26    11    13    1
    27    19    13    2
    28    19    17    1
    29    13    14    1
    30    18    17    1
    31    17    16    2
    32    14    15    2
    33    16    15    1
