@<TRIPOS>MOLECULE
49657_out_ligand_01.pdbqt
 34 37 0 0 0
SMALL
GASTEIGER

@<TRIPOS>ATOM
      1  C         18.3020  -24.7880   -7.2780 C.3     1  UNL1        0.0500
      2  C         19.0520  -24.0360   -8.3410 C.2     1  UNL1       -0.0390
      3  C         20.4250  -24.3080   -8.4920 C.2     1  UNL1        0.0090
      4  C         21.1980  -23.6480   -9.4520 C.2     1  UNL1        0.0170
      5  C         20.6120  -22.6770  -10.2680 C.2     1  UNL1        0.0330
      6  C         19.2520  -22.3940  -10.1330 C.2     1  UNL1        0.0420
      7  C         18.4650  -23.0830   -9.1950 C.2     1  UNL1        0.0860
      8  C         21.3780  -21.9770  -11.3350 C.2     1  UNL1        0.2560
      9  O         20.7730  -21.1760  -12.0370 O.2     1  UNL1       -0.2670
     10  N         22.7210  -22.3000  -11.3990 N.am    1  UNL1       -0.3230
     11  H         23.0910  -22.8830  -10.6590 H       1  UNL1        0.1690
     12  C         23.6630  -21.8530  -12.3510 C.2     1  UNL1        0.0370
     13  C         24.9050  -21.4190  -11.8640 C.2     1  UNL1        0.0320
     14  C         25.9030  -20.9840  -12.7400 C.2     1  UNL1        0.0420
     15  C         25.6710  -20.9850  -14.1100 C.2     1  UNL1        0.1020
     16  C         24.4280  -21.3890  -14.6040 C.2     1  UNL1        0.1040
     17  O         26.7040  -20.5760  -14.9150 O.2     1  UNL1       -0.3460
     18  C         23.4320  -21.8340  -13.7290 C.2     1  UNL1        0.0690
     19  O         24.1180  -21.3930  -15.9410 O.2     1  UNL1       -0.3460
     20  C         25.0630  -20.6320  -16.7020 C.3     1  UNL1        0.2020
     21  C         26.4840  -20.9600  -16.2770 C.3     1  UNL1        0.2020
     22  S         16.7270  -22.6550   -9.1820 S.O2    1  UNL1        0.2630
     23  O         16.0070  -23.8620   -8.8290 O.2     1  UNL1       -0.2000
     24  O         16.3840  -21.9260  -10.3830 O.2     1  UNL1       -0.2000
     25  N         16.5870  -21.6230   -7.8520 N.pl3   1  UNL1       -0.2800
     26  H         16.1790  -20.7240   -8.0990 H       1  UNL1        0.1790
     27  C         16.3630  -22.1420   -6.5400 C.2     1  UNL1        0.0490
     28  C         15.1490  -22.7680   -6.2480 C.2     1  UNL1        0.0310
     29  C         14.9010  -23.2700   -4.9750 C.2     1  UNL1        0.0030
     30  C         15.8730  -23.1620   -3.9870 C.2     1  UNL1        0.0070
     31  C         17.1150  -22.5650   -4.2600 C.2     1  UNL1       -0.0540
     32  C         18.1330  -22.5000   -3.1530 C.3     1  UNL1        0.0490
     33  C         17.3730  -22.0520   -5.5550 C.2     1  UNL1       -0.0290
     34  C         18.7200  -21.4590   -5.8960 C.3     1  UNL1        0.0510
@<TRIPOS>BOND
     1    20    21    1
     2    20    19    1
     3    21    17    1
     4    19    16    1
     5    17    15    1
     6    16    15    2
     7    16    18    1
     8    15    14    1
     9    18    12    2
    10    14    13    2
    11    12    13    1
    12    12    10    1
    13     9     8    2
    14    10     8   am
    15    10    11    1
    16     8     5    1
    17    24    22    2
    18     5     6    2
    19     5     4    1
    20     6     7    1
    21     4     3    2
    22     7    22    1
    23     7     2    2
    24    22    23    2
    25    22    25    1
    26     3     2    1
    27     2     1    1
    28    26    25    1
    29    25    27    1
    30    27    28    2
    31    27    33    1
    32    28    29    1
    33    34    33    1
    34    33    31    2
    35    29    30    2
    36    31    30    1
    37    31    32    1
