@<TRIPOS>MOLECULE
49668_out_ligand_01.pdbqt
 34 37 0 0 0
SMALL
GASTEIGER

@<TRIPOS>ATOM
      1  C         19.6120  -23.2220   -9.4610 C.3     1  UNL1        0.1180
      2  C         20.9720  -23.3200   -8.7580 C.3     1  UNL1        0.0660
      3  C         22.1030  -23.5260   -9.7860 C.3     1  UNL1        0.2210
      4  N         21.9260  -22.6470  -10.9310 N.pl3   1  UNL1       -0.2400
      5  N         22.8670  -22.5130  -11.8820 N.2     1  UNL1       -0.1650
      6  C         22.2960  -21.6830  -12.7850 C.2     1  UNL1        0.1480
      7  C         20.9630  -21.3590  -12.4180 C.2     1  UNL1        0.0890
      8  C         20.7440  -22.0270  -11.2420 C.2     1  UNL1        0.1230
      9  N         19.6590  -22.1390  -10.4430 N.pl3   1  UNL1       -0.3660
     10  H         18.7470  -21.8550  -10.8010 H       1  UNL1        0.1610
     11  C         18.4910  -22.9730   -8.4710 C.2     1  UNL1       -0.0330
     12  C         17.1600  -23.1920   -8.8480 C.2     1  UNL1        0.0120
     13  C         16.1170  -22.9790   -7.9410 C.2     1  UNL1        0.0400
     14  C         16.3860  -22.5460   -6.6390 C.2     1  UNL1        0.1010
     15  C         17.7190  -22.3230   -6.2440 C.2     1  UNL1        0.1020
     16  C         18.7560  -22.5380   -7.1590 C.2     1  UNL1        0.0490
     17  O         15.4260  -22.3130   -5.6850 O.2     1  UNL1       -0.3530
     18  C         14.7290  -23.4340   -5.1620 C.3     1  UNL1        0.2100
     19  O         17.9020  -21.8980   -4.9520 O.2     1  UNL1       -0.3530
     20  C         18.8370  -20.8540   -4.7250 C.3     1  UNL1        0.2100
     21  C         23.4440  -23.3190   -9.1200 C.3     1  UNL1        0.4090
     22  F         23.3310  -22.3730   -8.1500 F       1  UNL1       -0.1690
     23  F         24.3890  -22.8830   -9.9810 F       1  UNL1       -0.1690
     24  F         23.9120  -24.4280   -8.5080 F       1  UNL1       -0.1690
     25  C         23.0230  -21.2290  -13.9850 C.2     1  UNL1        0.2760
     26  O         22.7350  -20.1830  -14.5540 O.2     1  UNL1       -0.2660
     27  N         24.0160  -22.1190  -14.3430 N.am    1  UNL1       -0.3200
     28  H         24.0790  -22.9240  -13.7220 H       1  UNL1        0.1690
     29  C         24.9140  -22.0390  -15.4200 C.2     1  UNL1        0.0520
     30  C         25.9450  -21.1080  -15.5180 C.2     1  UNL1        0.0320
     31  C         26.7810  -21.1150  -16.6350 C.2     1  UNL1        0.0210
     32  C         26.5580  -22.0590  -17.6240 C.2     1  UNL1        0.1160
     33  N         25.5730  -22.9770  -17.5710 N.2     1  UNL1       -0.2710
     34  C         24.7790  -22.9440  -16.4730 C.2     1  UNL1        0.1450
@<TRIPOS>BOND
     1    32    33    2
     2    32    31    1
     3    33    34    1
     4    31    30    2
     5    34    29    2
     6    30    29    1
     7    29    27    1
     8    26    25    2
     9    27    25   am
    10    27    28    1
    11    25     6    1
    12     6     7    1
    13     6     5    2
    14     7     8    2
    15     5     4    1
    16     8     4    1
    17     8     9    1
    18     4     3    1
    19    10     9    1
    20     9     1    1
    21    23    21    1
    22     3    21    1
    23     3     2    1
    24     1     2    1
    25     1    11    1
    26    21    24    1
    27    21    22    1
    28    12    11    2
    29    12    13    1
    30    11    16    1
    31    13    14    2
    32    16    15    2
    33    14    15    1
    34    14    17    1
    35    15    19    1
    36    17    18    1
    37    19    20    1
