@<TRIPOS>MOLECULE
49661_out_ligand_01.pdbqt
 31 33 0 0 0
SMALL
GASTEIGER

@<TRIPOS>ATOM
      1  C         18.6600  -22.3500  -10.0610 C.2     1  UNL1        0.0810
      2  C         19.9700  -22.8250   -9.8590 C.2     1  UNL1        0.0420
      3  C         21.0010  -22.4350  -10.7200 C.2     1  UNL1        0.0330
      4  C         20.7120  -21.5570  -11.7710 C.2     1  UNL1        0.0170
      5  C         19.4120  -21.0840  -11.9720 C.2     1  UNL1        0.0090
      6  C         18.3630  -21.4720  -11.1220 C.2     1  UNL1       -0.0390
      7  C         16.9830  -20.9420  -11.4030 C.3     1  UNL1        0.0500
      8  S         17.3920  -22.9320   -8.9370 S.O2    1  UNL1        0.2460
      9  O         16.6770  -21.7750   -8.4450 O.2     1  UNL1       -0.2060
     10  O         16.7070  -24.0300   -9.5880 O.2     1  UNL1       -0.2060
     11  N         18.3420  -23.6270   -7.7030 N.pl3   1  UNL1       -0.1810
     12  H         17.9490  -24.5470   -7.4960 H       1  UNL1        0.1460
     13  C         18.4070  -22.8270   -6.5120 C.2     1  UNL1        0.0230
     14  C         19.2710  -21.7360   -6.4650 C.2     1  UNL1        0.0240
     15  C         19.3050  -20.9260   -5.3300 C.2     1  UNL1        0.0020
     16  C         18.4610  -21.1980   -4.2520 C.2     1  UNL1        0.0070
     17  C         17.5660  -22.2740   -4.3030 C.2     1  UNL1       -0.0600
     18  C         16.6500  -22.5680   -3.1540 C.3     1  UNL1        0.0480
     19  C         17.5470  -23.0900   -5.4430 C.2     1  UNL1        0.0310
     20  C         22.4140  -22.8930  -10.5610 C.2     1  UNL1        0.2510
     21  O         22.7410  -23.5090   -9.5520 O.2     1  UNL1       -0.2680
     22  N         23.3020  -22.5770  -11.5680 N.am    1  UNL1       -0.3530
     23  H         23.0470  -21.9210  -12.2920 H       1  UNL1        0.1630
     24  C         24.7120  -22.8910  -11.4590 C.3     1  UNL1        0.1630
     25  C         25.5510  -21.7550  -11.9840 C.2     1  UNL1       -0.0190
     26  C         25.9830  -20.7660  -11.0800 C.2     1  UNL1        0.0100
     27  C         26.7450  -19.6800  -11.5160 C.2     1  UNL1        0.0010
     28  C         27.0860  -19.5630  -12.8600 C.2     1  UNL1        0.0020
     29  C         26.6560  -20.5250  -13.7720 C.2     1  UNL1        0.0240
     30  C         25.8880  -21.6120  -13.3400 C.2     1  UNL1        0.0420
     31 CL         25.3680  -22.7450  -14.5380 Cl      1  UNL1       -0.0840
@<TRIPOS>BOND
     1    31    30    1
     2    29    30    1
     3    29    28    2
     4    30    25    2
     5    28    27    1
     6    23    22    1
     7    25    24    1
     8    25    26    1
     9     5     4    2
    10     5     6    1
    11     4     3    1
    12    22    24    1
    13    22    20   am
    14    27    26    2
    15     7     6    1
    16     6     1    2
    17     3    20    1
    18     3     2    2
    19    20    21    2
    20     1     2    1
    21     1     8    1
    22    10     8    2
    23     8     9    2
    24     8    11    1
    25    11    12    1
    26    11    13    1
    27    13    14    2
    28    13    19    1
    29    14    15    1
    30    19    17    2
    31    15    16    2
    32    17    16    1
    33    17    18    1
