@<TRIPOS>MOLECULE
49665_out_ligand_01.pdbqt
 30 32 0 0 0
SMALL
GASTEIGER

@<TRIPOS>ATOM
      1  C         17.0000  -20.9720  -11.1580 C.3     1  UNL1        0.0500
      2  C         18.3960  -21.5120  -11.0080 C.2     1  UNL1       -0.0390
      3  C         19.3920  -21.0090  -11.8630 C.2     1  UNL1        0.0090
      4  C         20.7110  -21.4670  -11.7890 C.2     1  UNL1        0.0170
      5  C         21.0570  -22.4540  -10.8620 C.2     1  UNL1        0.0330
      6  C         20.0810  -22.9670  -10.0040 C.2     1  UNL1        0.0420
      7  C         18.7570  -22.5010  -10.0720 C.2     1  UNL1        0.0860
      8  S         17.5760  -23.2450   -8.9480 S.O2    1  UNL1        0.2630
      9  O         18.2910  -24.1650   -8.0900 O.2     1  UNL1       -0.2000
     10  O         16.4390  -23.7060   -9.7170 O.2     1  UNL1       -0.2000
     11  N         17.0320  -21.9340   -8.0340 N.pl3   1  UNL1       -0.2800
     12  H         17.4210  -21.0460   -8.3370 H       1  UNL1        0.1790
     13  C         16.6890  -22.1190   -6.6630 C.2     1  UNL1        0.0490
     14  C         15.4000  -22.5670   -6.3580 C.2     1  UNL1        0.0310
     15  C         15.0360  -22.8320   -5.0420 C.2     1  UNL1        0.0030
     16  C         15.9650  -22.6570   -4.0220 C.2     1  UNL1        0.0070
     17  C         17.2640  -22.2040   -4.3010 C.2     1  UNL1       -0.0540
     18  C         18.2250  -22.0390   -3.1530 C.3     1  UNL1        0.0490
     19  C         17.6310  -21.9000   -5.6360 C.2     1  UNL1       -0.0290
     20  C         19.0310  -21.4230   -5.9290 C.3     1  UNL1        0.0510
     21  C         22.4500  -22.9640  -10.7420 C.2     1  UNL1        0.2520
     22  O         22.7800  -23.6260   -9.7660 O.2     1  UNL1       -0.2680
     23  N         23.2960  -22.6700  -11.7890 N.am    1  UNL1       -0.3510
     24  H         22.8960  -22.3660  -12.6660 H       1  UNL1        0.1630
     25  C         24.6090  -23.2710  -11.8730 C.3     1  UNL1        0.1870
     26  C         24.9250  -23.5050  -13.3030 C.2     1  UNL1        0.0700
     27  C         24.9960  -22.6760  -14.4040 C.2     1  UNL1        0.0360
     28  C         25.3640  -23.4950  -15.4960 C.2     1  UNL1        0.0270
     29  C         25.4980  -24.7680  -14.9940 C.2     1  UNL1        0.1420
     30  O         25.2380  -24.7850  -13.6610 O.2     1  UNL1       -0.3250
@<TRIPOS>BOND
     1    28    29    2
     2    28    27    1
     3    29    30    1
     4    27    26    2
     5    30    26    1
     6    26    25    1
     7    24    23    1
     8    25    23    1
     9     3     4    1
    10     3     2    2
    11     4     5    2
    12    23    21   am
    13     1     2    1
    14     2     7    1
    15     5    21    1
    16     5     6    1
    17    21    22    2
    18     7     6    2
    19     7     8    1
    20    10     8    2
    21     8     9    2
    22     8    11    1
    23    12    11    1
    24    11    13    1
    25    13    14    2
    26    13    19    1
    27    14    15    1
    28    20    19    1
    29    19    17    2
    30    15    16    2
    31    17    16    1
    32    17    18    1
