@<TRIPOS>MOLECULE
49678_out_ligand_01.pdbqt
 30 32 0 0 0
SMALL
GASTEIGER

@<TRIPOS>ATOM
      1  C         18.9160  -22.5800   -9.4280 C.2     1  UNL1        0.0340
      2  C         18.0650  -21.9620  -10.3520 C.2     1  UNL1        0.0170
      3  C         18.5930  -21.4370  -11.5280 C.2     1  UNL1        0.0030
      4  C         19.9640  -21.5310  -11.7810 C.2     1  UNL1        0.0290
      5  C         20.8260  -22.1470  -10.8620 C.2     1  UNL1        0.0360
      6  C         20.2910  -22.6830   -9.6880 C.2     1  UNL1        0.0460
      7  C         18.3770  -23.1750   -8.1750 C.2     1  UNL1        0.2560
      8  O         18.7270  -24.3090   -7.8720 O.2     1  UNL1       -0.2670
      9  N         17.5320  -22.3440   -7.4680 N.am    1  UNL1       -0.3220
     10  H         17.4310  -21.3880   -7.8060 H       1  UNL1        0.1690
     11  C         16.8330  -22.6090   -6.2650 C.2     1  UNL1        0.0510
     12  C         15.6350  -23.3360   -6.2550 C.2     1  UNL1        0.0300
     13  C         14.9500  -23.5880   -5.0610 C.2     1  UNL1        0.0020
     14  C         15.4510  -23.1180   -3.8540 C.2     1  UNL1        0.0010
     15  C         16.6380  -22.3910   -3.8400 C.2     1  UNL1        0.0200
     16  C         17.3370  -22.1280   -5.0350 C.2     1  UNL1        0.0640
     17  C         18.5920  -21.3400   -4.8750 C.2     1  UNL1        0.1780
     18  O         19.3420  -21.0080   -5.7770 O.2     1  UNL1       -0.6460
     19  O         18.8820  -20.9910   -3.6040 O.3     1  UNL1       -0.7730
     20  H         18.5760  -20.0570   -3.5700 H       1  UNL1        0.1670
     21  N         22.1950  -22.1970  -11.2060 N.am    1  UNL1       -0.3210
     22  C         23.2720  -21.6920  -10.4890 C.2     1  UNL1        0.2800
     23  O         23.1650  -21.0480   -9.4510 O.2     1  UNL1       -0.2650
     24  H         22.4020  -22.6000  -12.1090 H       1  UNL1        0.1690
     25  C         24.5690  -21.9700  -11.0960 C.2     1  UNL1        0.1440
     26  C         25.8450  -21.4610  -10.9070 C.2     1  UNL1        0.0460
     27  C         26.7000  -22.1400  -11.8120 C.2     1  UNL1        0.0480
     28  C         25.9030  -23.0200  -12.5040 C.2     1  UNL1        0.1220
     29 BR         26.5000  -24.2070  -13.8650 Br      1  UNL1       -0.0230
     30  O         24.6170  -22.9240  -12.0810 O.2     1  UNL1       -0.2980
@<TRIPOS>BOND
     1    29    28    1
     2    28    30    1
     3    28    27    2
     4    24    21    1
     5    30    25    1
     6    27    26    1
     7     4     3    2
     8     4     5    1
     9     3     2    1
    10    21     5    1
    11    21    22   am
    12    25    26    2
    13    25    22    1
    14     5     6    2
    15    22    23    2
    16     2     1    2
    17     6     1    1
    18     1     7    1
    19     7     8    2
    20     7     9   am
    21    10     9    1
    22     9    11    1
    23    11    12    2
    24    11    16    1
    25    12    13    1
    26    18    17    2
    27    13    14    2
    28    16    17    1
    29    16    15    2
    30    17    19    1
    31    14    15    1
    32    19    20    1
