@<TRIPOS>MOLECULE
49676_out_ligand_01.pdbqt
 31 33 0 0 0
SMALL
GASTEIGER

@<TRIPOS>ATOM
      1  C         17.6100  -23.0460   -9.0630 C.2     1  UNL1        0.0860
      2  C         19.0070  -22.9750   -9.2010 C.2     1  UNL1        0.0420
      3  C         19.5750  -22.2580  -10.2560 C.2     1  UNL1        0.0330
      4  C         18.7510  -21.6170  -11.1840 C.2     1  UNL1        0.0170
      5  C         17.3620  -21.6800  -11.0420 C.2     1  UNL1        0.0090
      6  C         16.7670  -22.3950   -9.9860 C.2     1  UNL1       -0.0390
      7  C         15.2660  -22.4000   -9.8960 C.3     1  UNL1        0.0500
      8  S         16.9790  -23.9560   -7.6540 S.O2    1  UNL1        0.2630
      9  O         15.9130  -24.8170   -8.1210 O.2     1  UNL1       -0.2000
     10  O         18.1020  -24.5180   -6.9350 O.2     1  UNL1       -0.2000
     11  N         16.3370  -22.7490   -6.6680 N.pl3   1  UNL1       -0.2800
     12  H         15.3210  -22.7760   -6.6200 H       1  UNL1        0.1790
     13  C         17.0670  -22.2690   -5.5410 C.2     1  UNL1        0.0480
     14  C         18.1660  -21.4250   -5.7330 C.2     1  UNL1        0.0300
     15  C         18.9160  -20.9790   -4.6450 C.2     1  UNL1        0.0020
     16  C         18.5660  -21.3650   -3.3570 C.2     1  UNL1        0.0010
     17  C         17.4580  -22.1870   -3.1540 C.2     1  UNL1        0.0090
     18  C         16.6890  -22.6400   -4.2390 C.2     1  UNL1       -0.0350
     19  C         15.5100  -23.5320   -3.9650 C.3     1  UNL1        0.0500
     20  C         21.0580  -22.2240  -10.3780 C.2     1  UNL1        0.2560
     21  O         21.7220  -22.1540   -9.3510 O.2     1  UNL1       -0.2670
     22  N         21.5350  -22.2430  -11.6760 N.am    1  UNL1       -0.3230
     23  H         20.8460  -22.1740  -12.4160 H       1  UNL1        0.1690
     24  C         22.8850  -22.2470  -12.0890 C.2     1  UNL1        0.0360
     25  C         23.1860  -21.5790  -13.2830 C.2     1  UNL1        0.0310
     26  C         24.4970  -21.5370  -13.7650 C.2     1  UNL1        0.0280
     27  C         25.5240  -22.1670  -13.0600 C.2     1  UNL1        0.0550
     28 CL         27.1210  -22.0790  -13.7120 Cl      1  UNL1       -0.0830
     29  C         25.2320  -22.8390  -11.8690 C.2     1  UNL1        0.0580
     30 CL         26.4520  -23.6460  -10.9450 Cl      1  UNL1       -0.0820
     31  C         23.9160  -22.8780  -11.3890 C.2     1  UNL1        0.0550
@<TRIPOS>BOND
     1    26    25    1
     2    26    27    2
     3    28    27    1
     4    25    24    2
     5    27    29    1
     6    23    22    1
     7    24    22    1
     8    24    31    1
     9    29    31    2
    10    29    30    1
    11    22    20   am
    12     4     5    2
    13     4     3    1
    14     5     6    1
    15    20     3    1
    16    20    21    2
    17     3     2    2
    18     6     7    1
    19     6     1    2
    20     2     1    1
    21     1     8    1
    22     9     8    2
    23     8    10    2
    24     8    11    1
    25    11    12    1
    26    11    13    1
    27    14    13    2
    28    14    15    1
    29    13    18    1
    30    15    16    2
    31    18    19    1
    32    18    17    2
    33    16    17    1
