@<TRIPOS>MOLECULE
49675_out_ligand_01.pdbqt
 30 33 0 0 0
SMALL
GASTEIGER

@<TRIPOS>ATOM
      1  C         20.1550  -21.9580  -11.2060 C.2     1  UNL1        0.0330
      2  C         19.0010  -21.3090  -11.7140 C.2     1  UNL1        0.0180
      3  C         17.7390  -21.5540  -11.1580 C.2     1  UNL1        0.0190
      4  C         17.6720  -22.4510  -10.1090 C.2     1  UNL1        0.0480
      5  C         18.7960  -23.0960   -9.6220 C.2     1  UNL1        0.0490
      6  C         20.0530  -22.8780  -10.1510 C.2     1  UNL1        0.0350
      7  C         18.3640  -23.9670   -8.5300 C.2     1  UNL1        0.2620
      8  O         19.1130  -24.6730   -7.8830 O.2     1  UNL1       -0.2670
      9  N         17.0110  -23.8050   -8.4190 N.am    1  UNL1       -0.2760
     10  C         16.5250  -22.9130   -9.3320 C.2     1  UNL1        0.2620
     11  O         15.3830  -22.5360   -9.5170 O.2     1  UNL1       -0.2670
     12  C         21.4990  -21.7160  -11.8010 C.2     1  UNL1        0.2560
     13  N         22.5370  -22.3840  -11.1780 N.am    1  UNL1       -0.3230
     14  H         22.2910  -23.0590  -10.4650 H       1  UNL1        0.1690
     15  O         21.5650  -20.9920  -12.7850 O.2     1  UNL1       -0.2670
     16  C         23.9110  -22.3120  -11.4940 C.2     1  UNL1        0.0350
     17  C         24.7020  -21.4690  -10.7030 C.2     1  UNL1        0.0290
     18  C         26.0670  -21.3330  -10.9580 C.2     1  UNL1        0.0030
     19  C         26.6540  -22.0390  -12.0060 C.2     1  UNL1        0.0110
     20  C         25.8860  -22.8950  -12.8050 C.2     1  UNL1       -0.0350
     21  C         24.5090  -23.0100  -12.5480 C.2     1  UNL1        0.0410
     22  C         26.5420  -23.5960  -13.9180 C.2     1  UNL1        0.0010
     23  C         25.9260  -24.4340  -14.7610 C.2     1  UNL1        0.0120
     24  C         16.2020  -24.4560   -7.4140 C.3     1  UNL1        0.1740
     25  C         16.1670  -23.6590   -6.1320 C.2     1  UNL1       -0.0400
     26  C         17.2610  -23.6740   -5.2540 C.2     1  UNL1        0.0090
     27  C         17.2180  -22.9560   -4.0580 C.2     1  UNL1        0.0010
     28  C         16.0800  -22.2240   -3.7240 C.2     1  UNL1        0.0000
     29  C         14.9820  -22.2120   -4.5820 C.2     1  UNL1        0.0010
     30  C         15.0230  -22.9290   -5.7790 C.2     1  UNL1        0.0090
@<TRIPOS>BOND
     1    23    22    2
     2    22    20    1
     3    20    21    1
     4    20    19    2
     5    15    12    2
     6    21    16    2
     7    19    18    1
     8    12     1    1
     9    12    13   am
    10     2     1    2
    11     2     3    1
    12    16    13    1
    13    16    17    1
    14     1     6    1
    15    13    14    1
    16     3     4    2
    17    18    17    2
    18     6     5    2
    19     4     5    1
    20     4    10    1
    21     5     7    1
    22    11    10    2
    23    10     9   am
    24     7     9   am
    25     7     8    2
    26     9    24    1
    27    24    25    1
    28    25    30    2
    29    25    26    1
    30    30    29    1
    31    26    27    2
    32    29    28    2
    33    27    28    1
