@<TRIPOS>MOLECULE
49682_out_ligand_01.pdbqt
 31 34 0 0 0
SMALL
GASTEIGER

@<TRIPOS>ATOM
      1  C         18.3920  -22.3200   -9.8860 C.2     1  UNL1        0.0810
      2  C         19.6980  -22.8270   -9.7920 C.2     1  UNL1        0.0420
      3  C         20.6820  -22.4220  -10.7000 C.2     1  UNL1        0.0330
      4  C         20.3630  -21.4970  -11.6960 C.2     1  UNL1        0.0170
      5  C         19.0620  -20.9970  -11.7940 C.2     1  UNL1        0.0090
      6  C         18.0580  -21.3930  -10.8930 C.2     1  UNL1       -0.0390
      7  C         16.6790  -20.8240  -11.0750 C.3     1  UNL1        0.0500
      8  S         17.1920  -22.9210   -8.6970 S.O2    1  UNL1        0.2460
      9  O         16.5070  -21.7850   -8.1260 O.2     1  UNL1       -0.2060
     10  O         16.4600  -23.9980   -9.3310 O.2     1  UNL1       -0.2060
     11  N         18.2290  -23.6340   -7.5400 N.pl3   1  UNL1       -0.1810
     12  H         18.0730  -24.6440   -7.5700 H       1  UNL1        0.1460
     13  C         18.0310  -23.1390   -6.2010 C.2     1  UNL1        0.0290
     14  C         18.7870  -22.0640   -5.7170 C.2     1  UNL1       -0.0400
     15  C         18.5230  -21.5840   -4.4260 C.2     1  UNL1        0.0090
     16  C         19.8530  -21.4040   -6.5400 C.3     1  UNL1        0.0500
     17  C         17.5330  -22.1670   -3.6330 C.2     1  UNL1        0.0070
     18  C         16.7730  -23.2340   -4.1200 C.2     1  UNL1       -0.0600
     19  C         15.7210  -23.8720   -3.2610 C.3     1  UNL1        0.0480
     20  C         17.0350  -23.7200   -5.4050 C.2     1  UNL1        0.0310
     21  C         22.0570  -22.9710  -10.5440 C.2     1  UNL1        0.2520
     22  O         22.3110  -23.7210   -9.6080 O.2     1  UNL1       -0.2680
     23  N         22.9750  -22.6070  -11.5090 N.am    1  UNL1       -0.3520
     24  H         22.6290  -22.2040  -12.3690 H       1  UNL1        0.1630
     25  C         24.3030  -23.1990  -11.5300 C.3     1  UNL1        0.0890
     26  C         24.7090  -23.6590  -12.9470 C.3     1  UNL1        0.0300
     27  C         26.0080  -22.8710  -13.2050 C.3     1  UNL1       -0.0120
     28  C         27.1200  -23.4220  -12.2950 C.3     1  UNL1        0.0050
     29  C         25.6990  -21.5300  -12.5430 C.3     1  UNL1        0.0110
     30  C         26.7060  -22.9230  -10.9040 C.3     1  UNL1        0.0070
     31  C         25.3960  -22.1640  -11.1850 C.3     1  UNL1        0.0090
@<TRIPOS>BOND
     1    27    26    1
     2    27    29    1
     3    27    28    1
     4    26    25    1
     5    29    31    1
     6    24    23    1
     7    28    30    1
     8     5     4    2
     9     5     6    1
    10     4     3    1
    11    25    23    1
    12    25    31    1
    13    23    21   am
    14    31    30    1
    15     7     6    1
    16     6     1    2
    17     3    21    1
    18     3     2    2
    19    21    22    2
    20     1     2    1
    21     1     8    1
    22    10     8    2
    23     8     9    2
    24     8    11    1
    25    12    11    1
    26    11    13    1
    27    16    14    1
    28    13    14    2
    29    13    20    1
    30    14    15    1
    31    20    18    2
    32    15    17    2
    33    18    17    1
    34    18    19    1
