@<TRIPOS>MOLECULE
49696_out_ligand_01.pdbqt
 31 35 0 0 0
SMALL
GASTEIGER

@<TRIPOS>ATOM
      1  C         22.8040  -21.7220  -12.8290 C.2     1  UNL1        0.0320
      2  C         23.6040  -22.4390  -11.9280 C.2     1  UNL1        0.0180
      3  C         23.0990  -22.8170  -10.6820 C.2     1  UNL1        0.0260
      4  C         21.7900  -22.4700  -10.3380 C.2     1  UNL1        0.0790
      5  C         20.9700  -21.7870  -11.2440 C.2     1  UNL1        0.0260
      6  C         21.4780  -21.4130  -12.4900 C.2     1  UNL1        0.0180
      7  S         21.1220  -22.9560   -8.7660 S.O2    1  UNL1        0.2590
      8  O         21.7130  -22.1360   -7.7330 O.2     1  UNL1       -0.2010
      9  O         21.1940  -24.4000   -8.7090 O.2     1  UNL1       -0.2010
     10  N         19.5000  -22.5950   -8.8980 N.3     1  UNL1       -0.3050
     11  H         19.2690  -22.0870   -9.7500 H       1  UNL1        0.1730
     12  C         18.4290  -22.8510   -7.9230 C.3     1  UNL1        0.0410
     13  C         17.0580  -22.5380   -8.5600 C.3     1  UNL1        0.0360
     14  C         15.9170  -22.9110   -7.5950 C.3     1  UNL1       -0.0120
     15  C         15.9880  -24.4140   -7.2830 C.3     1  UNL1        0.0090
     16  C         16.0780  -22.1140   -6.2900 C.3     1  UNL1        0.0090
     17  C         17.3390  -24.7520   -6.6300 C.3     1  UNL1       -0.0120
     18  C         17.4900  -23.9500   -5.3290 C.3     1  UNL1        0.0090
     19  C         18.4720  -24.3680   -7.5940 C.3     1  UNL1        0.0360
     20  C         17.4300  -22.4460   -5.6320 C.3     1  UNL1       -0.0120
     21  C         18.5690  -22.0740   -6.6000 C.3     1  UNL1        0.0360
     22  C         23.3870  -21.3440  -14.1500 C.2     1  UNL1        0.2560
     23  O         22.9430  -20.3540  -14.7140 O.2     1  UNL1       -0.2670
     24  N         24.3650  -22.2020  -14.6200 N.am    1  UNL1       -0.3230
     25  H         24.5270  -23.0510  -14.0960 H       1  UNL1        0.1690
     26  C         25.1140  -22.0750  -15.8110 C.2     1  UNL1        0.0350
     27  C         26.2410  -21.2430  -15.7710 C.2     1  UNL1        0.0290
     28  C         27.0320  -21.0590  -16.9090 C.2     1  UNL1        0.0020
     29  C         26.7020  -21.7040  -18.0970 C.2     1  UNL1        0.0000
     30  C         25.5810  -22.5290  -18.1470 C.2     1  UNL1        0.0020
     31  C         24.7890  -22.7130  -17.0080 C.2     1  UNL1        0.0290
@<TRIPOS>BOND
     1    30    29    2
     2    30    31    1
     3    29    28    1
     4    31    26    2
     5    28    27    2
     6    26    27    1
     7    26    24    1
     8    23    22    2
     9    24    22   am
    10    24    25    1
    11    22     1    1
    12     1     6    2
    13     1     2    1
    14     6     5    1
    15     2     3    2
    16     5     4    2
    17     3     4    1
    18     4     7    1
    19    11    10    1
    20    10     7    1
    21    10    12    1
    22     7     9    2
    23     7     8    2
    24    13    12    1
    25    13    14    1
    26    12    19    1
    27    12    21    1
    28    14    15    1
    29    14    16    1
    30    19    17    1
    31    15    17    1
    32    17    18    1
    33    21    20    1
    34    16    20    1
    35    20    18    1
