@<TRIPOS>MOLECULE
49691_out_ligand_01.pdbqt
 31 33 0 0 0
SMALL
GASTEIGER

@<TRIPOS>ATOM
      1  C         20.1360  -21.8240  -11.4110 C.2     1  UNL1        0.0330
      2  C         19.0470  -21.2190  -12.0400 C.2     1  UNL1        0.0170
      3  C         17.7650  -21.3620  -11.4970 C.2     1  UNL1        0.0090
      4  C         17.5470  -22.0910  -10.3130 C.2     1  UNL1       -0.0390
      5  C         16.1370  -22.1910   -9.8010 C.3     1  UNL1        0.0500
      6  C         18.6580  -22.6730   -9.6760 C.2     1  UNL1        0.0860
      7  C         19.9430  -22.5500  -10.2350 C.2     1  UNL1        0.0420
      8  C         21.5230  -21.6750  -11.9290 C.2     1  UNL1        0.2560
      9  N         22.4970  -22.2890  -11.1660 N.am    1  UNL1       -0.3230
     10  H         22.2010  -22.7090  -10.2940 H       1  UNL1        0.1690
     11  O         21.6780  -21.0200  -12.9530 O.2     1  UNL1       -0.2670
     12  C         23.8840  -22.3390  -11.4240 C.2     1  UNL1        0.0360
     13  C         24.6970  -21.4570  -10.7020 C.2     1  UNL1        0.0290
     14  C         26.0780  -21.4440  -10.8980 C.2     1  UNL1        0.0040
     15  C         26.6590  -22.3180  -11.8140 C.2     1  UNL1        0.0180
     16  C         25.8670  -23.2170  -12.5350 C.2     1  UNL1        0.0020
     17  C         24.4780  -23.2110  -12.3430 C.2     1  UNL1        0.0480
     18  S         26.6830  -24.2960  -13.7050 S.3     1  UNL1       -0.1340
     19  C         25.3200  -24.6990  -14.8320 C.3     1  UNL1        0.0950
     20  S         18.5690  -23.5950   -8.1430 S.O2    1  UNL1        0.2630
     21  O         17.3790  -24.4150   -8.1210 O.2     1  UNL1       -0.2000
     22  O         19.8760  -24.1860   -7.9390 O.2     1  UNL1       -0.2000
     23  N         18.4140  -22.3790   -6.9790 N.pl3   1  UNL1       -0.2810
     24  H         18.6290  -21.4570   -7.3570 H       1  UNL1        0.1790
     25  C         17.3780  -22.4720   -6.0080 C.2     1  UNL1        0.0430
     26  C         17.6910  -22.9370   -4.7290 C.2     1  UNL1        0.0300
     27  C         16.7020  -22.9910   -3.7490 C.2     1  UNL1        0.0030
     28  C         15.3990  -22.5880   -4.0460 C.2     1  UNL1        0.0070
     29  C         15.0720  -22.1400   -5.3320 C.2     1  UNL1       -0.0600
     30  C         13.6800  -21.6790   -5.6480 C.3     1  UNL1        0.0480
     31  C         16.0760  -22.0750   -6.3070 C.2     1  UNL1        0.0370
@<TRIPOS>BOND
     1    19    18    1
     2    18    16    1
     3    11     8    2
     4    16    17    1
     5    16    15    2
     6    17    12    2
     7     2     3    1
     8     2     1    2
     9     8     1    1
    10     8     9   am
    11    15    14    1
    12     3     4    2
    13    12     9    1
    14    12    13    1
    15     1     7    1
    16     9    10    1
    17    14    13    2
    18     4     5    1
    19     4     6    1
    20     7     6    2
    21     6    20    1
    22    20    21    2
    23    20    22    2
    24    20    23    1
    25    24    23    1
    26    23    25    1
    27    31    25    2
    28    31    29    1
    29    25    26    1
    30    30    29    1
    31    29    28    2
    32    26    27    2
    33    28    27    1
