@<TRIPOS>MOLECULE
49690_out_ligand_01.pdbqt
 32 34 0 0 0
SMALL
GASTEIGER

@<TRIPOS>ATOM
      1  C         17.5630  -23.5050   -8.6940 C.2     1  UNL1        0.0810
      2  C         18.9580  -23.6620   -8.7300 C.2     1  UNL1        0.0420
      3  C         19.7160  -23.0480   -9.7320 C.2     1  UNL1        0.0330
      4  C         19.0750  -22.2850  -10.7120 C.2     1  UNL1        0.0170
      5  C         17.6870  -22.1230  -10.6720 C.2     1  UNL1        0.0090
      6  C         16.9080  -22.7310   -9.6710 C.2     1  UNL1       -0.0390
      7  C         15.4250  -22.4940   -9.6860 C.3     1  UNL1        0.0500
      8  S         16.6870  -24.3050   -7.3520 S.O2    1  UNL1        0.2460
      9  O         15.5670  -25.0180   -7.9340 O.2     1  UNL1       -0.2060
     10  O         17.6520  -24.9830   -6.5140 O.2     1  UNL1       -0.2060
     11  N         16.0470  -22.9430   -6.5410 N.pl3   1  UNL1       -0.1810
     12  H         15.1460  -23.2170   -6.1450 H       1  UNL1        0.1460
     13  C         16.9070  -22.4220   -5.5110 C.2     1  UNL1        0.0290
     14  C         16.6490  -22.6950   -4.1600 C.2     1  UNL1       -0.0400
     15  C         17.4980  -22.1410   -3.1900 C.2     1  UNL1        0.0090
     16  C         15.4880  -23.5440   -3.7250 C.3     1  UNL1        0.0500
     17  C         18.5800  -21.3350   -3.5580 C.2     1  UNL1        0.0070
     18  C         18.8250  -21.0490   -4.9040 C.2     1  UNL1       -0.0600
     19  C         19.9920  -20.1970   -5.3080 C.3     1  UNL1        0.0480
     20  C         17.9880  -21.6070   -5.8780 C.2     1  UNL1        0.0310
     21  C         21.1880  -23.2610   -9.7320 C.2     1  UNL1        0.2520
     22  O         21.7050  -23.9190   -8.8390 O.2     1  UNL1       -0.2680
     23  N         21.8960  -22.6650  -10.7500 N.am    1  UNL1       -0.3490
     24  H         21.4380  -22.0020  -11.3610 H       1  UNL1        0.1630
     25  C         23.3480  -22.7310  -10.8070 C.3     1  UNL1        0.1140
     26  C         23.9870  -21.6650   -9.9110 C.3     1  UNL1        0.0370
     27  C         23.7990  -22.6390  -12.2540 C.2     1  UNL1       -0.0360
     28  C         23.2480  -21.6480  -13.0880 C.2     1  UNL1        0.0090
     29  C         23.6510  -21.5300  -14.4200 C.2     1  UNL1        0.0010
     30  C         24.6170  -22.3920  -14.9350 C.2     1  UNL1        0.0000
     31  C         25.1830  -23.3700  -14.1190 C.2     1  UNL1        0.0010
     32  C         24.7810  -23.4910  -12.7870 C.2     1  UNL1        0.0090
@<TRIPOS>BOND
     1    30    29    2
     2    30    31    1
     3    29    28    1
     4    31    32    2
     5    28    27    2
     6    32    27    1
     7    27    25    1
     8    24    23    1
     9    25    23    1
    10    25    26    1
    11    23    21   am
    12     4     5    2
    13     4     3    1
    14     5     6    1
    15     3    21    1
    16     3     2    2
    17    21    22    2
    18     7     6    1
    19     6     1    2
    20     2     1    1
    21     1     8    1
    22     9     8    2
    23     8    11    1
    24     8    10    2
    25    11    12    1
    26    11    13    1
    27    20    13    2
    28    20    18    1
    29    13    14    1
    30    19    18    1
    31    18    17    2
    32    14    16    1
    33    14    15    2
    34    17    15    1
