@<TRIPOS>MOLECULE
49703_out_ligand_01.pdbqt
 32 34 0 0 0
SMALL
GASTEIGER

@<TRIPOS>ATOM
      1  C         17.5810  -23.5790   -8.6350 C.2     1  UNL1        0.0860
      2  C         18.9770  -23.7560   -8.6010 C.2     1  UNL1        0.0420
      3  C         19.7910  -23.1210   -9.5420 C.2     1  UNL1        0.0330
      4  C         19.1990  -22.3270  -10.5280 C.2     1  UNL1        0.0170
      5  C         17.8130  -22.1550  -10.5670 C.2     1  UNL1        0.0090
      6  C         16.9800  -22.7770   -9.6240 C.2     1  UNL1       -0.0390
      7  C         15.5000  -22.5410   -9.7230 C.3     1  UNL1        0.0500
      8  S         16.6390  -24.3850   -7.3450 S.O2    1  UNL1        0.2630
      9  O         15.4960  -25.0270   -7.9580 O.2     1  UNL1       -0.2000
     10  O         17.5470  -25.1550   -6.5240 O.2     1  UNL1       -0.2000
     11  N         16.1340  -23.0910   -6.4150 N.pl3   1  UNL1       -0.2800
     12  H         15.3020  -22.6000   -6.7310 H       1  UNL1        0.1790
     13  C         16.9830  -22.4920   -5.4480 C.2     1  UNL1        0.0490
     14  C         16.6800  -22.6060   -4.0850 C.2     1  UNL1       -0.0350
     15  C         17.5090  -21.9590   -3.1560 C.2     1  UNL1        0.0090
     16  C         15.5370  -23.4430   -3.5840 C.3     1  UNL1        0.0500
     17  C         18.5910  -21.1820   -3.5790 C.2     1  UNL1        0.0070
     18  C         18.8710  -21.0440   -4.9390 C.2     1  UNL1       -0.0600
     19  C         19.9960  -20.1650   -5.4040 C.3     1  UNL1        0.0480
     20  C         18.0460  -21.6880   -5.8680 C.2     1  UNL1        0.0370
     21  C         21.2750  -23.2650   -9.5510 C.2     1  UNL1        0.2510
     22  O         21.7870  -24.3250   -9.2020 O.2     1  UNL1       -0.2680
     23  N         22.0000  -22.1830   -9.9980 N.am    1  UNL1       -0.3530
     24  H         21.5350  -21.4010  -10.4350 H       1  UNL1        0.1630
     25  C         23.4380  -22.2430  -10.1570 C.3     1  UNL1        0.1620
     26  C         23.8190  -21.8960  -11.5790 C.2     1  UNL1       -0.0350
     27  C         22.7870  -21.7750  -12.5270 C.2     1  UNL1        0.0090
     28  C         23.0550  -21.4140  -13.8450 C.2     1  UNL1        0.0010
     29  C         24.3630  -21.1680  -14.2360 C.2     1  UNL1        0.0010
     30  C         25.4040  -21.2940  -13.3140 C.2     1  UNL1        0.0070
     31  C         25.1480  -21.6600  -11.9820 C.2     1  UNL1       -0.0540
     32  C         26.3050  -21.7750  -11.0280 C.3     1  UNL1        0.0490
@<TRIPOS>BOND
     1    29    28    2
     2    29    30    1
     3    28    27    1
     4    30    31    2
     5    27    26    2
     6    31    26    1
     7    31    32    1
     8    26    25    1
     9     5     4    2
    10     5     6    1
    11     4     3    1
    12    24    23    1
    13    25    23    1
    14    23    21   am
    15     7     6    1
    16     6     1    2
    17    21     3    1
    18    21    22    2
    19     3     2    2
    20     1     2    1
    21     1     8    1
    22     9     8    2
    23     8    10    2
    24     8    11    1
    25    12    11    1
    26    11    13    1
    27    20    13    2
    28    20    18    1
    29    13    14    1
    30    19    18    1
    31    18    17    2
    32    14    16    1
    33    14    15    2
    34    17    15    1
