@<TRIPOS>MOLECULE
49704_out_ligand_01.pdbqt
 32 34 0 0 0
SMALL
GASTEIGER

@<TRIPOS>ATOM
      1  C         21.3580  -21.2410  -12.5380 C.3     1  UNL1        0.0500
      2  C         20.6360  -21.7560  -11.3240 C.2     1  UNL1       -0.0390
      3  C         19.2280  -21.7310  -11.3360 C.2     1  UNL1        0.0090
      4  C         18.4810  -22.1930  -10.2490 C.2     1  UNL1        0.0170
      5  C         19.1300  -22.6730   -9.1100 C.2     1  UNL1        0.0330
      6  C         20.5270  -22.7100   -9.0800 C.2     1  UNL1        0.0420
      7  C         21.2800  -22.2700  -10.1840 C.2     1  UNL1        0.0860
      8  C         18.3870  -23.2040   -7.9330 C.2     1  UNL1        0.2560
      9  O         18.5100  -24.3950   -7.6750 O.2     1  UNL1       -0.2670
     10  N         17.6440  -22.2670   -7.2360 N.am    1  UNL1       -0.3220
     11  H         17.7530  -21.3030   -7.5380 H       1  UNL1        0.1690
     12  C         16.8200  -22.4730   -6.1000 C.2     1  UNL1        0.0500
     13  C         15.5750  -23.1080   -6.1940 C.2     1  UNL1        0.0300
     14  C         14.7720  -23.3080   -5.0670 C.2     1  UNL1        0.0020
     15  C         15.1970  -22.8710   -3.8210 C.2     1  UNL1        0.0010
     16  C         16.4270  -22.2330   -3.7040 C.2     1  UNL1        0.0180
     17  C         17.2520  -22.0250   -4.8320 C.2     1  UNL1        0.0740
     18  C         18.5570  -21.3080   -4.5950 C.3     1  UNL1        0.4190
     19  F         19.0400  -21.5080   -3.3350 F       1  UNL1       -0.1660
     20  F         18.4860  -19.9510   -4.7430 F       1  UNL1       -0.1660
     21  F         19.5440  -21.7160   -5.4410 F       1  UNL1       -0.1660
     22  S         23.0560  -22.4220  -10.0170 S.O2    1  UNL1        0.2630
     23  O         23.6850  -21.1270  -10.1410 O.2     1  UNL1       -0.2000
     24  O         23.2930  -23.2490   -8.8520 O.2     1  UNL1       -0.2000
     25  N         23.4820  -23.3640  -11.3560 N.pl3   1  UNL1       -0.2810
     26  H         22.6710  -23.6280  -11.9130 H       1  UNL1        0.1790
     27  C         24.7010  -23.0970  -12.0400 C.2     1  UNL1        0.0420
     28  C         25.9090  -23.3890  -11.4020 C.2     1  UNL1        0.0300
     29  C         27.1180  -23.1630  -12.0610 C.2     1  UNL1        0.0020
     30  C         27.1210  -22.6450  -13.3560 C.2     1  UNL1        0.0000
     31  C         25.9140  -22.3460  -13.9900 C.2     1  UNL1        0.0020
     32  C         24.7040  -22.5700  -13.3300 C.2     1  UNL1        0.0300
@<TRIPOS>BOND
     1    31    30    2
     2    31    32    1
     3    30    29    1
     4    32    27    2
     5     1     2    1
     6    29    28    2
     7    27    28    1
     8    27    25    1
     9    26    25    1
    10    25    22    1
    11     3     2    2
    12     3     4    1
    13     2     7    1
    14     4     5    2
    15     7    22    1
    16     7     6    2
    17    23    22    2
    18    22    24    2
    19     5     6    1
    20     5     8    1
    21     8     9    2
    22     8    10   am
    23    11    10    1
    24    10    12    1
    25    13    12    2
    26    13    14    1
    27    12    17    1
    28    21    18    1
    29    14    15    2
    30    17    18    1
    31    17    16    2
    32    20    18    1
    33    18    19    1
    34    15    16    1
