@<TRIPOS>MOLECULE
4971_out_ligand_01.pdbqt
 35 38 0 0 0
SMALL
GASTEIGER

@<TRIPOS>ATOM
      1  S         22.6900  -21.9890   -9.1960 S.3     1  UNL1       -0.1000
      2  C         23.8550  -21.9090  -10.5210 C.2     1  UNL1        0.1090
      3  N         25.1610  -22.0740  -10.2020 N.2     1  UNL1       -0.2340
      4  C         26.0590  -22.0080  -11.1970 C.2     1  UNL1        0.2350
      5  N         25.8180  -21.7880  -12.4880 N.2     1  UNL1       -0.2340
      6  C         24.5120  -21.6230  -12.7580 C.2     1  UNL1        0.1120
      7  S         24.0120  -21.3300  -14.3610 S.3     1  UNL1       -0.0800
      8  C         23.4620  -21.6680  -11.8480 C.2     1  UNL1        0.0470
      9  C         22.3720  -21.2710  -13.8940 C.2     1  UNL1        0.0650
     10  C         22.2050  -21.4620  -12.5360 C.2     1  UNL1       -0.0030
     11  C         20.8600  -21.4650  -11.9850 C.2     1  UNL1       -0.0240
     12  C         20.2840  -22.6570  -11.5340 C.2     1  UNL1        0.0150
     13  C         18.9890  -22.6560  -11.0030 C.2     1  UNL1        0.0370
     14  C         18.2650  -21.4640  -10.9210 C.2     1  UNL1        0.0680
     15  C         18.8470  -20.2760  -11.3710 C.2     1  UNL1        0.0370
     16  C         20.1380  -20.2710  -11.9010 C.2     1  UNL1        0.0150
     17  O         16.9960  -21.3250  -10.4290 O.2     1  UNL1       -0.3560
     18  C         16.4400  -22.4500   -9.7590 C.3     1  UNL1        0.2100
     19  C         22.4510  -23.7910   -9.1080 C.3     1  UNL1        0.1840
     20  C         21.0760  -24.1690   -8.5720 C.2     1  UNL1        0.2310
     21  O         20.6420  -25.3090   -8.7330 O.2     1  UNL1       -0.2720
     22  N         20.4550  -23.1630   -7.8550 N.am    1  UNL1       -0.3270
     23  H         20.9520  -22.2730   -7.8330 H       1  UNL1        0.1690
     24  C         19.2160  -23.2050   -7.1870 C.2     1  UNL1        0.0340
     25  C         18.3340  -24.2870   -7.2420 C.2     1  UNL1        0.0310
     26  C         17.1250  -24.2570   -6.5360 C.2     1  UNL1        0.0270
     27  C         16.8040  -23.1410   -5.7640 C.2     1  UNL1        0.0740
     28  C         17.6660  -22.0450   -5.7100 C.2     1  UNL1        0.0270
     29  C         18.8690  -22.0820   -6.4200 C.2     1  UNL1        0.0310
     30  S         15.2750  -23.1030   -4.8680 S.O2    1  UNL1        0.2390
     31  O         14.3090  -22.3530   -5.6350 O.2     1  UNL1       -0.2060
     32  O         15.0060  -24.4300   -4.3660 O.2     1  UNL1       -0.2060
     33  N         15.6950  -22.1780   -3.5260 N.3     1  UNL1       -0.2250
     34  H         16.4780  -21.5480   -3.7000 H       1  UNL1        0.1360
     35  H         15.8760  -22.8030   -2.7400 H       1  UNL1        0.1360
@<TRIPOS>BOND
     1     7     9    1
     2     7     6    1
     3     9    10    2
     4     6     5    2
     5     6     8    1
     6    10    11    1
     7    10     8    1
     8     5     4    1
     9    11    16    2
    10    11    12    1
    11    16    15    1
    12     8     2    2
    13    12    13    2
    14    15    14    2
    15     4     3    2
    16    13    14    1
    17    14    17    1
    18     2     3    1
    19     2     1    1
    20    17    18    1
    21     1    19    1
    22    19    20    1
    23    21    20    2
    24    20    22   am
    25    22    23    1
    26    22    24    1
    27    25    24    2
    28    25    26    1
    29    24    29    1
    30    26    27    2
    31    29    28    2
    32    27    28    1
    33    27    30    1
    34    31    30    2
    35    30    32    2
    36    30    33    1
    37    34    33    1
    38    33    35    1
