@<TRIPOS>MOLECULE
49723_out_ligand_01.pdbqt
 34 37 0 0 0
SMALL
GASTEIGER

@<TRIPOS>ATOM
      1  C         18.0290  -23.2780   -8.8800 C.2     1  UNL1        0.1020
      2  C         18.8130  -22.5780   -9.8120 C.2     1  UNL1        0.0440
      3  C         20.1890  -22.8150   -9.9010 C.2     1  UNL1        0.0340
      4  C         20.7860  -23.7470   -9.0470 C.2     1  UNL1        0.0190
      5  C         20.0020  -24.4470   -8.1240 C.2     1  UNL1        0.0260
      6  C         18.6210  -24.2200   -8.0360 C.2     1  UNL1        0.0570
      7 CL         17.7750  -25.1160   -6.8290 Cl      1  UNL1       -0.0830
      8  C         20.9870  -22.0260  -10.8810 C.2     1  UNL1        0.2560
      9  O         20.4740  -21.0190  -11.3530 O.2     1  UNL1       -0.2670
     10  N         22.2320  -22.5480  -11.1750 N.am    1  UNL1       -0.3230
     11  H         22.4550  -23.4580  -10.7950 H       1  UNL1        0.1690
     12  C         23.2110  -21.9910  -12.0270 C.2     1  UNL1        0.0370
     13  C         24.4460  -21.6620  -11.4480 C.2     1  UNL1        0.0320
     14  C         25.4670  -21.0930  -12.2150 C.2     1  UNL1        0.0420
     15  C         25.2590  -20.8460  -13.5670 C.2     1  UNL1        0.1020
     16  C         24.0420  -21.1940  -14.1590 C.2     1  UNL1        0.1040
     17  O         26.2950  -20.2660  -14.2540 O.2     1  UNL1       -0.3460
     18  C         23.0170  -21.7490  -13.3890 C.2     1  UNL1        0.0690
     19  O         23.7800  -21.0080  -15.4930 O.2     1  UNL1       -0.3460
     20  C         24.9850  -20.7890  -16.2340 C.3     1  UNL1        0.2020
     21  C         25.8640  -19.7700  -15.5280 C.3     1  UNL1        0.2020
     22  S         16.2880  -22.9390   -8.8340 S.O2    1  UNL1        0.2650
     23  O         15.6050  -24.1340   -8.3890 O.2     1  UNL1       -0.2000
     24  O         15.9200  -22.3340  -10.0960 O.2     1  UNL1       -0.2000
     25  N         16.1360  -21.7920   -7.6070 N.pl3   1  UNL1       -0.2800
     26  H         15.5560  -21.0070   -7.8890 H       1  UNL1        0.1790
     27  C         16.1780  -22.1800   -6.2300 C.2     1  UNL1        0.0490
     28  C         15.0540  -22.7860   -5.6580 C.2     1  UNL1        0.0310
     29  C         15.0350  -23.1240   -4.3090 C.2     1  UNL1        0.0030
     30  C         16.1460  -22.8630   -3.5170 C.2     1  UNL1        0.0070
     31  C         17.2960  -22.2760   -4.0660 C.2     1  UNL1       -0.0540
     32  C         18.4720  -22.0270   -3.1560 C.3     1  UNL1        0.0490
     33  C         17.3360  -21.9630   -5.4490 C.2     1  UNL1       -0.0290
     34  C         18.5880  -21.3530   -6.0300 C.3     1  UNL1        0.0510
@<TRIPOS>BOND
     1    20    21    1
     2    20    19    1
     3    21    17    1
     4    19    16    1
     5    17    15    1
     6    16    15    2
     7    16    18    1
     8    15    14    1
     9    18    12    2
    10    14    13    2
    11    12    13    1
    12    12    10    1
    13     9     8    2
    14    10     8   am
    15    10    11    1
    16     8     3    1
    17    24    22    2
    18     3     2    1
    19     3     4    2
    20     2     1    2
    21     4     5    1
    22     1    22    1
    23     1     6    1
    24    22    23    2
    25    22    25    1
    26     5     6    2
    27     6     7    1
    28    26    25    1
    29    25    27    1
    30    27    28    2
    31    27    33    1
    32    34    33    1
    33    28    29    1
    34    33    31    2
    35    29    30    2
    36    31    30    1
    37    31    32    1
