@<TRIPOS>MOLECULE
4973_out_ligand_01.pdbqt
 32 35 0 0 0
SMALL
GASTEIGER

@<TRIPOS>ATOM
      1  N         22.9310  -22.4000   -9.7400 N.am    1  UNL1       -0.3240
      2  C         21.9810  -23.2700   -9.2460 C.2     1  UNL1        0.2230
      3  O         21.7960  -24.4250   -9.6080 O.2     1  UNL1       -0.2730
      4  H         23.1310  -21.5620   -9.1940 H       1  UNL1        0.1690
      5  C         23.7750  -22.5990  -10.8310 C.ar    1  UNL1        0.0870
      6  C         23.7100  -22.2060  -12.2070 C.ar    1  UNL1        0.0280
      7  C         22.8450  -21.4640  -13.0390 C.2     1  UNL1        0.0170
      8  C         24.8660  -22.7140  -12.7970 C.ar    1  UNL1        0.0890
      9  C         23.1590  -21.2950  -14.3980 C.2     1  UNL1        0.0010
     10  C         24.3210  -21.8400  -14.9400 C.2     1  UNL1        0.0030
     11  C         25.2060  -22.5660  -14.1420 C.2     1  UNL1        0.0380
     12  O         25.6290  -23.3670  -11.8830 O.2     1  UNL1       -0.3020
     13  C         24.9760  -23.2840  -10.6880 C.ar    1  UNL1        0.1710
     14  C         25.5730  -23.8880   -9.5190 C.2     1  UNL1        0.2750
     15  N         26.9380  -23.9320   -9.5100 N.am    1  UNL1       -0.3640
     16  H         27.4720  -23.5800  -10.2940 H       1  UNL1        0.1590
     17  H         27.4110  -24.3620   -8.7280 H       1  UNL1        0.1590
     18  O         24.9250  -24.3410   -8.5780 O.2     1  UNL1       -0.2660
     19  C         21.2090  -22.6540   -8.0900 C.3     1  UNL1        0.1170
     20  C         19.7020  -22.9680   -8.1540 C.3     1  UNL1        0.0600
     21  C         18.9350  -22.3390   -9.3210 C.2     1  UNL1       -0.0490
     22  C         19.5610  -21.7260  -10.4180 C.2     1  UNL1        0.0080
     23  C         18.8050  -21.1640  -11.4500 C.2     1  UNL1        0.0010
     24  C         17.4140  -21.1990  -11.4000 C.2     1  UNL1        0.0000
     25  C         16.7750  -21.7930  -10.3170 C.2     1  UNL1        0.0010
     26  C         17.5290  -22.3570   -9.2860 C.2     1  UNL1        0.0080
     27  C         19.0690  -22.6320   -6.8030 C.2     1  UNL1       -0.0490
     28  C         19.3930  -21.4240   -6.1630 C.2     1  UNL1        0.0080
     29  C         18.8060  -21.0860   -4.9410 C.2     1  UNL1        0.0010
     30  C         17.8900  -21.9490   -4.3440 C.2     1  UNL1        0.0000
     31  C         17.5570  -23.1500   -4.9680 C.2     1  UNL1        0.0010
     32  C         18.1400  -23.4880   -6.1900 C.2     1  UNL1        0.0080
@<TRIPOS>BOND
     1    10     9    2
     2    10    11    1
     3     9     7    1
     4    11     8    2
     5     7     6    2
     6     8     6   ar
     7     8    12   ar
     8     6     5   ar
     9    12    13   ar
    10    23    24    2
    11    23    22    1
    12    24    25    1
    13     5    13   ar
    14     5     1    1
    15    13    14    1
    16    22    21    2
    17    25    26    2
    18    16    15    1
    19     1     2   am
    20     1     4    1
    21     3     2    2
    22    14    15   am
    23    14    18    2
    24    15    17    1
    25    21    26    1
    26    21    20    1
    27     2    19    1
    28    20    19    1
    29    20    27    1
    30    27    32    2
    31    27    28    1
    32    32    31    1
    33    28    29    2
    34    31    30    2
    35    29    30    1
