@<TRIPOS>MOLECULE
49732_out_ligand_01.pdbqt
 32 34 0 0 0
SMALL
GASTEIGER

@<TRIPOS>ATOM
      1  C         19.6500  -22.9400   -9.8000 C.2     1  UNL1        0.0330
      2  C         18.9630  -22.1760  -10.7480 C.2     1  UNL1        0.0170
      3  C         17.5740  -22.0400  -10.6620 C.2     1  UNL1        0.0090
      4  C         16.8450  -22.6580   -9.6320 C.2     1  UNL1       -0.0390
      5  C         15.3510  -22.4810   -9.6140 C.3     1  UNL1        0.0500
      6  C         17.5460  -23.4460   -8.6980 C.2     1  UNL1        0.0860
      7  C         18.9390  -23.5910   -8.7880 C.2     1  UNL1        0.0420
      8  C         21.1290  -23.1100   -9.8590 C.2     1  UNL1        0.2560
      9  N         21.7700  -22.2930  -10.7730 N.am    1  UNL1       -0.3230
     10  H         21.2050  -21.5970  -11.2420 H       1  UNL1        0.1690
     11  O         21.6500  -23.9120   -9.0960 O.2     1  UNL1       -0.2670
     12  C         23.1490  -22.2560  -11.0660 C.2     1  UNL1        0.0350
     13  C         24.0920  -21.5620  -10.3070 C.2     1  UNL1        0.0290
     14  C         25.4430  -21.5800  -10.6640 C.2     1  UNL1        0.0030
     15  C         25.8690  -22.2950  -11.7840 C.2     1  UNL1        0.0150
     16  C         24.9380  -22.9970  -12.5520 C.2     1  UNL1        0.0110
     17  C         23.5820  -22.9740  -12.1880 C.2     1  UNL1        0.0440
     18  C         25.3310  -23.7820  -13.7610 C.2     1  UNL1        0.1550
     19  C         25.5320  -23.0620  -15.0680 C.3     1  UNL1        0.0960
     20  O         25.4830  -24.9990  -13.6740 O.2     1  UNL1       -0.2930
     21  S         16.7170  -24.3080   -7.3700 S.O2    1  UNL1        0.2630
     22  O         15.5750  -24.9980   -7.9290 O.2     1  UNL1       -0.2000
     23  O         17.6980  -25.0310   -6.5900 O.2     1  UNL1       -0.2000
     24  N         16.0980  -23.0410   -6.4300 N.pl3   1  UNL1       -0.2810
     25  H         15.1500  -23.2640   -6.1250 H       1  UNL1        0.1790
     26  C         16.9620  -22.4540   -5.4650 C.2     1  UNL1        0.0430
     27  C         16.7070  -22.6560   -4.1110 C.2     1  UNL1        0.0300
     28  C         17.5320  -22.0630   -3.1550 C.2     1  UNL1        0.0030
     29  C         18.6010  -21.2600   -3.5570 C.2     1  UNL1        0.0070
     30  C         18.8480  -21.0360   -4.9180 C.2     1  UNL1       -0.0600
     31  C         20.0080  -20.1860   -5.3480 C.3     1  UNL1        0.0480
     32  C         18.0270  -21.6490   -5.8710 C.2     1  UNL1        0.0370
@<TRIPOS>BOND
     1    19    18    1
     2    18    20    2
     3    18    16    1
     4    16    17    1
     5    16    15    2
     6    17    12    2
     7    15    14    1
     8    10     9    1
     9    12     9    1
    10    12    13    1
    11     9     8   am
    12     2     3    1
    13     2     1    2
    14    14    13    2
    15     3     4    2
    16     8     1    1
    17     8    11    2
    18     1     7    1
    19     4     5    1
    20     4     6    1
    21     7     6    2
    22     6    21    1
    23    22    21    2
    24    21    23    2
    25    21    24    1
    26    24    25    1
    27    24    26    1
    28    32    26    2
    29    32    30    1
    30    26    27    1
    31    31    30    1
    32    30    29    2
    33    27    28    2
    34    29    28    1
