@<TRIPOS>MOLECULE
49751_out_ligand_01.pdbqt
 31 33 0 0 0
SMALL
GASTEIGER

@<TRIPOS>ATOM
      1  C         16.7580  -20.8840  -11.0240 C.3     1  UNL1        0.0500
      2  C         18.1360  -21.4680  -10.8690 C.2     1  UNL1       -0.0390
      3  C         19.1700  -20.9410  -11.6650 C.2     1  UNL1        0.0090
      4  C         20.4760  -21.4280  -11.5720 C.2     1  UNL1        0.0170
      5  C         20.7780  -22.4430  -10.6610 C.2     1  UNL1        0.0330
      6  C         19.7670  -22.9830   -9.8620 C.2     1  UNL1        0.0420
      7  C         18.4510  -22.5020   -9.9650 C.2     1  UNL1        0.0860
      8  S         17.2320  -23.2400   -8.8780 S.O2    1  UNL1        0.2630
      9  O         17.8990  -24.2090   -8.0340 O.2     1  UNL1       -0.2000
     10  O         16.0990  -23.6420   -9.6850 O.2     1  UNL1       -0.2000
     11  N         16.7830  -21.9630   -7.8740 N.pl3   1  UNL1       -0.2800
     12  H         16.2060  -21.2690   -8.3420 H       1  UNL1        0.1790
     13  C         16.6260  -22.1750   -6.4710 C.2     1  UNL1        0.0490
     14  C         15.3890  -22.6200   -5.9970 C.2     1  UNL1        0.0310
     15  C         15.1670  -22.7680   -4.6320 C.2     1  UNL1        0.0030
     16  C         16.1830  -22.4670   -3.7320 C.2     1  UNL1        0.0070
     17  C         17.4370  -22.0230   -4.1820 C.2     1  UNL1       -0.0540
     18  C         18.4850  -21.6850   -3.1540 C.3     1  UNL1        0.0490
     19  C         17.6820  -21.9040   -5.5730 C.2     1  UNL1       -0.0290
     20  C         19.0220  -21.4180   -6.0610 C.3     1  UNL1        0.0510
     21  C         22.1570  -22.9940  -10.5370 C.2     1  UNL1        0.2560
     22  O         22.4100  -23.7080   -9.5750 O.2     1  UNL1       -0.2670
     23  N         23.0270  -22.6010  -11.5360 N.am    1  UNL1       -0.3230
     24  H         22.6890  -21.9070  -12.1920 H       1  UNL1        0.1690
     25  C         24.3740  -22.9910  -11.7000 C.2     1  UNL1        0.0360
     26  C         25.3650  -22.7950  -10.7360 C.2     1  UNL1        0.0290
     27  C         26.6780  -23.2220  -10.9670 C.2     1  UNL1        0.0040
     28  C         27.0100  -23.8490  -12.1650 C.2     1  UNL1        0.0190
     29  C         26.0270  -24.0460  -13.1280 C.2     1  UNL1        0.0130
     30 BR         26.4670  -24.9000  -14.7580 Br      1  UNL1       -0.0510
     31  C         24.7150  -23.6230  -12.9030 C.2     1  UNL1        0.0480
@<TRIPOS>BOND
     1    30    29    1
     2    29    31    1
     3    29    28    2
     4    31    25    2
     5    24    23    1
     6    28    27    1
     7    25    23    1
     8    25    26    1
     9     3     4    1
    10     3     2    2
    11     4     5    2
    12    23    21   am
    13     1     2    1
    14    27    26    2
    15     2     7    1
    16     5    21    1
    17     5     6    1
    18    21    22    2
    19     7     6    2
    20     7     8    1
    21    10     8    2
    22     8     9    2
    23     8    11    1
    24    12    11    1
    25    11    13    1
    26    13    14    2
    27    13    19    1
    28    20    19    1
    29    14    15    1
    30    19    17    2
    31    15    16    2
    32    17    16    1
    33    17    18    1
