@<TRIPOS>MOLECULE
49758_out_ligand_01.pdbqt
 29 31 0 0 0
SMALL
GASTEIGER

@<TRIPOS>ATOM
      1  N         23.1810  -23.3240  -11.2000 N.pl3   1  UNL1       -0.1800
      2  H         22.2510  -22.9700  -11.4740 H       1  UNL1        0.1460
      3  C         24.2180  -22.9680  -12.1290 C.2     1  UNL1        0.0380
      4  C         25.4660  -23.5830  -12.0050 C.2     1  UNL1        0.0250
      5  C         26.5210  -23.1980  -12.8350 C.2     1  UNL1        0.0020
      6  C         26.3360  -22.1950  -13.7860 C.2     1  UNL1        0.0010
      7  C         25.0950  -21.5680  -13.9100 C.2     1  UNL1        0.0190
      8  C         24.0350  -21.9450  -13.0750 C.2     1  UNL1        0.0540
      9  C         22.7070  -21.2960  -13.2050 C.2     1  UNL1        0.2530
     10  N         21.8530  -21.4400  -12.1310 N.am    1  UNL1       -0.3570
     11  H         22.0770  -22.1450  -11.4410 H       1  UNL1        0.1620
     12  O         22.4170  -20.7180  -14.2480 O.2     1  UNL1       -0.2680
     13  C         20.4670  -21.0260  -12.2260 C.3     1  UNL1        0.1230
     14  C         19.5890  -21.7730  -11.2220 C.3     1  UNL1        0.0190
     15  C         18.1240  -21.3400  -11.2620 C.3     1  UNL1       -0.0030
     16  C         17.2710  -21.9930  -10.1850 C.3     1  UNL1        0.0050
     17  S         23.4470  -22.8740   -9.5810 S.O2    1  UNL1        0.2450
     18  O         24.4260  -23.7650   -8.9920 O.2     1  UNL1       -0.2060
     19  O         23.6300  -21.4390   -9.5660 O.2     1  UNL1       -0.2060
     20  C         21.8640  -23.2000   -8.8450 C.2     1  UNL1        0.0750
     21  C         21.1880  -24.3740   -9.1740 C.2     1  UNL1        0.0260
     22  C         19.9470  -24.6360   -8.5950 C.2     1  UNL1        0.0140
     23  C         19.3700  -23.7280   -7.6910 C.2     1  UNL1       -0.0260
     24  C         18.1240  -23.9810   -7.0980 C.2     1  UNL1        0.0120
     25  C         20.0570  -22.5310   -7.3700 C.2     1  UNL1       -0.0250
     26  C         17.5610  -23.0700   -6.2030 C.2     1  UNL1        0.0010
     27  C         18.2360  -21.8940   -5.8890 C.2     1  UNL1        0.0010
     28  C         19.4770  -21.6250   -6.4690 C.2     1  UNL1        0.0120
     29  C         21.3050  -22.2740   -7.9590 C.2     1  UNL1        0.0370
@<TRIPOS>BOND
     1    12     9    2
     2     7     6    2
     3     7     8    1
     4     6     5    1
     5     9     8    1
     6     9    10   am
     7     8     3    2
     8     5     4    2
     9    13    10    1
    10    13    14    1
    11    10    11    1
    12     3     4    1
    13     3     1    1
    14     2     1    1
    15    15    14    1
    16    15    16    1
    17     1    17    1
    18    17    19    2
    19    17    18    2
    20    17    20    1
    21    21    20    2
    22    21    22    1
    23    20    29    1
    24    22    23    2
    25    29    25    2
    26    23    25    1
    27    23    24    1
    28    25    28    1
    29    24    26    2
    30    28    27    2
    31    26    27    1
