@<TRIPOS>MOLECULE
49777_out_ligand_01.pdbqt
 31 33 0 0 0
SMALL
GASTEIGER

@<TRIPOS>ATOM
      1  C         17.6020  -23.0610   -9.0660 C.2     1  UNL1        0.0860
      2  C         18.9990  -22.9810   -9.1970 C.2     1  UNL1        0.0420
      3  C         19.5680  -22.2610  -10.2500 C.2     1  UNL1        0.0330
      4  C         18.7440  -21.6250  -11.1810 C.2     1  UNL1        0.0170
      5  C         17.3550  -21.6950  -11.0450 C.2     1  UNL1        0.0090
      6  C         16.7590  -22.4130   -9.9920 C.2     1  UNL1       -0.0390
      7  C         15.2580  -22.4260   -9.9080 C.3     1  UNL1        0.0500
      8  S         16.9700  -23.9760   -7.6600 S.O2    1  UNL1        0.2630
      9  O         18.0930  -24.5420   -6.9430 O.2     1  UNL1       -0.2000
     10  O         15.9040  -24.8360   -8.1300 O.2     1  UNL1       -0.2000
     11  N         16.3300  -22.7720   -6.6700 N.pl3   1  UNL1       -0.2800
     12  H         15.3150  -22.7970   -6.6210 H       1  UNL1        0.1790
     13  C         17.0610  -22.2950   -5.5420 C.2     1  UNL1        0.0480
     14  C         18.1640  -21.4560   -5.7330 C.2     1  UNL1        0.0300
     15  C         18.9140  -21.0130   -4.6430 C.2     1  UNL1        0.0020
     16  C         18.5580  -21.3960   -3.3550 C.2     1  UNL1        0.0010
     17  C         17.4450  -22.2140   -3.1540 C.2     1  UNL1        0.0090
     18  C         16.6780  -22.6650   -4.2410 C.2     1  UNL1       -0.0350
     19  C         15.4950  -23.5510   -3.9710 C.3     1  UNL1        0.0500
     20  C         21.0510  -22.2170  -10.3650 C.2     1  UNL1        0.2560
     21  O         21.7110  -22.1310   -9.3370 O.2     1  UNL1       -0.2670
     22  N         21.5320  -22.2470  -11.6610 N.am    1  UNL1       -0.3230
     23  H         20.8470  -22.1830  -12.4030 H       1  UNL1        0.1690
     24  C         22.8850  -22.2570  -12.0690 C.2     1  UNL1        0.0380
     25  C         23.9040  -22.9180  -11.3800 C.2     1  UNL1        0.0530
     26  C         25.2160  -22.8820  -11.8590 C.2     1  UNL1        0.0370
     27 CL         26.4630  -23.7040  -11.0010 Cl      1  UNL1       -0.0840
     28  C         25.5300  -22.1920  -13.0270 C.2     1  UNL1        0.0480
     29  C         24.5170  -21.5370  -13.7140 C.2     1  UNL1        0.0370
     30 CL         24.8830  -20.6830  -15.1630 Cl      1  UNL1       -0.0840
     31  C         23.2020  -21.5670  -13.2460 C.2     1  UNL1        0.0530
@<TRIPOS>BOND
     1    30    29    1
     2    29    31    1
     3    29    28    2
     4    31    24    2
     5    28    26    1
     6    23    22    1
     7    24    22    1
     8    24    25    1
     9    26    25    2
    10    26    27    1
    11    22    20   am
    12     4     5    2
    13     4     3    1
    14     5     6    1
    15    20     3    1
    16    20    21    2
    17     3     2    2
    18     6     7    1
    19     6     1    2
    20     2     1    1
    21     1     8    1
    22    10     8    2
    23     8     9    2
    24     8    11    1
    25    11    12    1
    26    11    13    1
    27    14    13    2
    28    14    15    1
    29    13    18    1
    30    15    16    2
    31    18    19    1
    32    18    17    2
    33    16    17    1
