@<TRIPOS>MOLECULE
49776_out_ligand_01.pdbqt
 27 29 0 0 0
SMALL
GASTEIGER

@<TRIPOS>ATOM
      1  C         20.0860  -23.3560   -9.2790 C.2     1  UNL1        0.2800
      2  O         20.0810  -24.5240   -8.9040 O.2     1  UNL1       -0.2650
      3  N         19.3120  -22.3420   -8.7420 N.am    1  UNL1       -0.3210
      4  H         19.4590  -21.4350   -9.1720 H       1  UNL1        0.1690
      5  C         18.3710  -22.4150   -7.7010 C.2     1  UNL1        0.0350
      6  C         17.0210  -22.5200   -8.0690 C.2     1  UNL1        0.0310
      7  C         16.0170  -22.5940   -7.1000 C.2     1  UNL1        0.0270
      8  C         16.3660  -22.5610   -5.7490 C.2     1  UNL1        0.0740
      9  C         17.7050  -22.4740   -5.3660 C.2     1  UNL1        0.0270
     10  C         18.7030  -22.3960   -6.3430 C.2     1  UNL1        0.0310
     11  S         15.1110  -22.6580   -4.5010 S.O2    1  UNL1        0.2390
     12  O         14.8050  -24.0480   -4.2690 O.2     1  UNL1       -0.2060
     13  O         14.0950  -21.6730   -4.7950 O.2     1  UNL1       -0.2060
     14  N         15.9300  -22.0680   -3.1530 N.3     1  UNL1       -0.2250
     15  H         16.8310  -21.6930   -3.4520 H       1  UNL1        0.1360
     16  H         16.0290  -22.7540   -2.4070 H       1  UNL1        0.1360
     17  C         20.9390  -22.8890  -10.3620 C.ar    1  UNL1        0.1500
     18  C         20.6860  -22.0480  -11.4390 C.ar    1  UNL1       -0.0090
     19  C         21.9120  -21.9570  -12.1680 C.ar    1  UNL1        0.0070
     20  C         19.3950  -21.3840  -11.7560 C.3     1  UNL1        0.0520
     21  C         22.3450  -21.2970  -13.3320 C.2     1  UNL1        0.0150
     22  C         22.8260  -22.7480  -11.4860 C.ar    1  UNL1        0.0870
     23  C         23.6760  -21.4590  -13.7500 C.2     1  UNL1        0.0070
     24  C         24.5780  -22.2550  -13.0280 C.2     1  UNL1       -0.0590
     25  C         25.9850  -22.4320  -13.5220 C.3     1  UNL1        0.0480
     26  C         24.1520  -22.9310  -11.8730 C.2     1  UNL1        0.0440
     27  O         22.2440  -23.3140  -10.3970 O.2     1  UNL1       -0.3040
@<TRIPOS>BOND
     1    23    21    1
     2    23    24    2
     3    25    24    1
     4    21    19    2
     5    24    26    1
     6    19    22   ar
     7    19    18   ar
     8    26    22    2
     9    20    18    1
    10    22    27   ar
    11    18    17   ar
    12    27    17   ar
    13    17     1    1
    14     1     2    2
    15     1     3   am
    16     4     3    1
    17     3     5    1
    18     6     5    2
    19     6     7    1
    20     5    10    1
    21     7     8    2
    22    10     9    2
    23     8     9    1
    24     8    11    1
    25    13    11    2
    26    11    12    2
    27    11    14    1
    28    15    14    1
    29    14    16    1
