@<TRIPOS>MOLECULE
49795_out_ligand_01.pdbqt
 32 34 0 0 0
SMALL
GASTEIGER

@<TRIPOS>ATOM
      1  C         19.7970  -22.9870   -9.8750 C.2     1  UNL1        0.0330
      2  C         19.1500  -22.1780  -10.8130 C.2     1  UNL1        0.0170
      3  C         17.7630  -22.0100  -10.7540 C.2     1  UNL1        0.0090
      4  C         16.9940  -22.6420   -9.7620 C.2     1  UNL1       -0.0390
      5  C         15.5100  -22.4030   -9.7520 C.3     1  UNL1        0.0500
      6  C         17.6610  -23.4320   -8.8030 C.2     1  UNL1        0.0810
      7  C         19.0550  -23.5960   -8.8570 C.2     1  UNL1        0.0420
      8  S         16.7830  -24.2360   -7.4640 S.O2    1  UNL1        0.2460
      9  O         15.6760  -24.9690   -8.0390 O.2     1  UNL1       -0.2060
     10  O         17.7610  -24.8810   -6.6170 O.2     1  UNL1       -0.2060
     11  N         16.1090  -22.8750   -6.6810 N.pl3   1  UNL1       -0.1810
     12  H         15.1800  -23.1400   -6.3560 H       1  UNL1        0.1460
     13  C         16.9110  -22.3460   -5.6090 C.2     1  UNL1        0.0290
     14  C         18.0190  -21.5590   -5.9410 C.2     1  UNL1        0.0310
     15  C         18.8510  -21.0320   -4.9460 C.2     1  UNL1       -0.0600
     16  C         20.0560  -20.2210   -5.3180 C.3     1  UNL1        0.0480
     17  C         18.5760  -21.3290   -3.6090 C.2     1  UNL1        0.0070
     18  C         17.4750  -22.1210   -3.2730 C.2     1  UNL1        0.0090
     19  C         16.6270  -22.6390   -4.2650 C.2     1  UNL1       -0.0400
     20  C         15.4590  -23.4880   -3.8490 C.3     1  UNL1        0.0500
     21  C         21.2740  -23.1960   -9.9050 C.2     1  UNL1        0.2560
     22  N         21.9390  -22.5140  -10.9080 N.am    1  UNL1       -0.3230
     23  H         21.3720  -22.0170  -11.5820 H       1  UNL1        0.1690
     24  O         21.7620  -23.9640   -9.0870 O.2     1  UNL1       -0.2670
     25  C         23.3290  -22.4930  -11.1560 C.2     1  UNL1        0.0370
     26  C         24.0710  -21.4830  -10.5320 C.2     1  UNL1        0.0290
     27  C         25.4500  -21.3960  -10.7200 C.2     1  UNL1        0.0050
     28  C         26.1070  -22.3200  -11.5340 C.2     1  UNL1        0.0370
     29  C         25.3820  -23.3330  -12.1600 C.2     1  UNL1        0.0700
     30  C         23.9960  -23.4140  -11.9660 C.2     1  UNL1        0.0660
     31  O         25.9020  -24.2980  -12.9800 O.2     1  UNL1       -0.3560
     32  C         25.4880  -24.2840  -14.3410 C.3     1  UNL1        0.2100
@<TRIPOS>BOND
     1    32    31    1
     2    31    29    1
     3    29    30    1
     4    29    28    2
     5    30    25    2
     6    23    22    1
     7    28    27    1
     8    25    22    1
     9    25    26    1
    10    22    21   am
    11     2     3    1
    12     2     1    2
    13     3     4    2
    14    27    26    2
    15    21     1    1
    16    21    24    2
    17     1     7    1
    18     4     5    1
    19     4     6    1
    20     7     6    2
    21     6     8    1
    22     9     8    2
    23     8    11    1
    24     8    10    2
    25    11    12    1
    26    11    13    1
    27    14    13    2
    28    14    15    1
    29    13    19    1
    30    16    15    1
    31    15    17    2
    32    19    20    1
    33    19    18    2
    34    17    18    1
