@<TRIPOS>MOLECULE
49859_out_ligand_01.pdbqt
 35 39 0 0 0
SMALL
GASTEIGER

@<TRIPOS>ATOM
      1  C         22.1720  -22.2650  -11.6870 C.2     1  UNL1        0.0350
      2  C         23.3530  -23.0120  -11.6900 C.2     1  UNL1        0.0310
      3  C         24.2600  -22.9040  -12.7510 C.2     1  UNL1        0.0270
      4  C         23.9860  -22.0360  -13.8090 C.2     1  UNL1        0.0800
      5  C         22.8060  -21.2930  -13.8280 C.2     1  UNL1        0.0270
      6  C         21.9050  -21.4090  -12.7660 C.2     1  UNL1        0.0310
      7  N         21.2120  -22.3150  -10.6610 N.am    1  UNL1       -0.3210
      8  C         21.4130  -22.3010   -9.2920 C.2     1  UNL1        0.2800
      9  O         22.5000  -22.2280   -8.7320 O.2     1  UNL1       -0.2650
     10  H         20.2370  -22.3710  -10.9410 H       1  UNL1        0.1690
     11  C         20.1690  -22.3760   -8.5470 C.2     1  UNL1        0.1440
     12  C         19.9130  -22.2630   -7.1940 C.2     1  UNL1        0.0580
     13  C         18.5090  -22.4190   -7.0160 C.2     1  UNL1        0.0120
     14  C         17.9970  -22.6170   -8.2920 C.2     1  UNL1        0.0870
     15  C         17.6050  -22.4140   -5.9180 C.2     1  UNL1       -0.0130
     16  C         16.6500  -22.8160   -8.5760 C.2     1  UNL1        0.0390
     17  O         18.9930  -22.5930   -9.2190 O.2     1  UNL1       -0.3040
     18  C         15.7690  -22.8090   -7.4880 C.2     1  UNL1        0.0150
     19  C         16.2220  -22.6120   -6.1720 C.2     1  UNL1       -0.0250
     20  C         15.3320  -22.6070   -5.0880 C.2     1  UNL1        0.0120
     21  C         15.7940  -22.4110   -3.7830 C.2     1  UNL1        0.0010
     22  C         17.1520  -22.2170   -3.5400 C.2     1  UNL1        0.0010
     23  C         18.0600  -22.2170   -4.5990 C.2     1  UNL1        0.0130
     24  S         25.1380  -21.9050  -15.1510 S.O2    1  UNL1        0.2630
     25  O         25.8820  -23.1460  -15.2050 O.2     1  UNL1       -0.2000
     26  O         24.4460  -21.4010  -16.3170 O.2     1  UNL1       -0.2000
     27  N         26.2250  -20.7340  -14.5930 N.pl3   1  UNL1       -0.2810
     28  H         27.0300  -21.1750  -14.1480 H       1  UNL1        0.1790
     29  C         26.4670  -19.6050  -15.4190 C.2     1  UNL1        0.0420
     30  C         26.3380  -18.3230  -14.8850 C.2     1  UNL1        0.0310
     31  C         26.5370  -17.2070  -15.7010 C.2     1  UNL1        0.0210
     32  C         26.8550  -17.3830  -17.0470 C.2     1  UNL1        0.0110
     33 BR         27.1210  -15.8730  -18.1530 Br      1  UNL1       -0.0510
     34  C         26.9760  -18.6650  -17.5840 C.2     1  UNL1        0.0210
     35  C         26.7790  -19.7800  -16.7670 C.2     1  UNL1        0.0310
@<TRIPOS>BOND
     1    33    32    1
     2    34    32    2
     3    34    35    1
     4    32    31    1
     5    35    29    2
     6    26    24    2
     7    31    30    2
     8    29    30    1
     9    29    27    1
    10    25    24    2
    11    24    27    1
    12    24     4    1
    13    27    28    1
    14     5     4    2
    15     5     6    1
    16     4     3    1
    17     6     1    2
    18     3     2    2
    19     2     1    1
    20     1     7    1
    21    10     7    1
    22     7     8   am
    23     8     9    2
    24     8    11    1
    25    17    11    1
    26    17    14    1
    27    16    14    1
    28    16    18    2
    29    11    12    2
    30    14    13    2
    31    18    19    1
    32    12    13    1
    33    13    15    1
    34    19    15    2
    35    19    20    1
    36    15    23    1
    37    20    21    2
    38    23    22    2
    39    21    22    1
