@<TRIPOS>MOLECULE
49857_out_ligand_01.pdbqt
 38 42 0 0 0
SMALL
GASTEIGER

@<TRIPOS>ATOM
      1  C         21.0330  -22.9200   -8.7650 C.2     1  UNL1        0.0350
      2  C         20.2170  -24.0530   -8.7430 C.2     1  UNL1        0.0310
      3  C         19.2180  -24.1910   -7.7730 C.2     1  UNL1        0.0270
      4  C         19.0250  -23.1840   -6.8260 C.2     1  UNL1        0.0800
      5  C         19.8430  -22.0540   -6.8230 C.2     1  UNL1        0.0270
      6  C         20.8400  -21.9250   -7.7960 C.2     1  UNL1        0.0310
      7  N         22.0600  -22.7080   -9.7030 N.am    1  UNL1       -0.3210
      8  C         23.3560  -23.1920   -9.6840 C.2     1  UNL1        0.2800
      9  O         23.8320  -23.9200   -8.8200 O.2     1  UNL1       -0.2650
     10  H         21.8460  -22.1110  -10.4950 H       1  UNL1        0.1690
     11  C         24.1350  -22.7410  -10.8230 C.2     1  UNL1        0.1440
     12  C         24.1260  -23.1450  -12.1430 C.2     1  UNL1        0.0580
     13  C         25.1000  -22.3680  -12.8300 C.2     1  UNL1        0.0120
     14  C         25.6420  -21.5250  -11.8660 C.2     1  UNL1        0.0870
     15  C         25.5910  -22.2750  -14.1610 C.2     1  UNL1       -0.0130
     16  C         26.6410  -20.5880  -12.1140 C.2     1  UNL1        0.0390
     17  O         25.0630  -21.7460  -10.6540 O.2     1  UNL1       -0.3040
     18  C         27.1200  -20.5110  -13.4260 C.2     1  UNL1        0.0150
     19  C         26.6140  -21.3330  -14.4480 C.2     1  UNL1       -0.0250
     20  C         27.1010  -21.2500  -15.7620 C.2     1  UNL1        0.0120
     21  C         26.5870  -22.0710  -16.7690 C.2     1  UNL1        0.0010
     22  C         25.5830  -22.9930  -16.4810 C.2     1  UNL1        0.0010
     23  C         25.0800  -23.0980  -15.1840 C.2     1  UNL1        0.0130
     24  S         17.7600  -23.3580   -5.5890 S.O2    1  UNL1        0.2630
     25  O         17.5530  -24.7690   -5.3450 O.2     1  UNL1       -0.2000
     26  O         18.0840  -22.4500   -4.5080 O.2     1  UNL1       -0.2000
     27  N         16.3960  -22.7120   -6.3450 N.pl3   1  UNL1       -0.2810
     28  H         16.0970  -21.8370   -5.9190 H       1  UNL1        0.1790
     29  C         16.2140  -22.8860   -7.7450 C.2     1  UNL1        0.0430
     30  C         15.4780  -23.9570   -8.2490 C.2     1  UNL1        0.0300
     31  C         15.3420  -24.1230   -9.6270 C.2     1  UNL1        0.0030
     32  C         15.9450  -23.2220  -10.5030 C.2     1  UNL1        0.0160
     33  C         16.6900  -22.1380  -10.0100 C.2     1  UNL1        0.0500
     34  C         16.8080  -21.9720   -8.6200 C.2     1  UNL1        0.0460
     35  C         17.3250  -21.1520  -10.9570 C.3     1  UNL1        0.4170
     36  F         18.6530  -20.9840  -10.7100 F       1  UNL1       -0.1660
     37  F         17.2320  -21.5290  -12.2630 F       1  UNL1       -0.1660
     38  F         16.7710  -19.9130  -10.8870 F       1  UNL1       -0.1660
@<TRIPOS>BOND
     1    21    22    1
     2    21    20    2
     3    22    23    2
     4    20    19    1
     5    23    15    1
     6    19    15    1
     7    19    18    2
     8    15    13    2
     9    18    16    1
    10    13    12    1
    11    13    14    1
    12    37    35    1
    13    12    11    2
    14    16    14    2
    15    14    17    1
    16    35    38    1
    17    35    36    1
    18    35    33    1
    19    11    17    1
    20    11     8    1
    21    32    33    2
    22    32    31    1
    23    10     7    1
    24    33    34    1
    25     7     8   am
    26     7     1    1
    27     8     9    2
    28    31    30    2
    29     1     2    2
    30     1     6    1
    31     2     3    1
    32    34    29    2
    33    30    29    1
    34     6     5    2
    35     3     4    2
    36    29    27    1
    37     4     5    1
    38     4    24    1
    39    27    28    1
    40    27    24    1
    41    24    25    2
    42    24    26    2
