@<TRIPOS>MOLECULE
49850_out_ligand_01.pdbqt
 31 33 0 0 0
SMALL
GASTEIGER

@<TRIPOS>ATOM
      1  C         18.5050  -22.4950   -9.9490 C.2     1  UNL1        0.1020
      2  C         19.8280  -22.9740   -9.8810 C.2     1  UNL1        0.0440
      3  C         20.8280  -22.4280  -10.6960 C.2     1  UNL1        0.0340
      4  C         20.5140  -21.3730  -11.5550 C.2     1  UNL1        0.0190
      5  C         19.2020  -20.8950  -11.6170 C.2     1  UNL1        0.0260
      6  C         18.1900  -21.4500  -10.8200 C.2     1  UNL1        0.0570
      7 CL         16.6170  -20.7800  -11.0410 Cl      1  UNL1       -0.0830
      8  S         17.3240  -23.2380   -8.8530 S.O2    1  UNL1        0.2650
      9  O         17.9470  -24.2460   -8.0290 O.2     1  UNL1       -0.2000
     10  O         16.1690  -23.5930   -9.6560 O.2     1  UNL1       -0.2000
     11  N         16.8070  -21.9360   -7.9100 N.pl3   1  UNL1       -0.2800
     12  H         16.1160  -21.3690   -8.4020 H       1  UNL1        0.1790
     13  C         16.6300  -22.1180   -6.5110 C.2     1  UNL1        0.0490
     14  C         15.3670  -22.5410   -6.0850 C.2     1  UNL1        0.0310
     15  C         15.1080  -22.7210   -4.7320 C.2     1  UNL1        0.0030
     16  C         16.1100  -22.4730   -3.7980 C.2     1  UNL1        0.0070
     17  C         17.3860  -22.0500   -4.2070 C.2     1  UNL1       -0.0540
     18  C         18.4330  -21.7920   -3.1540 C.3     1  UNL1        0.0490
     19  C         17.6650  -21.8920   -5.5850 C.2     1  UNL1       -0.0290
     20  C         19.0370  -21.4440   -6.0250 C.3     1  UNL1        0.0510
     21  C         22.2120  -22.9720  -10.5900 C.2     1  UNL1        0.2560
     22  O         22.4650  -23.7160   -9.6520 O.2     1  UNL1       -0.2670
     23  N         23.0690  -22.6000  -11.6100 N.am    1  UNL1       -0.3230
     24  H         22.6710  -22.0850  -12.3850 H       1  UNL1        0.1690
     25  C         24.4340  -22.9320  -11.7420 C.2     1  UNL1        0.0360
     26  C         25.4130  -22.6030  -10.8010 C.2     1  UNL1        0.0290
     27  C         26.7490  -22.9640  -11.0060 C.2     1  UNL1        0.0040
     28  C         27.1210  -23.6560  -12.1570 C.2     1  UNL1        0.0190
     29  C         26.1510  -23.9830  -13.0980 C.2     1  UNL1        0.0130
     30 BR         26.6440  -24.9210  -14.6640 Br      1  UNL1       -0.0510
     31  C         24.8150  -23.6260  -12.8990 C.2     1  UNL1        0.0480
@<TRIPOS>BOND
     1    30    29    1
     2    29    31    1
     3    29    28    2
     4    31    25    2
     5    24    23    1
     6    28    27    1
     7    25    23    1
     8    25    26    1
     9     5     4    2
    10     5     6    1
    11    23    21   am
    12     4     3    1
    13     7     6    1
    14    27    26    2
    15     6     1    2
    16     3    21    1
    17     3     2    2
    18    21    22    2
    19     1     2    1
    20     1     8    1
    21    10     8    2
    22     8     9    2
    23     8    11    1
    24    12    11    1
    25    11    13    1
    26    13    14    2
    27    13    19    1
    28    14    15    1
    29    20    19    1
    30    19    17    2
    31    15    16    2
    32    17    16    1
    33    17    18    1
