@<TRIPOS>MOLECULE
49866_out_ligand_01.pdbqt
 38 41 0 0 0
SMALL
GASTEIGER

@<TRIPOS>ATOM
      1  C         19.0400  -21.5830  -10.9790 C.2     1  UNL1        0.0330
      2  C         17.7860  -21.3870  -11.5590 C.2     1  UNL1        0.0170
      3  C         16.6540  -21.9640  -10.9780 C.2     1  UNL1        0.0090
      4  C         16.7440  -22.7310   -9.8000 C.2     1  UNL1       -0.0390
      5  C         15.4780  -23.3380   -9.2630 C.3     1  UNL1        0.0500
      6  C         18.0110  -22.8900   -9.2040 C.2     1  UNL1        0.0860
      7  C         19.1510  -22.3290   -9.8040 C.2     1  UNL1        0.0420
      8  C         20.2710  -20.9840  -11.5600 C.2     1  UNL1        0.2560
      9  N         21.2730  -21.9000  -11.8150 N.am    1  UNL1       -0.3160
     10  H         21.1320  -22.8530  -11.4930 H       1  UNL1        0.1690
     11  O         20.2870  -19.7690  -11.7150 O.2     1  UNL1       -0.2670
     12  C         22.5200  -21.6610  -12.3760 C.ar    1  UNL1        0.0940
     13  C         23.7550  -21.7780  -11.7420 C.ar    1  UNL1        0.0800
     14  C         24.8250  -21.4710  -12.6680 C.ar    1  UNL1       -0.0220
     15  C         24.3510  -21.1270  -13.9180 C.ar    1  UNL1        0.0200
     16  C         26.3050  -21.4600  -12.3990 C.3     1  UNL1        0.0710
     17  S         22.6630  -21.1920  -14.0060 S.2     1  UNL1       -0.0730
     18  C         25.2040  -20.7670  -15.1010 C.3     1  UNL1        0.3180
     19  N         26.5850  -20.3990  -14.7130 N.3     1  UNL1        0.0890
     20  C         27.1190  -21.3440  -13.7090 C.3     1  UNL1        0.2770
     21  C         26.6610  -19.0120  -14.2550 C.3     1  UNL1        0.3100
     22  C         23.9560  -22.1470  -10.3350 C.2     1  UNL1        0.2960
     23  O         24.5150  -23.1810   -9.9820 O.2     1  UNL1       -0.2590
     24  O         23.4550  -21.2270   -9.4500 O.3     1  UNL1       -0.3220
     25  C         22.6260  -21.7930   -8.4320 C.3     1  UNL1        0.2130
     26  S         18.3080  -23.8320   -7.7090 S.O2    1  UNL1        0.2630
     27  O         17.3070  -24.8670   -7.5710 O.2     1  UNL1       -0.2000
     28  O         19.7150  -24.1760   -7.7120 O.2     1  UNL1       -0.2000
     29  N         18.1130  -22.6860   -6.4870 N.pl3   1  UNL1       -0.2800
     30  H         18.5870  -21.8090   -6.6880 H       1  UNL1        0.1790
     31  C         16.9330  -22.6600   -5.6890 C.2     1  UNL1        0.0490
     32  C         15.7810  -22.0370   -6.1840 C.2     1  UNL1        0.0370
     33  C         14.6110  -21.9690   -5.4180 C.2     1  UNL1       -0.0600
     34  C         13.3760  -21.3200   -5.9680 C.3     1  UNL1        0.0480
     35  C         14.5960  -22.5630   -4.1550 C.2     1  UNL1        0.0070
     36  C         15.7330  -23.2080   -3.6640 C.2     1  UNL1        0.0090
     37  C         16.9110  -23.2740   -4.4260 C.2     1  UNL1       -0.0350
     38  C         18.1030  -23.9900   -3.8530 C.3     1  UNL1        0.0500
@<TRIPOS>BOND
     1    18    19    1
     2    18    15    1
     3    19    21    1
     4    19    20    1
     5    17    15   ar
     6    17    12   ar
     7    15    14   ar
     8    20    16    1
     9    14    16    1
    10    14    13   ar
    11    12     9    1
    12    12    13   ar
    13     9     8   am
    14     9    10    1
    15    13    22    1
    16    11     8    2
    17     8     1    1
    18     2     1    2
    19     2     3    1
    20     1     7    1
    21     3     4    2
    22    22    23    2
    23    22    24    1
    24     7     6    2
    25     4     5    1
    26     4     6    1
    27    24    25    1
    28     6    26    1
    29    28    26    2
    30    26    27    2
    31    26    29    1
    32    30    29    1
    33    29    31    1
    34    32    31    2
    35    32    33    1
    36    34    33    1
    37    31    37    1
    38    33    35    2
    39    37    38    1
    40    37    36    2
    41    35    36    1
