@<TRIPOS>MOLECULE
49869_out_ligand_01.pdbqt
 32 35 0 0 0
SMALL
GASTEIGER

@<TRIPOS>ATOM
      1  C         23.6570  -21.8850  -13.1170 C.2     1  UNL1        0.0540
      2  C         24.7440  -21.7240  -13.9910 C.2     1  UNL1        0.0190
      3  C         25.8730  -22.5350  -13.8580 C.2     1  UNL1        0.0010
      4  C         25.9180  -23.5160  -12.8690 C.2     1  UNL1        0.0020
      5  C         24.8340  -23.6930  -12.0080 C.2     1  UNL1        0.0250
      6  C         23.6990  -22.8870  -12.1300 C.2     1  UNL1        0.0380
      7  N         22.6460  -23.0440  -11.1650 N.pl3   1  UNL1       -0.1800
      8  H         21.8060  -22.4920  -11.3920 H       1  UNL1        0.1460
      9  S         23.0600  -22.7000   -9.5520 S.O2    1  UNL1        0.2450
     10  O         24.1010  -23.6130   -9.1240 O.2     1  UNL1       -0.2060
     11  O         23.2350  -21.2660   -9.4540 O.2     1  UNL1       -0.2060
     12  C         21.5670  -23.1000   -8.6760 C.2     1  UNL1        0.0750
     13  C         20.9820  -24.3520   -8.8590 C.2     1  UNL1        0.0260
     14  C         19.8140  -24.6700   -8.1610 C.2     1  UNL1        0.0140
     15  C         19.2220  -23.7400   -7.2890 C.2     1  UNL1       -0.0260
     16  C         18.0510  -24.0500   -6.5780 C.2     1  UNL1        0.0120
     17  C         19.8130  -22.4640   -7.1230 C.2     1  UNL1       -0.0250
     18  C         17.4680  -23.1160   -5.7190 C.2     1  UNL1        0.0010
     19  C         18.0440  -21.8570   -5.5640 C.2     1  UNL1        0.0010
     20  C         19.2110  -21.5350   -6.2590 C.2     1  UNL1        0.0120
     21  C         20.9890  -22.1540   -7.8230 C.2     1  UNL1        0.0370
     22  C         22.4440  -21.0390  -13.2630 C.2     1  UNL1        0.2530
     23  O         22.3180  -20.3220  -14.2510 O.2     1  UNL1       -0.2680
     24  N         21.5070  -21.1410  -12.2580 N.am    1  UNL1       -0.3530
     25  H         21.5830  -21.8970  -11.5860 H       1  UNL1        0.1630
     26  C         20.2680  -20.3990  -12.2850 C.3     1  UNL1        0.1620
     27  C         19.1660  -21.1520  -11.6010 C.2     1  UNL1       -0.0230
     28  C         19.3170  -22.4940  -11.2400 C.2     1  UNL1        0.0120
     29  C         18.2650  -23.1670  -10.6210 C.2     1  UNL1        0.0200
     30  C         17.0930  -22.4720  -10.3820 C.2     1  UNL1        0.1160
     31  N         16.9090  -21.1740  -10.7080 N.2     1  UNL1       -0.2730
     32  C         17.9450  -20.5490  -11.3110 C.2     1  UNL1        0.1240
@<TRIPOS>BOND
     1    23    22    2
     2     2     3    1
     3     2     1    2
     4     3     4    2
     5    22     1    1
     6    22    24   am
     7     1     6    1
     8     4     5    1
     9    26    24    1
    10    26    27    1
    11    24    25    1
    12     6     5    2
    13     6     7    1
    14    27    32    2
    15    27    28    1
    16     8     7    1
    17    32    31    1
    18    28    29    2
    19     7     9    1
    20    31    30    2
    21    29    30    1
    22     9    11    2
    23     9    10    2
    24     9    12    1
    25    13    12    2
    26    13    14    1
    27    12    21    1
    28    14    15    2
    29    21    17    2
    30    15    17    1
    31    15    16    1
    32    17    20    1
    33    16    18    2
    34    20    19    2
    35    18    19    1
