@<TRIPOS>MOLECULE
49874_out_ligand_01.pdbqt
 37 40 0 0 0
SMALL
GASTEIGER

@<TRIPOS>ATOM
      1  C         18.3990  -22.3600  -10.1090 C.2     1  UNL1        0.0810
      2  C         19.6690  -22.9190   -9.8950 C.2     1  UNL1        0.0420
      3  C         20.7610  -22.4890  -10.6530 C.2     1  UNL1        0.0330
      4  C         20.5820  -21.5130  -11.6390 C.2     1  UNL1        0.0170
      5  C         19.3190  -20.9530  -11.8460 C.2     1  UNL1        0.0090
      6  C         18.2070  -21.3680  -11.0920 C.2     1  UNL1       -0.0390
      7  C         16.8840  -20.7020  -11.3530 C.3     1  UNL1        0.0500
      8  C         22.0900  -23.1180  -10.4120 C.2     1  UNL1        0.2560
      9  O         22.1710  -23.9860   -9.5520 O.2     1  UNL1       -0.2670
     10  N         23.1110  -22.6220  -11.1950 N.am    1  UNL1       -0.3200
     11  H         22.9060  -21.8210  -11.7800 H       1  UNL1        0.1690
     12  C         24.4510  -23.0620  -11.2610 C.2     1  UNL1        0.0690
     13  C         25.2550  -23.2630  -10.1380 C.2     1  UNL1        0.0320
     14  C         26.5820  -23.6900  -10.2810 C.2     1  UNL1        0.0020
     15  C         27.1210  -23.9140  -11.5470 C.2     1  UNL1        0.0030
     16  C         26.3320  -23.7220  -12.6780 C.2     1  UNL1        0.0390
     17  C         25.0010  -23.3210  -12.5310 C.2     1  UNL1        0.1020
     18  O         24.2730  -23.1210  -13.6840 O.2     1  UNL1       -0.3090
     19  C         24.6720  -22.1130  -14.5380 C.2     1  UNL1        0.0760
     20  C         25.1730  -20.8700  -14.1420 C.2     1  UNL1        0.0370
     21  C         25.5670  -19.9380  -15.1040 C.2     1  UNL1        0.0030
     22  C         25.4520  -20.2400  -16.4610 C.2     1  UNL1        0.0000
     23  C         24.9400  -21.4720  -16.8600 C.2     1  UNL1        0.0030
     24  C         24.5460  -22.4060  -15.8990 C.2     1  UNL1        0.0370
     25  S         17.0520  -22.9460   -9.0870 S.O2    1  UNL1        0.2460
     26  O         16.2430  -23.8330   -9.8920 O.2     1  UNL1       -0.2060
     27  O         16.4780  -21.8020   -8.4100 O.2     1  UNL1       -0.2060
     28  N         17.9180  -23.8280   -7.9090 N.pl3   1  UNL1       -0.1810
     29  H         18.8570  -23.9990   -8.2770 H       1  UNL1        0.1460
     30  C         17.9720  -23.1910   -6.6240 C.2     1  UNL1        0.0230
     31  C         18.7190  -22.0230   -6.4620 C.2     1  UNL1        0.0310
     32  C         18.7520  -21.3760   -5.2200 C.2     1  UNL1       -0.0600
     33  C         18.0370  -21.9230   -4.1440 C.2     1  UNL1        0.0130
     34  C         19.5830  -20.1390   -5.0290 C.3     1  UNL1        0.0480
     35  C         17.2670  -23.0820   -4.3080 C.2     1  UNL1       -0.0600
     36  C         16.5080  -23.6680   -3.1530 C.3     1  UNL1        0.0480
     37  C         17.2440  -23.7160   -5.5560 C.2     1  UNL1        0.0310
@<TRIPOS>BOND
     1    23    22    2
     2    23    24    1
     3    22    21    1
     4    24    19    2
     5    21    20    2
     6    19    20    1
     7    19    18    1
     8    18    17    1
     9    16    17    1
    10    16    15    2
    11    17    12    2
    12     5     4    2
    13     5     6    1
    14    11    10    1
    15     4     3    1
    16    15    14    1
    17     7     6    1
    18    12    10    1
    19    12    13    1
    20    10     8   am
    21     6     1    2
    22     3     8    1
    23     3     2    2
    24     8     9    2
    25    14    13    2
    26     1     2    1
    27     1    25    1
    28    26    25    2
    29    25    27    2
    30    25    28    1
    31    29    28    1
    32    28    30    1
    33    30    31    2
    34    30    37    1
    35    31    32    1
    36    37    35    2
    37    32    34    1
    38    32    33    2
    39    35    33    1
    40    35    36    1
