@<TRIPOS>MOLECULE
49871_out_ligand_01.pdbqt
 40 43 0 0 0
SMALL
GASTEIGER

@<TRIPOS>ATOM
      1  C         21.8520  -23.5290   -9.7780 C.2     1  UNL1        0.2560
      2  O         21.8750  -24.5560   -9.1110 O.2     1  UNL1       -0.2670
      3  N         22.9400  -22.8450  -10.2800 N.am    1  UNL1       -0.3220
      4  H         22.7610  -21.9450  -10.7280 H       1  UNL1        0.1690
      5  C         20.5300  -22.9040  -10.0730 C.2     1  UNL1        0.0330
      6  C         19.4140  -23.3220   -9.3430 C.2     1  UNL1        0.0420
      7  C         18.1460  -22.7740   -9.6050 C.2     1  UNL1        0.0860
      8  C         17.9830  -21.7920  -10.6030 C.2     1  UNL1       -0.0390
      9  C         19.1200  -21.3840  -11.3230 C.2     1  UNL1        0.0090
     10  C         16.6740  -21.1240  -10.9200 C.3     1  UNL1        0.0500
     11  C         20.3770  -21.9390  -11.0710 C.2     1  UNL1        0.0170
     12  S         16.7860  -23.3580   -8.5960 S.O2    1  UNL1        0.2630
     13  O         17.2770  -24.4200   -7.7440 O.2     1  UNL1       -0.2000
     14  O         15.6490  -23.5920   -9.4610 O.2     1  UNL1       -0.2000
     15  N         16.4610  -22.0440   -7.5850 N.pl3   1  UNL1       -0.2800
     16  H         15.8070  -21.3880   -7.9990 H       1  UNL1        0.1790
     17  C         16.4410  -22.2150   -6.1670 C.2     1  UNL1        0.0480
     18  C         15.2490  -22.5600   -5.5200 C.2     1  UNL1        0.0300
     19  C         15.2060  -22.6880   -4.1310 C.2     1  UNL1        0.0020
     20  C         16.3600  -22.4910   -3.3790 C.2     1  UNL1        0.0010
     21  C         17.5580  -22.1750   -4.0180 C.2     1  UNL1        0.0090
     22  C         17.6170  -22.0390   -5.4160 C.2     1  UNL1       -0.0350
     23  C         18.9340  -21.6840   -6.0500 C.3     1  UNL1        0.0500
     24  C         24.3070  -23.2170  -10.2580 C.2     1  UNL1        0.0500
     25  C         24.8630  -23.9520   -9.2040 C.2     1  UNL1        0.0300
     26  C         26.2060  -24.3400   -9.2300 C.2     1  UNL1        0.0020
     27  C         27.0130  -24.0100  -10.3130 C.2     1  UNL1        0.0010
     28  C         26.4840  -23.2750  -11.3730 C.2     1  UNL1        0.0190
     29  C         25.1410  -22.8560  -11.3470 C.2     1  UNL1        0.0580
     30  C         24.5970  -22.0430  -12.4800 C.2     1  UNL1        0.2540
     31  O         23.3940  -21.8010  -12.5440 O.2     1  UNL1       -0.2680
     32  N         25.5060  -21.5450  -13.3880 N.am    1  UNL1       -0.3530
     33  H         26.4940  -21.5860  -13.1760 H       1  UNL1        0.1630
     34  C         25.1080  -20.6660  -14.4680 C.3     1  UNL1        0.1620
     35  C         24.8430  -21.4270  -15.7350 C.2     1  UNL1       -0.0230
     36  C         24.7050  -22.8180  -15.7450 C.2     1  UNL1        0.0120
     37  C         24.4690  -23.4820  -16.9450 C.2     1  UNL1        0.0200
     38  C         24.3930  -22.7320  -18.1060 C.2     1  UNL1        0.1160
     39  N         24.5360  -21.3900  -18.1420 N.2     1  UNL1       -0.2730
     40  C         24.7620  -20.7720  -16.9610 C.2     1  UNL1        0.1240
@<TRIPOS>BOND
     1    39    38    2
     2    39    40    1
     3    38    37    1
     4    40    35    2
     5    37    36    2
     6    36    35    1
     7    35    34    1
     8    34    32    1
     9    32    33    1
    10    32    30   am
    11    31    30    2
    12    30    29    1
    13    28    29    1
    14    28    27    2
    15    29    24    2
    16     9    11    1
    17     9     8    2
    18    11     5    2
    19    10     8    1
    20     4     3    1
    21     8     7    1
    22    27    26    1
    23     3    24    1
    24     3     1   am
    25    24    25    1
    26     5     1    1
    27     5     6    1
    28     1     2    2
    29     7     6    2
    30     7    12    1
    31    14    12    2
    32    26    25    2
    33    12    13    2
    34    12    15    1
    35    16    15    1
    36    15    17    1
    37    17    18    2
    38    17    22    1
    39    23    22    1
    40    18    19    1
    41    22    21    2
    42    19    20    2
    43    21    20    1
