@<TRIPOS>MOLECULE
49876_out_ligand_01.pdbqt
 41 44 0 0 0
SMALL
GASTEIGER

@<TRIPOS>ATOM
      1  C         21.9180  -23.4220   -9.9520 C.2     1  UNL1        0.2560
      2  O         21.8510  -24.4020   -9.2190 O.2     1  UNL1       -0.2670
      3  N         23.0590  -22.8980  -10.5210 N.am    1  UNL1       -0.3220
      4  H         22.9420  -22.1480  -11.2030 H       1  UNL1        0.1690
      5  C         20.6500  -22.7300  -10.3310 C.2     1  UNL1        0.0330
      6  C         20.6020  -21.7880  -11.3610 C.2     1  UNL1        0.0170
      7  C         19.3950  -21.1640  -11.6830 C.2     1  UNL1        0.0090
      8  C         18.2070  -21.4640  -10.9910 C.2     1  UNL1       -0.0390
      9  C         16.9570  -20.7350  -11.3990 C.3     1  UNL1        0.0500
     10  C         18.2670  -22.4020   -9.9430 C.2     1  UNL1        0.0860
     11  C         19.4870  -23.0200   -9.6110 C.2     1  UNL1        0.0420
     12  S         16.8510  -22.8600   -8.9530 S.O2    1  UNL1        0.2630
     13  O         15.9720  -23.7280   -9.7050 O.2     1  UNL1       -0.2000
     14  O         16.3300  -21.6440   -8.3600 O.2     1  UNL1       -0.2000
     15  N         17.5580  -23.7090   -7.6810 N.pl3   1  UNL1       -0.2800
     16  H         18.5170  -23.9910   -7.8770 H       1  UNL1        0.1790
     17  C         17.2140  -23.3930   -6.3380 C.2     1  UNL1        0.0490
     18  C         16.0670  -23.9670   -5.7850 C.2     1  UNL1        0.0310
     19  C         15.6990  -23.6720   -4.4770 C.2     1  UNL1        0.0030
     20  C         16.4750  -22.7990   -3.7200 C.2     1  UNL1        0.0070
     21  C         17.6220  -22.1980   -4.2650 C.2     1  UNL1       -0.0540
     22  C         18.4260  -21.2590   -3.4030 C.3     1  UNL1        0.0490
     23  C         17.9840  -22.4700   -5.6050 C.2     1  UNL1       -0.0290
     24  C         19.1970  -21.8070   -6.2080 C.3     1  UNL1        0.0510
     25  C         24.4080  -23.2720  -10.3010 C.2     1  UNL1        0.0500
     26  C         24.7910  -24.0880   -9.2300 C.2     1  UNL1        0.0300
     27  C         26.1360  -24.4090   -9.0180 C.2     1  UNL1        0.0020
     28  C         27.1210  -23.9130   -9.8650 C.2     1  UNL1        0.0010
     29  C         26.7630  -23.1020  -10.9410 C.2     1  UNL1        0.0190
     30  C         25.4110  -22.7900  -11.1780 C.2     1  UNL1        0.0580
     31  C         25.0450  -21.9390  -12.3540 C.2     1  UNL1        0.2540
     32  O         25.4970  -20.8010  -12.4650 O.2     1  UNL1       -0.2680
     33  N         24.1420  -22.4690  -13.2520 N.am    1  UNL1       -0.3530
     34  H         23.5850  -23.2650  -12.9690 H       1  UNL1        0.1630
     35  C         23.6270  -21.6500  -14.3260 C.3     1  UNL1        0.1620
     36  C         24.4610  -21.7860  -15.5610 C.2     1  UNL1       -0.0230
     37  C         25.1420  -20.6930  -16.1050 C.2     1  UNL1        0.0120
     38  C         25.9130  -20.8590  -17.2510 C.2     1  UNL1        0.0200
     39  C         25.9830  -22.1220  -17.8150 C.2     1  UNL1        0.1160
     40  N         25.3480  -23.2020  -17.3150 N.2     1  UNL1       -0.2730
     41  C         24.6010  -23.0100  -16.2040 C.2     1  UNL1        0.1240
@<TRIPOS>BOND
     1    39    40    2
     2    39    38    1
     3    40    41    1
     4    38    37    2
     5    41    36    2
     6    37    36    1
     7    36    35    1
     8    35    33    1
     9    33    34    1
    10    33    31   am
    11    32    31    2
    12    31    30    1
    13     7     6    1
    14     7     8    2
    15     9     8    1
    16     6     5    2
    17     4     3    1
    18    30    29    1
    19    30    25    2
    20     8    10    1
    21    29    28    2
    22     3    25    1
    23     3     1   am
    24     5     1    1
    25     5    11    1
    26    25    26    1
    27     1     2    2
    28    10    11    2
    29    10    12    1
    30    28    27    1
    31    13    12    2
    32    26    27    2
    33    12    14    2
    34    12    15    1
    35    16    15    1
    36    15    17    1
    37    17    18    2
    38    17    23    1
    39    24    23    1
    40    18    19    1
    41    23    21    2
    42    19    20    2
    43    21    20    1
    44    21    22    1
