@<TRIPOS>MOLECULE
49888_out_ligand_01.pdbqt
 35 38 0 0 0
SMALL
GASTEIGER

@<TRIPOS>ATOM
      1  C         19.3150  -21.4380  -11.0050 C.2     1  UNL1        0.0330
      2  C         18.0710  -21.1090  -11.5510 C.2     1  UNL1        0.0170
      3  C         16.8980  -21.6150  -10.9820 C.2     1  UNL1        0.0090
      4  C         16.9400  -22.4570   -9.8580 C.2     1  UNL1       -0.0390
      5  C         15.6390  -22.9750   -9.3080 C.3     1  UNL1        0.0500
      6  C         18.2010  -22.8020   -9.3290 C.2     1  UNL1        0.0810
      7  C         19.3790  -22.3010   -9.9050 C.2     1  UNL1        0.0420
      8  C         20.5890  -20.9170  -11.5800 C.2     1  UNL1        0.2560
      9  N         21.5170  -21.8940  -11.8830 N.am    1  UNL1       -0.3160
     10  H         21.2400  -22.8680  -11.7830 H       1  UNL1        0.1690
     11  O         20.6810  -19.7100  -11.7560 O.2     1  UNL1       -0.2670
     12  C         22.7930  -21.7170  -12.4010 C.ar    1  UNL1        0.0940
     13  C         23.9890  -21.8590  -11.6910 C.ar    1  UNL1        0.0800
     14  C         25.0890  -21.6010  -12.5580 C.ar    1  UNL1       -0.0260
     15  C         24.6920  -21.2720  -13.8240 C.ar    1  UNL1       -0.0080
     16  C         26.5710  -21.5810  -12.4500 C.3     1  UNL1        0.0410
     17  S         23.0400  -21.2640  -14.0370 S.2     1  UNL1       -0.0750
     18  C         25.8030  -20.9820  -14.7580 C.3     1  UNL1        0.0470
     19  C         27.0170  -21.5230  -13.9450 C.3     1  UNL1        0.0100
     20  C         24.0320  -22.2170  -10.2750 C.2     1  UNL1        0.2960
     21  O         24.5310  -23.2630   -9.8680 O.2     1  UNL1       -0.2590
     22  O         23.4600  -21.2760   -9.4700 O.3     1  UNL1       -0.3220
     23  C         22.7120  -21.8140   -8.3810 C.3     1  UNL1        0.2130
     24  S         18.3750  -23.8850   -7.9210 S.O2    1  UNL1        0.2460
     25  O         19.6300  -24.5970   -8.0180 O.2     1  UNL1       -0.2060
     26  O         17.1340  -24.6170   -7.7610 O.2     1  UNL1       -0.2060
     27  N         18.4580  -22.8010   -6.6210 N.pl3   1  UNL1       -0.1810
     28  H         18.8060  -21.8990   -6.9410 H       1  UNL1        0.1460
     29  C         17.3640  -22.7810   -5.7120 C.2     1  UNL1        0.0230
     30  C         17.5030  -23.3850   -4.4630 C.2     1  UNL1        0.0240
     31  C         16.4270  -23.3980   -3.5770 C.2     1  UNL1        0.0020
     32  C         15.2110  -22.8190   -3.9470 C.2     1  UNL1        0.0070
     33  C         15.0580  -22.2330   -5.2100 C.2     1  UNL1       -0.0600
     34  C         13.7550  -21.5980   -5.5990 C.3     1  UNL1        0.0480
     35  C         16.1490  -22.2080   -6.0870 C.2     1  UNL1        0.0310
@<TRIPOS>BOND
     1    18    19    1
     2    18    15    1
     3    17    15   ar
     4    17    12   ar
     5    19    16    1
     6    15    14   ar
     7    14    16    1
     8    14    13   ar
     9    12     9    1
    10    12    13   ar
    11     9    10    1
    12     9     8   am
    13    11     8    2
    14    13    20    1
    15     8     1    1
    16     2     1    2
    17     2     3    1
    18     1     7    1
    19     3     4    2
    20    20    21    2
    21    20    22    1
    22     7     6    2
    23     4     6    1
    24     4     5    1
    25    22    23    1
    26     6    24    1
    27    25    24    2
    28    24    26    2
    29    24    27    1
    30    28    27    1
    31    27    29    1
    32    35    29    2
    33    35    33    1
    34    29    30    1
    35    34    33    1
    36    33    32    2
    37    30    31    2
    38    32    31    1
