@<TRIPOS>MOLECULE
49898_out_ligand_01.pdbqt
 34 36 0 0 0
SMALL
GASTEIGER

@<TRIPOS>ATOM
      1  C         19.6960  -22.6970  -10.0640 C.2     1  UNL1        0.0330
      2  C         18.9850  -21.9560  -11.0110 C.2     1  UNL1        0.0170
      3  C         17.5980  -21.8320  -10.9000 C.2     1  UNL1        0.0090
      4  C         16.8890  -22.4510   -9.8530 C.2     1  UNL1       -0.0390
      5  C         15.3980  -22.2660   -9.8070 C.3     1  UNL1        0.0500
      6  C         17.6150  -23.2070   -8.9130 C.2     1  UNL1        0.0860
      7  C         19.0120  -23.3290   -9.0240 C.2     1  UNL1        0.0420
      8  C         21.1700  -22.8680  -10.1590 C.2     1  UNL1        0.2560
      9  N         21.8050  -21.9510  -10.9780 N.am    1  UNL1       -0.3230
     10  H         21.2390  -21.1940  -11.3380 H       1  UNL1        0.1690
     11  O         21.6870  -23.7600   -9.5010 O.2     1  UNL1       -0.2670
     12  C         23.1800  -21.8970  -11.2950 C.2     1  UNL1        0.0370
     13  C         24.1610  -21.4450  -10.4150 C.2     1  UNL1        0.0290
     14  C         25.5020  -21.4350  -10.8050 C.2     1  UNL1        0.0040
     15  C         25.8760  -21.8780  -12.0740 C.2     1  UNL1        0.0290
     16  C         24.9120  -22.3370  -12.9690 C.2     1  UNL1        0.0360
     17  C         23.5660  -22.3440  -12.5690 C.2     1  UNL1        0.0590
     18  N         25.2010  -22.8000  -14.2700 N.am    1  UNL1       -0.3270
     19  C         24.7690  -22.2620  -15.4710 C.2     1  UNL1        0.2180
     20  C         25.2840  -23.0410  -16.6560 C.3     1  UNL1        0.1170
     21  O         24.0740  -21.2660  -15.6290 O.2     1  UNL1       -0.2740
     22  H         25.7990  -23.6140  -14.3310 H       1  UNL1        0.1690
     23  S         16.8680  -24.0410   -7.5180 S.O2    1  UNL1        0.2630
     24  O         15.7170  -24.7550   -8.0320 O.2     1  UNL1       -0.2000
     25  O         17.8700  -24.7410   -6.7480 O.2     1  UNL1       -0.2000
     26  N         16.2480  -22.7570   -6.6130 N.pl3   1  UNL1       -0.2800
     27  H         15.2390  -22.8310   -6.5000 H       1  UNL1        0.1790
     28  C         17.0090  -22.2690   -5.5130 C.2     1  UNL1        0.0480
     29  C         18.1250  -21.4720   -5.7830 C.2     1  UNL1        0.0300
     30  C         18.9260  -21.0080   -4.7400 C.2     1  UNL1        0.0020
     31  C         18.6170  -21.3470   -3.4270 C.2     1  UNL1        0.0010
     32  C         17.5030  -22.1440   -3.1530 C.2     1  UNL1        0.0090
     33  C         16.6780  -22.6080   -4.1910 C.2     1  UNL1       -0.0350
     34  C         15.5040  -23.4830   -3.8570 C.3     1  UNL1        0.0500
@<TRIPOS>BOND
     1    20    19    1
     2    21    19    2
     3    19    18   am
     4    22    18    1
     5    18    16    1
     6    16    17    1
     7    16    15    2
     8    17    12    2
     9    15    14    1
    10    10     9    1
    11    12     9    1
    12    12    13    1
    13     2     3    1
    14     2     1    2
    15     9     8   am
    16     3     4    2
    17    14    13    2
    18     8     1    1
    19     8    11    2
    20     1     7    1
    21     4     5    1
    22     4     6    1
    23     7     6    2
    24     6    23    1
    25    24    23    2
    26    23    25    2
    27    23    26    1
    28    26    27    1
    29    26    28    1
    30    29    28    2
    31    29    30    1
    32    28    33    1
    33    30    31    2
    34    33    34    1
    35    33    32    2
    36    31    32    1
