@<TRIPOS>MOLECULE
49894_out_ligand_01.pdbqt
 41 44 0 0 0
SMALL
GASTEIGER

@<TRIPOS>ATOM
      1  C         21.9610  -23.4650   -9.8840 C.2     1  UNL1        0.2560
      2  O         21.8760  -24.4530   -9.1640 O.2     1  UNL1       -0.2670
      3  N         23.1190  -22.8920  -10.3700 N.am    1  UNL1       -0.3220
      4  H         23.0190  -22.1310  -11.0440 H       1  UNL1        0.1690
      5  C         20.6950  -22.8000  -10.3110 C.2     1  UNL1        0.0330
      6  C         19.5250  -23.0900   -9.6030 C.2     1  UNL1        0.0420
      7  C         18.3120  -22.4610   -9.9340 C.2     1  UNL1        0.0860
      8  C         18.2550  -21.5380  -10.9980 C.2     1  UNL1       -0.0390
      9  C         19.4410  -21.2680  -11.7050 C.2     1  UNL1        0.0090
     10  C         16.9930  -20.8570  -11.4450 C.3     1  UNL1        0.0500
     11  C         20.6500  -21.8800  -11.3620 C.2     1  UNL1        0.0170
     12  S         16.8750  -22.9120   -8.9670 S.O2    1  UNL1        0.2630
     13  O         16.2110  -21.6970   -8.5410 O.2     1  UNL1       -0.2000
     14  O         16.1360  -23.9200   -9.6960 O.2     1  UNL1       -0.2000
     15  N         17.5380  -23.5990   -7.5770 N.pl3   1  UNL1       -0.2800
     16  H         17.2530  -24.5670   -7.4550 H       1  UNL1        0.1790
     17  C         17.7990  -22.8100   -6.4150 C.2     1  UNL1        0.0490
     18  C         16.9810  -22.9460   -5.2790 C.2     1  UNL1       -0.0350
     19  C         17.2370  -22.1380   -4.1590 C.2     1  UNL1        0.0090
     20  C         15.8270  -23.9070   -5.2280 C.3     1  UNL1        0.0500
     21  C         18.2890  -21.2220   -4.1600 C.2     1  UNL1        0.0070
     22  C         19.1210  -21.1060   -5.2750 C.2     1  UNL1       -0.0600
     23  C         20.2490  -20.1170   -5.3050 C.3     1  UNL1        0.0480
     24  C         18.8790  -21.9180   -6.3900 C.2     1  UNL1        0.0370
     25  C         24.4600  -23.3110  -10.1740 C.2     1  UNL1        0.0500
     26  C         24.8470  -24.0750   -9.0660 C.2     1  UNL1        0.0300
     27  C         26.1650  -24.5150   -8.9180 C.2     1  UNL1        0.0020
     28  C         27.1190  -24.2070   -9.8800 C.2     1  UNL1        0.0010
     29  C         26.7610  -23.4360  -10.9850 C.2     1  UNL1        0.0190
     30  C         25.4450  -22.9610  -11.1310 C.2     1  UNL1        0.0580
     31  C         25.0950  -22.0960  -12.3060 C.2     1  UNL1        0.2540
     32  O         23.9960  -21.5470  -12.3670 O.2     1  UNL1       -0.2680
     33  N         26.0730  -21.9120  -13.2610 N.am    1  UNL1       -0.3530
     34  H         27.0270  -22.1620  -13.0430 H       1  UNL1        0.1630
     35  C         25.8770  -21.0360  -14.3980 C.3     1  UNL1        0.1620
     36  C         25.3010  -21.7810  -15.5650 C.2     1  UNL1       -0.0230
     37  C         25.1490  -23.1720  -15.5410 C.2     1  UNL1        0.0120
     38  C         24.5970  -23.8250  -16.6380 C.2     1  UNL1        0.0200
     39  C         24.2120  -23.0640  -17.7290 C.2     1  UNL1        0.1160
     40  N         24.3440  -21.7220  -17.7920 N.2     1  UNL1       -0.2730
     41  C         24.8860  -21.1130  -16.7120 C.2     1  UNL1        0.1240
@<TRIPOS>BOND
     1    40    39    2
     2    40    41    1
     3    39    38    1
     4    41    36    2
     5    38    37    2
     6    36    37    1
     7    36    35    1
     8    35    33    1
     9    33    34    1
    10    33    31   am
    11    32    31    2
    12    31    30    1
    13     9    11    1
    14     9     8    2
    15    10     8    1
    16    11     5    2
    17    30    29    1
    18    30    25    2
    19     4     3    1
    20     8     7    1
    21    29    28    2
    22     3    25    1
    23     3     1   am
    24     5     1    1
    25     5     6    1
    26    25    26    1
    27     7     6    2
    28     7    12    1
    29     1     2    2
    30    28    27    1
    31    14    12    2
    32    26    27    2
    33    12    13    2
    34    12    15    1
    35    15    16    1
    36    15    17    1
    37    17    24    2
    38    17    18    1
    39    24    22    1
    40    23    22    1
    41    18    20    1
    42    18    19    2
    43    22    21    2
    44    21    19    1
