@<TRIPOS>MOLECULE
49927_out_ligand_01.pdbqt
 36 39 0 0 0
SMALL
GASTEIGER

@<TRIPOS>ATOM
      1  C         22.6520  -22.0710  -10.8350 C.2     1  UNL1        0.0140
      2  C         21.5550  -21.5830  -11.5700 C.2     1  UNL1        0.0780
      3  C         21.6640  -21.2890  -12.9260 C.2     1  UNL1        0.0380
      4  C         22.8680  -21.5220  -13.5850 C.2     1  UNL1        0.0150
      5  C         23.9700  -22.0530  -12.9030 C.2     1  UNL1       -0.0250
      6  C         25.1690  -22.2920  -13.5940 C.2     1  UNL1        0.0120
      7  C         26.2770  -22.8320  -12.9440 C.2     1  UNL1        0.0010
      8  C         26.1980  -23.1410  -11.5940 C.2     1  UNL1        0.0010
      9  C         25.0140  -22.9020  -10.8920 C.2     1  UNL1        0.0130
     10  C         23.8740  -22.3460  -11.5160 C.2     1  UNL1       -0.0150
     11  C         22.4870  -22.3020   -9.3460 C.3     1  UNL1        0.3120
     12  N         22.1680  -23.7030   -9.0510 N.3     1  UNL1        0.0870
     13  H         22.2770  -24.2560   -9.9040 H       1  UNL1        0.3160
     14  C         20.7970  -23.8260   -8.5540 C.3     1  UNL1        0.2740
     15  C         20.3680  -22.5530   -7.8100 C.3     1  UNL1        0.0680
     16  C         19.1860  -22.8290   -6.9090 C.2     1  UNL1       -0.0560
     17  C         18.5520  -24.0850   -6.9310 C.2     1  UNL1        0.0090
     18  C         17.4260  -24.3200   -6.1400 C.2     1  UNL1        0.0250
     19  C         16.9290  -23.2940   -5.3300 C.2     1  UNL1        0.0740
     20  C         17.5620  -22.0460   -5.2810 C.2     1  UNL1        0.0250
     21  C         18.6850  -21.8150   -6.0770 C.2     1  UNL1        0.0090
     22  S         15.4890  -23.5860   -4.3360 S.O2    1  UNL1        0.2390
     23  O         14.3640  -23.8450   -5.2120 O.2     1  UNL1       -0.2060
     24  O         15.8570  -24.4700   -3.2530 O.2     1  UNL1       -0.2060
     25  N         15.2550  -22.0680   -3.6330 N.3     1  UNL1       -0.2250
     26  H         15.1820  -22.1810   -2.6160 H       1  UNL1        0.1360
     27  H         15.9770  -21.3960   -3.8890 H       1  UNL1        0.1360
     28  O         20.3760  -21.3390  -10.9120 O.2     1  UNL1       -0.3460
     29  C         19.2450  -21.4190  -11.7980 C.3     1  UNL1        0.2170
     30  C         18.0580  -21.9390  -11.0210 C.2     1  UNL1        0.0040
     31  C         18.0160  -23.2600  -10.5460 C.2     1  UNL1        0.0120
     32  C         16.9200  -23.7150   -9.8040 C.2     1  UNL1        0.0010
     33  C         15.8570  -22.8550   -9.5240 C.2     1  UNL1        0.0030
     34  C         15.8920  -21.5410   -9.9850 C.2     1  UNL1        0.0430
     35  C         16.9860  -21.0940  -10.7240 C.2     1  UNL1        0.1240
     36  F         16.9980  -19.8220  -11.1510 F       1  UNL1       -0.2050
@<TRIPOS>BOND
     1     6     7    1
     2     6     5    2
     3     4     3    2
     4     4     5    1
     5     7     8    2
     6     3     2    1
     7     5    10    1
     8    29    30    1
     9    29    28    1
    10     8     9    1
    11     2    28    1
    12     2     1    2
    13    10     9    2
    14    10     1    1
    15    36    35    1
    16    30    35    2
    17    30    31    1
    18     1    11    1
    19    35    34    1
    20    31    32    2
    21    34    33    2
    22    13    12    1
    23    32    33    1
    24    11    12    1
    25    12    14    1
    26    14    15    1
    27    15    16    1
    28    17    16    2
    29    17    18    1
    30    16    21    1
    31    18    19    2
    32    21    20    2
    33    19    20    1
    34    19    22    1
    35    23    22    2
    36    22    25    1
    37    22    24    2
    38    27    25    1
    39    25    26    1
