@<TRIPOS>MOLECULE
49979_out_ligand_01.pdbqt
 35 39 0 0 0
SMALL
GASTEIGER

@<TRIPOS>ATOM
      1  C         22.5350  -21.9870  -10.4820 C.2     1  UNL1        0.0350
      2  C         23.7710  -21.6800   -9.9060 C.2     1  UNL1        0.0310
      3  C         24.8970  -21.4720  -10.7100 C.2     1  UNL1        0.0270
      4  C         24.7860  -21.5830  -12.0970 C.2     1  UNL1        0.0800
      5  C         23.5570  -21.8750  -12.6890 C.2     1  UNL1        0.0270
      6  C         22.4360  -22.0790  -11.8780 C.2     1  UNL1        0.0310
      7  N         21.3560  -22.2090   -9.7450 N.am    1  UNL1       -0.3210
      8  C         20.9330  -23.3730   -9.1290 C.2     1  UNL1        0.2800
      9  O         21.5340  -24.4420   -9.1360 O.2     1  UNL1       -0.2650
     10  H         20.7210  -21.4240   -9.6410 H       1  UNL1        0.1690
     11  C         19.6590  -23.2120   -8.4510 C.2     1  UNL1        0.1440
     12  C         19.3570  -23.0370   -7.1160 C.2     1  UNL1        0.0580
     13  C         17.9410  -22.9350   -7.0130 C.2     1  UNL1        0.0120
     14  C         17.4690  -23.0570   -8.3140 C.2     1  UNL1        0.0870
     15  C         16.9960  -22.7530   -5.9670 C.2     1  UNL1       -0.0130
     16  C         16.1250  -23.0130   -8.6700 C.2     1  UNL1        0.0390
     17  O         18.5010  -23.2250   -9.1860 O.2     1  UNL1       -0.3040
     18  C         15.2040  -22.8330   -7.6310 C.2     1  UNL1        0.0150
     19  C         15.6150  -22.7030   -6.2950 C.2     1  UNL1       -0.0250
     20  C         14.6850  -22.5220   -5.2590 C.2     1  UNL1        0.0120
     21  C         15.1070  -22.3940   -3.9320 C.2     1  UNL1        0.0010
     22  C         16.4630  -22.4430   -3.6160 C.2     1  UNL1        0.0010
     23  C         17.4090  -22.6220   -4.6260 C.2     1  UNL1        0.0130
     24  S         26.2190  -21.3180  -13.1100 S.O2    1  UNL1        0.2630
     25  O         26.6710  -22.6150  -13.5650 O.2     1  UNL1       -0.2000
     26  O         27.1150  -20.4110  -12.4270 O.2     1  UNL1       -0.2000
     27  N         25.5720  -20.5440  -14.4710 N.pl3   1  UNL1       -0.2810
     28  H         24.6750  -20.1160  -14.2420 H       1  UNL1        0.1790
     29  C         25.6920  -21.1970  -15.7270 C.2     1  UNL1        0.0440
     30  C         26.8780  -21.0780  -16.4530 C.2     1  UNL1        0.0300
     31  C         27.0190  -21.7470  -17.6700 C.2     1  UNL1        0.0040
     32  C         25.9770  -22.5390  -18.1520 C.2     1  UNL1        0.0240
     33  C         24.8000  -22.6600  -17.4150 C.2     1  UNL1        0.0360
     34 CL         23.5190  -23.6430  -18.0130 Cl      1  UNL1       -0.0840
     35  C         24.6510  -21.9950  -16.1990 C.2     1  UNL1        0.0540
@<TRIPOS>BOND
     1    32    31    2
     2    32    33    1
     3    34    33    1
     4    31    30    1
     5    33    35    2
     6    30    29    2
     7    35    29    1
     8    29    27    1
     9    27    28    1
    10    27    24    1
    11    25    24    2
    12    24    26    2
    13    24     4    1
    14     5     4    2
    15     5     6    1
    16     4     3    1
    17     6     1    2
    18     3     2    2
    19     1     2    1
    20     1     7    1
    21     7    10    1
    22     7     8   am
    23    17    11    1
    24    17    14    1
    25     9     8    2
    26     8    11    1
    27    16    14    1
    28    16    18    2
    29    11    12    2
    30    14    13    2
    31    18    19    1
    32    12    13    1
    33    13    15    1
    34    19    15    2
    35    19    20    1
    36    15    23    1
    37    20    21    2
    38    23    22    2
    39    21    22    1
