@<TRIPOS>MOLECULE
49977_out_ligand_01.pdbqt
 38 42 0 0 0
SMALL
GASTEIGER

@<TRIPOS>ATOM
      1  C         24.6720  -22.5440  -12.0500 C.2     1  UNL1        0.0330
      2  C         25.7420  -23.4300  -11.8840 C.2     1  UNL1        0.0170
      3  C         26.5200  -23.8000  -12.9830 C.2     1  UNL1        0.0090
      4  C         26.2500  -23.2950  -14.2680 C.2     1  UNL1       -0.0390
      5  C         27.1210  -23.7500  -15.4070 C.3     1  UNL1        0.0500
      6  C         25.1530  -22.4240  -14.4270 C.2     1  UNL1        0.0810
      7  C         24.3650  -22.0600  -13.3240 C.2     1  UNL1        0.0420
      8  C         23.8260  -22.1240  -10.8990 C.2     1  UNL1        0.2560
      9  N         22.6710  -22.8670  -10.7310 N.am    1  UNL1       -0.3230
     10  H         22.5490  -23.6700  -11.3340 H       1  UNL1        0.1690
     11  O         24.2240  -21.2040  -10.1970 O.2     1  UNL1       -0.2670
     12  C         21.6690  -22.6860   -9.7540 C.2     1  UNL1        0.0350
     13  C         20.3010  -22.8280  -10.0060 C.2     1  UNL1        0.0440
     14  C         19.3610  -22.6330   -8.9680 C.ar    1  UNL1        0.0050
     15  C         17.9340  -22.7080   -8.9090 C.ar    1  UNL1        0.0030
     16  C         19.8190  -22.2980   -7.6940 C.ar    1  UNL1        0.0460
     17  C         16.9370  -23.0030   -9.8640 C.2     1  UNL1        0.0140
     18  C         17.5480  -22.4190   -7.6000 C.ar    1  UNL1        0.0460
     19  C         15.5920  -23.0030   -9.4840 C.2     1  UNL1        0.0010
     20  C         15.2300  -22.7170   -8.1730 C.2     1  UNL1        0.0020
     21  C         16.1970  -22.4220   -7.2080 C.2     1  UNL1        0.0300
     22  N         18.7040  -22.1660   -6.8870 N.ar    1  UNL1       -0.3460
     23  C         21.1860  -22.1570   -7.4170 C.2     1  UNL1        0.0330
     24  C         22.0940  -22.3560   -8.4640 C.2     1  UNL1        0.0320
     25  C         18.7420  -21.7980   -5.4790 C.3     1  UNL1        0.1250
     26  C         19.1380  -20.3450   -5.2760 C.3     1  UNL1        0.0270
     27  S         24.6990  -21.7510  -16.0180 S.O2    1  UNL1        0.2460
     28  O         24.3570  -22.8550  -16.8890 O.2     1  UNL1       -0.2060
     29  O         23.7680  -20.6600  -15.8240 O.2     1  UNL1       -0.2060
     30  N         26.1660  -21.1260  -16.5930 N.pl3   1  UNL1       -0.1810
     31  H         26.3530  -21.4850  -17.5290 H       1  UNL1        0.1460
     32  C         26.4210  -19.7440  -16.3740 C.2     1  UNL1        0.0220
     33  C         26.2070  -18.8230  -17.3970 C.2     1  UNL1        0.0250
     34  C         26.4120  -17.4620  -17.1600 C.2     1  UNL1        0.0080
     35  C         26.8340  -17.0160  -15.9020 C.2     1  UNL1       -0.0620
     36  C         27.0100  -15.5490  -15.6430 C.3     1  UNL1        0.0480
     37  C         27.0270  -17.9500  -14.8760 C.2     1  UNL1        0.0080
     38  C         26.8230  -19.3110  -15.1120 C.2     1  UNL1        0.0250
@<TRIPOS>BOND
     1    31    30    1
     2    33    34    1
     3    33    32    2
     4    34    35    2
     5    28    27    2
     6    30    32    1
     7    30    27    1
     8    32    38    1
     9    27    29    2
    10    27     6    1
    11    35    36    1
    12    35    37    1
    13     5     4    1
    14    38    37    2
    15     6     4    2
    16     6     7    1
    17     4     3    1
    18     7     1    2
    19     3     2    2
    20     1     2    1
    21     1     8    1
    22    10     9    1
    23     8     9   am
    24     8    11    2
    25     9    12    1
    26    13    12    2
    27    13    14    1
    28    17    19    1
    29    17    15    2
    30    12    24    1
    31    19    20    2
    32    14    15   ar
    33    14    16   ar
    34    15    18   ar
    35    24    23    2
    36    20    21    1
    37    16    23    1
    38    16    22   ar
    39    18    21    2
    40    18    22   ar
    41    22    25    1
    42    25    26    1
