@<TRIPOS>MOLECULE
49978_out_ligand_01.pdbqt
 36 39 0 0 0
SMALL
GASTEIGER

@<TRIPOS>ATOM
      1  C         18.9010  -22.3180  -10.1240 C.2     1  UNL1        0.0860
      2  C         20.2780  -22.5950  -10.2070 C.2     1  UNL1        0.0420
      3  C         21.0570  -22.0140  -11.2090 C.2     1  UNL1        0.0330
      4  C         20.4670  -21.1510  -12.1320 C.2     1  UNL1        0.0170
      5  C         19.1030  -20.8600  -12.0380 C.2     1  UNL1        0.0090
      6  C         18.2970  -21.4320  -11.0350 C.2     1  UNL1       -0.0390
      7  C         16.8400  -21.0660  -11.0110 C.3     1  UNL1        0.0500
      8  C         22.4920  -22.3870  -11.2880 C.2     1  UNL1        0.2520
      9  O         22.9760  -23.1080  -10.4250 O.2     1  UNL1       -0.2680
     10  N         23.1950  -21.8530  -12.3390 N.am    1  UNL1       -0.3440
     11  H         22.7660  -21.1850  -12.9620 H       1  UNL1        0.1630
     12  C         24.5880  -22.1930  -12.5950 C.3     1  UNL1        0.1510
     13  C         24.7060  -22.8770  -13.9550 C.2     1  UNL1       -0.0310
     14  C         25.3320  -24.1280  -14.1060 C.2     1  UNL1        0.0090
     15  C         25.4150  -24.7380  -15.3600 C.2     1  UNL1        0.0010
     16  C         24.8720  -24.1100  -16.4780 C.2     1  UNL1        0.0000
     17  C         24.2480  -22.8710  -16.3470 C.2     1  UNL1        0.0010
     18  C         24.1640  -22.2600  -15.0940 C.2     1  UNL1        0.0090
     19  C         25.4690  -20.9610  -12.3810 C.2     1  UNL1       -0.0310
     20  C         25.8980  -20.6610  -11.0720 C.2     1  UNL1        0.0090
     21  C         26.7120  -19.5580  -10.8130 C.2     1  UNL1        0.0010
     22  C         27.1210  -18.7350  -11.8570 C.2     1  UNL1        0.0000
     23  C         26.7190  -19.0190  -13.1600 C.2     1  UNL1        0.0010
     24  C         25.9040  -20.1240  -13.4210 C.2     1  UNL1        0.0090
     25  S         18.0250  -23.1610   -8.8090 S.O2    1  UNL1        0.2630
     26  O         16.8190  -23.7060   -9.3980 O.2     1  UNL1       -0.2000
     27  O         18.9300  -24.0090   -8.0680 O.2     1  UNL1       -0.2000
     28  N         17.5300  -21.8890   -7.8100 N.pl3   1  UNL1       -0.2810
     29  H         17.8110  -20.9810   -8.1760 H       1  UNL1        0.1790
     30  C         17.5580  -22.0680   -6.3980 C.2     1  UNL1        0.0430
     31  C         18.5150  -21.4230   -5.6170 C.2     1  UNL1        0.0300
     32  C         18.4960  -21.5750   -4.2310 C.2     1  UNL1        0.0030
     33  C         17.5220  -22.3700   -3.6260 C.2     1  UNL1        0.0070
     34  C         16.5660  -23.0340   -4.4040 C.2     1  UNL1       -0.0600
     35  C         15.4940  -23.8610   -3.7540 C.3     1  UNL1        0.0480
     36  C         16.5850  -22.8700   -5.7950 C.2     1  UNL1        0.0370
@<TRIPOS>BOND
     1    16    17    2
     2    16    15    1
     3    17    18    1
     4    15    14    2
     5    18    13    2
     6    14    13    1
     7    13    12    1
     8    24    23    1
     9    24    19    2
    10    23    22    2
    11    11    10    1
    12    12    19    1
    13    12    10    1
    14    19    20    1
    15    10     8   am
    16     4     5    2
    17     4     3    1
    18     5     6    1
    19    22    21    1
    20     8     3    1
    21     8     9    2
    22     3     2    2
    23    20    21    2
    24     6     7    1
    25     6     1    2
    26     2     1    1
    27     1    25    1
    28    26    25    2
    29    25    27    2
    30    25    28    1
    31    29    28    1
    32    28    30    1
    33    30    36    2
    34    30    31    1
    35    36    34    1
    36    31    32    2
    37    34    35    1
    38    34    33    2
    39    32    33    1
