@<TRIPOS>MOLECULE
49982_out_ligand_01.pdbqt
 34 38 0 0 0
SMALL
GASTEIGER

@<TRIPOS>ATOM
      1  C         20.1830  -22.3560  -11.0800 C.2     1  UNL1        0.0350
      2  C         20.1230  -23.3920  -10.1360 C.2     1  UNL1        0.0310
      3  C         18.9330  -23.6720   -9.4590 C.2     1  UNL1        0.0270
      4  C         17.7980  -22.9050   -9.7190 C.2     1  UNL1        0.0800
      5  C         17.8360  -21.8860  -10.6730 C.2     1  UNL1        0.0270
      6  C         19.0310  -21.6120  -11.3470 C.2     1  UNL1        0.0310
      7  S         16.2870  -23.2520   -8.8530 S.O2    1  UNL1        0.2630
      8  O         15.7740  -21.9950   -8.3480 O.2     1  UNL1       -0.2000
      9  O         15.4670  -24.1050   -9.6840 O.2     1  UNL1       -0.2000
     10  N         16.8260  -24.1040   -7.5040 N.pl3   1  UNL1       -0.2800
     11  H         17.6870  -24.6220   -7.6690 H       1  UNL1        0.1790
     12  C         16.5990  -23.5640   -6.2030 C.2     1  UNL1        0.0530
     13  C         15.4780  -23.9910   -5.4870 C.2     1  UNL1        0.0310
     14  C         15.2300  -23.4890   -4.2140 C.2     1  UNL1        0.0030
     15  C         16.0970  -22.5500   -3.6580 C.2     1  UNL1        0.0120
     16  C         17.2170  -22.0900   -4.3680 C.2     1  UNL1       -0.0240
     17  C         18.0810  -21.1370   -3.8010 C.2     1  UNL1        0.0120
     18  C         17.4770  -22.5890   -5.6670 C.2     1  UNL1        0.0010
     19  C         19.1900  -20.6680   -4.5020 C.2     1  UNL1        0.0010
     20  C         19.4510  -21.1390   -5.7820 C.2     1  UNL1        0.0010
     21  C         18.6010  -22.0850   -6.3600 C.2     1  UNL1        0.0140
     22  N         21.4240  -22.1390  -11.7070 N.am    1  UNL1       -0.3210
     23  C         22.6280  -21.7720  -11.1310 C.2     1  UNL1        0.2800
     24  O         22.8160  -21.5760   -9.9360 O.2     1  UNL1       -0.2650
     25  H         21.4620  -22.2700  -12.7120 H       1  UNL1        0.1690
     26  C         23.6940  -21.6400  -12.1090 C.2     1  UNL1        0.1440
     27  C         25.0680  -21.6630  -11.9610 C.2     1  UNL1        0.0570
     28  C         25.6260  -21.4880  -13.2520 C.2     1  UNL1        0.0010
     29  C         26.9260  -21.4170  -13.7850 C.2     1  UNL1        0.0140
     30  C         24.5460  -21.3680  -14.1180 C.2     1  UNL1        0.0860
     31  C         27.0770  -21.2300  -15.1660 C.2     1  UNL1        0.0010
     32  C         25.9640  -21.1130  -16.0030 C.2     1  UNL1        0.0030
     33  C         24.6640  -21.1810  -15.4920 C.2     1  UNL1        0.0380
     34  O         23.3750  -21.4600  -13.4310 O.2     1  UNL1       -0.3040
@<TRIPOS>BOND
     1    32    33    2
     2    32    31    1
     3    33    30    1
     4    31    29    2
     5    30    34    1
     6    30    28    2
     7    29    28    1
     8    34    26    1
     9    28    27    1
    10    25    22    1
    11    26    27    2
    12    26    23    1
    13    22    23   am
    14    22     1    1
    15     6     1    2
    16     6     5    1
    17    23    24    2
    18     1     2    1
    19     5     4    2
    20     2     3    2
    21     4     3    1
    22     4     7    1
    23     9     7    2
    24     7     8    2
    25     7    10    1
    26    11    10    1
    27    10    12    1
    28    21    20    2
    29    21    18    1
    30    12    18    2
    31    12    13    1
    32    20    19    1
    33    18    16    1
    34    13    14    2
    35    19    17    2
    36    16    17    1
    37    16    15    2
    38    14    15    1
