@<TRIPOS>MOLECULE
49983_out_ligand_01.pdbqt
 37 40 0 0 0
SMALL
GASTEIGER

@<TRIPOS>ATOM
      1  C         24.2730  -23.0650  -11.5400 C.2     1  UNL1        0.1020
      2  C         22.9260  -22.6740  -11.6170 C.2     1  UNL1        0.0440
      3  C         22.1380  -22.6280  -10.4620 C.2     1  UNL1        0.0340
      4  C         22.7000  -22.9650   -9.2260 C.2     1  UNL1        0.0190
      5  C         24.0380  -23.3610   -9.1550 C.2     1  UNL1        0.0260
      6  C         24.8320  -23.4170  -10.3090 C.2     1  UNL1        0.0570
      7 CL         26.4760  -23.8880  -10.0880 Cl      1  UNL1       -0.0830
      8  C         20.7240  -22.1720  -10.5780 C.2     1  UNL1        0.2560
      9  O         20.4990  -21.1430  -11.2020 O.2     1  UNL1       -0.2670
     10  N         19.8050  -22.9970   -9.9660 N.am    1  UNL1       -0.3200
     11  H         20.1400  -23.8750   -9.5880 H       1  UNL1        0.1690
     12  C         18.4150  -22.7960   -9.8200 C.2     1  UNL1        0.0690
     13  C         17.5860  -22.3510  -10.8510 C.2     1  UNL1        0.0320
     14  C         16.2110  -22.1890  -10.6370 C.2     1  UNL1        0.0020
     15  C         15.6500  -22.4730   -9.3930 C.2     1  UNL1        0.0030
     16  C         16.4620  -22.9110   -8.3510 C.2     1  UNL1        0.0390
     17  C         17.8380  -23.0490   -8.5600 C.2     1  UNL1        0.1020
     18  O         18.5900  -23.5120   -7.5010 O.2     1  UNL1       -0.3090
     19  C         18.5290  -22.8180   -6.3090 C.2     1  UNL1        0.0760
     20  C         17.8700  -23.2520   -5.1560 C.2     1  UNL1        0.0370
     21  C         17.8590  -22.4470   -4.0140 C.2     1  UNL1        0.0030
     22  C         18.5140  -21.2160   -4.0180 C.2     1  UNL1        0.0000
     23  C         19.1850  -20.7870   -5.1620 C.2     1  UNL1        0.0030
     24  C         19.1960  -21.5900   -6.3040 C.2     1  UNL1        0.0370
     25  S         25.2180  -23.1060  -13.0410 S.O2    1  UNL1        0.2650
     26  O         26.4620  -22.4060  -12.8030 O.2     1  UNL1       -0.2000
     27  O         25.2450  -24.4740  -13.5170 O.2     1  UNL1       -0.2000
     28  N         24.3200  -22.1710  -14.1150 N.pl3   1  UNL1       -0.2800
     29  H         23.4170  -22.5960  -14.3120 H       1  UNL1        0.1790
     30  C         24.9300  -21.3570  -15.1220 C.2     1  UNL1        0.0490
     31  C         24.9990  -21.8300  -16.4470 C.2     1  UNL1       -0.0350
     32  C         25.6160  -21.0340  -17.4260 C.2     1  UNL1        0.0090
     33  C         24.4540  -23.1710  -16.8570 C.3     1  UNL1        0.0500
     34  C         26.1230  -19.7740  -17.1130 C.2     1  UNL1        0.0070
     35  C         25.9960  -19.2700  -15.8180 C.2     1  UNL1       -0.0600
     36  C         26.5440  -17.9200  -15.4630 C.3     1  UNL1        0.0480
     37  C         25.3920  -20.0670  -14.8340 C.2     1  UNL1        0.0370
@<TRIPOS>BOND
     1    32    34    2
     2    32    31    1
     3    34    35    1
     4    33    31    1
     5    31    30    2
     6    35    36    1
     7    35    37    2
     8    30    37    1
     9    30    28    1
    10    29    28    1
    11    28    25    1
    12    27    25    2
    13    25    26    2
    14    25     1    1
    15     2     1    2
    16     2     3    1
    17     1     6    1
    18     9     8    2
    19    13    14    1
    20    13    12    2
    21    14    15    2
    22     8     3    1
    23     8    10   am
    24     3     4    2
    25     6     7    1
    26     6     5    2
    27    10    12    1
    28    10    11    1
    29    12    17    1
    30    15    16    1
    31     4     5    1
    32    17    16    2
    33    17    18    1
    34    18    19    1
    35    19    24    2
    36    19    20    1
    37    24    23    1
    38    23    22    2
    39    20    21    2
    40    22    21    1
