@<TRIPOS>MOLECULE
49990_out_ligand_01.pdbqt
 40 45 0 0 0
SMALL
GASTEIGER

@<TRIPOS>ATOM
      1  C         24.4000  -22.6930  -14.0570 C.2     1  UNL1        0.1020
      2  C         23.8250  -22.9600  -12.8040 C.2     1  UNL1        0.0440
      3  C         22.7530  -22.1880  -12.3440 C.2     1  UNL1        0.0340
      4  C         22.2640  -21.1370  -13.1260 C.2     1  UNL1        0.0190
      5  C         22.8400  -20.8760  -14.3730 C.2     1  UNL1        0.0260
      6  C         23.9060  -21.6520  -14.8480 C.2     1  UNL1        0.0570
      7 CL         24.5480  -21.2150  -16.3890 Cl      1  UNL1       -0.0830
      8  C         22.1790  -22.4900  -11.0040 C.2     1  UNL1        0.2560
      9  O         22.9170  -22.9950  -10.1670 O.2     1  UNL1       -0.2670
     10  N         20.8380  -22.1870  -10.8730 N.am    1  UNL1       -0.3230
     11  H         20.3480  -21.8840  -11.7030 H       1  UNL1        0.1690
     12  C         20.0360  -22.3450   -9.7230 C.2     1  UNL1        0.0350
     13  C         20.5270  -22.3520   -8.4210 C.2     1  UNL1        0.0300
     14  C         19.6600  -22.5120   -7.3280 C.2     1  UNL1        0.0100
     15  C         18.2760  -22.6700   -7.5030 C.2     1  UNL1       -0.0490
     16  C         17.7970  -22.6570   -8.8250 C.2     1  UNL1        0.0100
     17  C         18.6600  -22.4950   -9.9160 C.2     1  UNL1        0.0300
     18  C         17.3030  -22.8540   -6.3270 C.3     1  UNL1       -0.0120
     19  C         15.8470  -22.5420   -6.7810 C.3     1  UNL1        0.0190
     20  C         14.8430  -22.7780   -5.6390 C.3     1  UNL1       -0.0130
     21  C         14.9300  -24.2440   -5.1830 C.3     1  UNL1        0.0090
     22  C         15.1880  -21.8580   -4.4600 C.3     1  UNL1        0.0090
     23  C         16.3490  -24.5570   -4.6790 C.3     1  UNL1       -0.0130
     24  C         16.6850  -23.6280   -3.5040 C.3     1  UNL1        0.0090
     25  C         17.3560  -24.3260   -5.8190 C.3     1  UNL1        0.0190
     26  C         16.6070  -22.1630   -3.9600 C.3     1  UNL1       -0.0130
     27  C         17.6090  -21.9340   -5.1050 C.3     1  UNL1        0.0190
     28  S         25.7330  -23.7300  -14.6020 S.O2    1  UNL1        0.2650
     29  O         25.7120  -24.9400  -13.8070 O.2     1  UNL1       -0.2000
     30  O         25.6670  -23.8190  -16.0450 O.2     1  UNL1       -0.2000
     31  N         27.1180  -22.8470  -14.2220 N.pl3   1  UNL1       -0.2800
     32  H         27.9430  -23.2520  -14.6570 H       1  UNL1        0.1790
     33  C         27.0740  -21.4360  -13.9790 C.2     1  UNL1        0.0490
     34  C         27.1180  -20.5410  -15.0530 C.2     1  UNL1        0.0310
     35  C         27.1210  -19.1670  -14.8380 C.2     1  UNL1        0.0030
     36  C         27.0630  -18.6690  -13.5440 C.2     1  UNL1        0.0070
     37  C         26.9730  -19.5400  -12.4460 C.2     1  UNL1       -0.0540
     38  C         26.8970  -18.9370  -11.0670 C.3     1  UNL1        0.0490
     39  C         26.9360  -20.9410  -12.6600 C.2     1  UNL1       -0.0290
     40  C         26.8140  -21.8700  -11.4760 C.3     1  UNL1        0.0510
@<TRIPOS>BOND
     1     7     6    1
     2    30    28    2
     3    34    35    1
     4    34    33    2
     5     6     5    1
     6     6     1    2
     7    35    36    2
     8    32    31    1
     9    28    31    1
    10    28     1    1
    11    28    29    2
    12     5     4    2
    13    31    33    1
    14     1     2    1
    15    33    39    1
    16    36    37    1
    17     4     3    1
    18     2     3    2
    19    39    37    2
    20    39    40    1
    21    37    38    1
    22     3     8    1
    23    11    10    1
    24     8    10   am
    25     8     9    2
    26    10    12    1
    27    17    12    2
    28    17    16    1
    29    12    13    1
    30    16    15    2
    31    13    14    2
    32    15    14    1
    33    15    18    1
    34    19    18    1
    35    19    20    1
    36    18    25    1
    37    18    27    1
    38    25    23    1
    39    20    21    1
    40    20    22    1
    41    21    23    1
    42    27    26    1
    43    23    24    1
    44    22    26    1
    45    26    24    1
