@<TRIPOS>MOLECULE
49998_out_ligand_01.pdbqt
 39 44 0 0 0
SMALL
GASTEIGER

@<TRIPOS>ATOM
      1  C         21.9520  -22.1960  -10.5290 C.2     1  UNL1        0.2560
      2  O         21.1300  -21.4530  -11.0510 O.2     1  UNL1       -0.2670
      3  N         21.8380  -22.8660   -9.3260 N.am    1  UNL1       -0.3230
      4  H         22.6510  -23.3700   -8.9940 H       1  UNL1        0.1690
      5  C         23.2420  -22.3960  -11.2420 C.2     1  UNL1        0.0340
      6  C         23.3060  -22.0660  -12.6000 C.2     1  UNL1        0.0440
      7  C         24.4840  -22.2840  -13.3410 C.2     1  UNL1        0.1020
      8  C         25.6090  -22.8150  -12.7070 C.2     1  UNL1        0.0570
      9  C         25.5330  -23.1500  -11.3450 C.2     1  UNL1        0.0260
     10 CL         27.1200  -23.1410  -13.4660 Cl      1  UNL1       -0.0830
     11  C         24.3570  -22.9510  -10.6150 C.2     1  UNL1        0.0190
     12  S         24.4290  -21.8130  -15.0530 S.O2    1  UNL1        0.2650
     13  O         24.3280  -23.0430  -15.8170 O.2     1  UNL1       -0.2000
     14  O         23.4620  -20.7620  -15.2600 O.2     1  UNL1       -0.2000
     15  N         25.9860  -21.2380  -15.3440 N.pl3   1  UNL1       -0.2800
     16  H         26.6930  -21.7000  -14.7780 H       1  UNL1        0.1790
     17  C         26.2000  -19.8910  -15.7490 C.2     1  UNL1        0.0480
     18  C         26.1000  -19.5610  -17.1040 C.2     1  UNL1        0.0300
     19  C         26.2830  -18.2450  -17.5290 C.2     1  UNL1        0.0020
     20  C         26.5750  -17.2530  -16.6000 C.2     1  UNL1        0.0010
     21  C         26.6890  -17.5770  -15.2470 C.2     1  UNL1        0.0090
     22  C         26.5160  -18.8990  -14.8040 C.2     1  UNL1       -0.0350
     23  C         26.6360  -19.1890  -13.3340 C.3     1  UNL1        0.0500
     24  C         20.7330  -22.8610   -8.4490 C.2     1  UNL1        0.0350
     25  C         19.7470  -23.8310   -8.6490 C.2     1  UNL1        0.0300
     26  C         18.6180  -23.8950   -7.8200 C.2     1  UNL1        0.0100
     27  C         18.4370  -22.9930   -6.7630 C.2     1  UNL1       -0.0490
     28  C         19.4400  -22.0240   -6.5770 C.2     1  UNL1        0.0100
     29  C         20.5680  -21.9560   -7.4070 C.2     1  UNL1        0.0300
     30  C         17.2190  -23.0320   -5.8250 C.3     1  UNL1       -0.0120
     31  C         17.0750  -24.4470   -5.1900 C.3     1  UNL1        0.0190
     32  C         15.8290  -24.5300   -4.2920 C.3     1  UNL1       -0.0130
     33  C         14.5790  -24.2200   -5.1320 C.3     1  UNL1        0.0090
     34  C         15.9470  -23.5020   -3.1590 C.3     1  UNL1        0.0090
     35  C         14.6770  -22.8050   -5.7240 C.3     1  UNL1       -0.0130
     36  C         14.8010  -21.7860   -4.5820 C.3     1  UNL1        0.0090
     37  C         15.9210  -22.7180   -6.6260 C.3     1  UNL1        0.0190
     38  C         16.0540  -22.0880   -3.7470 C.3     1  UNL1       -0.0130
     39  C         17.2960  -22.0080   -4.6510 C.3     1  UNL1        0.0190
@<TRIPOS>BOND
     1    19    18    1
     2    19    20    2
     3    18    17    2
     4    20    21    1
     5    13    12    2
     6    17    15    1
     7    17    22    1
     8    15    12    1
     9    15    16    1
    10    14    12    2
    11    21    22    2
    12    12     7    1
    13    22    23    1
    14    10     8    1
    15     7     8    2
    16     7     6    1
    17     8     9    1
    18     6     5    2
    19     9    11    2
    20     5    11    1
    21     5     1    1
    22     2     1    2
    23     1     3   am
    24     3     4    1
    25     3    24    1
    26    25    24    2
    27    25    26    1
    28    24    29    1
    29    26    27    2
    30    29    28    2
    31    27    28    1
    32    27    30    1
    33    37    30    1
    34    37    35    1
    35    30    31    1
    36    30    39    1
    37    35    33    1
    38    35    36    1
    39    31    32    1
    40    33    32    1
    41    39    38    1
    42    36    38    1
    43    32    34    1
    44    38    34    1
