@<TRIPOS>MOLECULE
49996_out_ligand_01.pdbqt
 36 40 0 0 0
SMALL
GASTEIGER

@<TRIPOS>ATOM
      1  C         20.3350  -22.3100  -11.0060 C.2     1  UNL1        0.0350
      2  C         20.2870  -23.3660  -10.0900 C.2     1  UNL1        0.0310
      3  C         19.1120  -23.6400   -9.3810 C.2     1  UNL1        0.0270
      4  C         17.9740  -22.8620   -9.6000 C.2     1  UNL1        0.0800
      5  C         18.0120  -21.7900  -10.4940 C.2     1  UNL1        0.0270
      6  C         19.1900  -21.5230  -11.1970 C.2     1  UNL1        0.0310
      7  N         21.4740  -21.9740  -11.7580 N.am    1  UNL1       -0.3210
      8  C         22.7910  -22.3370  -11.5370 C.2     1  UNL1        0.2800
      9  O         23.1910  -23.0390  -10.6150 O.2     1  UNL1       -0.2650
     10  H         21.3330  -21.3890  -12.5750 H       1  UNL1        0.1690
     11  C         23.6930  -21.7920  -12.5350 C.2     1  UNL1        0.1440
     12  C         23.6960  -21.9040  -13.9120 C.2     1  UNL1        0.0580
     13  C         24.8140  -21.1660  -14.3930 C.2     1  UNL1        0.0120
     14  C         25.4260  -20.6460  -13.2590 C.2     1  UNL1        0.0870
     15  C         25.3860  -20.8730  -15.6610 C.2     1  UNL1       -0.0130
     16  C         26.5680  -19.8520  -13.2750 C.2     1  UNL1        0.0390
     17  O         24.7530  -21.0210  -12.1350 O.2     1  UNL1       -0.3040
     18  C         27.1210  -19.5710  -14.5290 C.2     1  UNL1        0.0150
     19  C         26.5530  -20.0660  -15.7160 C.2     1  UNL1       -0.0250
     20  C         27.1140  -19.7790  -16.9690 C.2     1  UNL1        0.0120
     21  C         26.5390  -20.2770  -18.1420 C.2     1  UNL1        0.0010
     22  C         25.3940  -21.0690  -18.0830 C.2     1  UNL1        0.0010
     23  C         24.8150  -21.3690  -16.8500 C.2     1  UNL1        0.0130
     24  S         16.4820  -23.2170   -8.7010 S.O2    1  UNL1        0.2630
     25  O         15.6610  -24.0780   -9.5260 O.2     1  UNL1       -0.2000
     26  O         15.9740  -21.9660   -8.1830 O.2     1  UNL1       -0.2000
     27  N         17.0390  -24.0960   -7.3640 N.pl3   1  UNL1       -0.2790
     28  H         16.8670  -25.0960   -7.4960 H       1  UNL1        0.1790
     29  C         16.7810  -23.5860   -6.0480 C.2     1  UNL1        0.0660
     30  C         15.6200  -23.9790   -5.3760 C.2     1  UNL1        0.0320
     31  C         15.3660  -23.5230   -4.0840 C.2     1  UNL1        0.0040
     32  C         16.2730  -22.6690   -3.4560 C.2     1  UNL1        0.0260
     33  C         17.4330  -22.2620   -4.1230 C.2     1  UNL1        0.0580
     34 CL         18.5050  -21.2000   -3.2780 Cl      1  UNL1       -0.0820
     35  C         17.6920  -22.7140   -5.4230 C.2     1  UNL1        0.0830
     36 CL         19.1140  -22.2190   -6.2860 Cl      1  UNL1       -0.0800
@<TRIPOS>BOND
     1    21    22    1
     2    21    20    2
     3    22    23    2
     4    20    19    1
     5    23    15    1
     6    19    15    1
     7    19    18    2
     8    15    13    2
     9    18    16    1
    10    13    12    1
    11    13    14    1
    12    12    11    2
    13    16    14    2
    14    14    17    1
    15    10     7    1
    16    11    17    1
    17    11     8    1
    18     7     8   am
    19     7     1    1
    20     8     9    2
    21     6     1    2
    22     6     5    1
    23     1     2    1
    24     5     4    2
    25     2     3    2
    26     4     3    1
    27     4    24    1
    28    25    24    2
    29    24    26    2
    30    24    27    1
    31    28    27    1
    32    27    29    1
    33    36    35    1
    34    29    35    2
    35    29    30    1
    36    35    33    1
    37    30    31    2
    38    33    32    2
    39    33    34    1
    40    31    32    1
