@<TRIPOS>MOLECULE
50002_out_ligand_01.pdbqt
 39 44 0 0 0
SMALL
GASTEIGER

@<TRIPOS>ATOM
      1  C         21.8170  -22.2610  -10.5260 C.2     1  UNL1        0.2560
      2  O         20.9430  -21.5970  -11.0710 O.2     1  UNL1       -0.2670
      3  N         21.7880  -22.7930   -9.2500 N.am    1  UNL1       -0.3230
      4  H         22.6440  -23.1880   -8.8880 H       1  UNL1        0.1690
      5  C         23.0760  -22.5090  -11.2820 C.2     1  UNL1        0.0340
      6  C         23.2140  -22.1360  -12.6230 C.2     1  UNL1        0.0440
      7  C         24.4310  -22.3540  -13.2940 C.2     1  UNL1        0.1020
      8  C         25.5090  -22.9420  -12.6280 C.2     1  UNL1        0.0570
      9  C         25.3670  -23.3020  -11.2830 C.2     1  UNL1        0.0260
     10 CL         27.0580  -23.2100  -13.3430 Cl      1  UNL1       -0.0830
     11  C         24.1610  -23.0820  -10.6110 C.2     1  UNL1        0.0190
     12  S         24.5470  -21.8440  -14.9910 S.O2    1  UNL1        0.2640
     13  O         24.5200  -23.0330  -15.8130 O.2     1  UNL1       -0.2000
     14  O         23.5660  -20.7970  -15.1980 O.2     1  UNL1       -0.2000
     15  N         26.0910  -21.1740  -15.1100 N.pl3   1  UNL1       -0.2810
     16  H         26.5800  -21.1920  -14.2130 H       1  UNL1        0.1790
     17  C         26.3100  -20.0560  -15.9620 C.2     1  UNL1        0.0430
     18  C         26.2650  -20.1740  -17.3500 C.2     1  UNL1        0.0300
     19  C         26.4570  -19.0490  -18.1520 C.2     1  UNL1        0.0030
     20  C         26.7040  -17.8050  -17.5670 C.2     1  UNL1        0.0070
     21  C         26.7540  -17.6740  -16.1750 C.2     1  UNL1       -0.0600
     22  C         27.0430  -16.3450  -15.5400 C.3     1  UNL1        0.0480
     23  C         26.5700  -18.8120  -15.3780 C.2     1  UNL1        0.0370
     24  C         20.6990  -22.7970   -8.3540 C.2     1  UNL1        0.0350
     25  C         20.5270  -21.8720   -7.3290 C.2     1  UNL1        0.0300
     26  C         19.4000  -21.9300   -6.4940 C.2     1  UNL1        0.0100
     27  C         18.4090  -22.9090   -6.6600 C.2     1  UNL1       -0.0490
     28  C         18.6050  -23.8400   -7.6940 C.2     1  UNL1        0.0100
     29  C         19.7250  -23.7820   -8.5310 C.2     1  UNL1        0.0300
     30  C         17.1630  -22.9920   -5.7620 C.3     1  UNL1       -0.0120
     31  C         17.1980  -22.0160   -4.5450 C.3     1  UNL1        0.0190
     32  C         15.9320  -22.1430   -3.6800 C.3     1  UNL1       -0.0130
     33  C         14.6990  -21.8180   -4.5350 C.3     1  UNL1        0.0090
     34  C         15.8270  -23.5820   -3.1530 C.3     1  UNL1        0.0090
     35  C         14.6150  -22.7910   -5.7180 C.3     1  UNL1       -0.0130
     36  C         14.5160  -24.2320   -5.1900 C.3     1  UNL1        0.0090
     37  C         15.8800  -22.6540   -6.5820 C.3     1  UNL1        0.0190
     38  C         15.7480  -24.5640   -4.3310 C.3     1  UNL1       -0.0130
     39  C         17.0180  -24.4340   -5.1930 C.3     1  UNL1        0.0190
@<TRIPOS>BOND
     1    19    20    2
     2    19    18    1
     3    20    21    1
     4    18    17    2
     5    21    22    1
     6    21    23    2
     7    17    23    1
     8    17    15    1
     9    13    12    2
    10    14    12    2
    11    15    12    1
    12    15    16    1
    13    12     7    1
    14    10     8    1
    15     7     8    2
    16     7     6    1
    17     8     9    1
    18     6     5    2
    19     9    11    2
    20     5    11    1
    21     5     1    1
    22     2     1    2
    23     1     3   am
    24     3     4    1
    25     3    24    1
    26    29    24    2
    27    29    28    1
    28    24    25    1
    29    28    27    2
    30    25    26    2
    31    27    26    1
    32    27    30    1
    33    37    30    1
    34    37    35    1
    35    30    39    1
    36    30    31    1
    37    35    36    1
    38    35    33    1
    39    39    38    1
    40    36    38    1
    41    31    32    1
    42    33    32    1
    43    38    34    1
    44    32    34    1
