@<TRIPOS>MOLECULE
50001_out_ligand_01.pdbqt
 38 43 0 0 0
SMALL
GASTEIGER

@<TRIPOS>ATOM
      1  C         21.2770  -21.8050  -11.2240 C.2     1  UNL1        0.2560
      2  O         20.5640  -20.8320  -11.4310 O.2     1  UNL1       -0.2670
      3  N         21.1190  -22.7680  -10.2440 N.am    1  UNL1       -0.3230
      4  H         21.7180  -23.5790  -10.2950 H       1  UNL1        0.1690
      5  C         22.4410  -22.0280  -12.1290 C.2     1  UNL1        0.0320
      6  C         23.4730  -22.9130  -11.7910 C.2     1  UNL1        0.0190
      7  C         24.5490  -23.0940  -12.6640 C.2     1  UNL1        0.0250
      8  C         24.5950  -22.4000  -13.8760 C.2     1  UNL1        0.0250
      9  C         23.5900  -21.4830  -14.1940 C.2     1  UNL1        0.0250
     10  C         22.5130  -21.3000  -13.3230 C.2     1  UNL1        0.0190
     11  N         25.7540  -22.5940  -14.7080 N.pl3   1  UNL1       -0.1760
     12  C         26.9870  -21.9600  -14.1790 C.3     1  UNL1        0.1360
     13  S         25.4590  -22.3270  -16.3790 S.O2    1  UNL1        0.2470
     14  O         26.4690  -23.0140  -17.1600 O.2     1  UNL1       -0.2050
     15  O         24.0470  -22.5330  -16.6290 O.2     1  UNL1       -0.2050
     16  C         25.7950  -20.5840  -16.5410 C.2     1  UNL1        0.0750
     17  C         26.1060  -19.8470  -15.3910 C.2     1  UNL1        0.0260
     18  C         26.3940  -18.4850  -15.5060 C.2     1  UNL1        0.0250
     19  C         26.3770  -17.8760  -16.7620 C.2     1  UNL1        0.0340
     20 CL         26.7320  -16.1980  -16.8990 Cl      1  UNL1       -0.0840
     21  C         26.0780  -18.6150  -17.9090 C.2     1  UNL1        0.0250
     22  C         25.7900  -19.9790  -17.8020 C.2     1  UNL1        0.0260
     23  C         20.1510  -22.7940   -9.2190 C.2     1  UNL1        0.0350
     24  C         20.4030  -22.4580   -7.8940 C.2     1  UNL1        0.0300
     25  C         19.3820  -22.5180   -6.9370 C.2     1  UNL1        0.0100
     26  C         18.0760  -22.9250   -7.2690 C.2     1  UNL1       -0.0490
     27  C         17.8380  -23.2610   -8.6090 C.2     1  UNL1        0.0100
     28  C         18.8590  -23.1970   -9.5680 C.2     1  UNL1        0.0300
     29  C         16.9830  -22.9780   -6.1880 C.3     1  UNL1       -0.0120
     30  C         15.6030  -22.5890   -6.7980 C.3     1  UNL1        0.0190
     31  C         14.4820  -22.6970   -5.7500 C.3     1  UNL1       -0.0130
     32  C         14.4170  -24.1390   -5.2210 C.3     1  UNL1        0.0090
     33  C         14.7790  -21.7410   -4.5860 C.3     1  UNL1        0.0090
     34  C         15.7550  -24.5210   -4.5650 C.3     1  UNL1       -0.0130
     35  C         16.0460  -23.5560   -3.4070 C.3     1  UNL1        0.0090
     36  C         16.8800  -24.4200   -5.6090 C.3     1  UNL1        0.0190
     37  C         16.1180  -22.1160   -3.9350 C.3     1  UNL1       -0.0130
     38  C         17.2380  -22.0180   -4.9850 C.3     1  UNL1        0.0190
@<TRIPOS>BOND
     1    21    22    1
     2    21    19    2
     3    22    16    2
     4    14    13    2
     5    20    19    1
     6    19    18    1
     7    15    13    2
     8    16    13    1
     9    16    17    1
    10    13    11    1
    11    18    17    2
    12    11    12    1
    13    11     8    1
    14     9     8    2
    15     9    10    1
    16     8     7    1
    17    10     5    2
    18     7     6    2
    19     5     6    1
    20     5     1    1
    21     2     1    2
    22     1     3   am
    23     4     3    1
    24     3    23    1
    25    28    23    2
    26    28    27    1
    27    23    24    1
    28    27    26    2
    29    24    25    2
    30    26    25    1
    31    26    29    1
    32    30    29    1
    33    30    31    1
    34    29    36    1
    35    29    38    1
    36    31    32    1
    37    31    33    1
    38    36    34    1
    39    32    34    1
    40    38    37    1
    41    33    37    1
    42    34    35    1
    43    37    35    1
