@<TRIPOS>MOLECULE
50000_out_ligand_01.pdbqt
 40 43 0 0 0
SMALL
GASTEIGER

@<TRIPOS>ATOM
      1  C         21.3560  -23.9340   -9.3460 C.2     1  UNL1        0.2560
      2  O         21.5830  -24.9680   -8.7270 O.2     1  UNL1       -0.2670
      3  N         22.2850  -23.1480   -9.9950 N.am    1  UNL1       -0.3220
      4  H         21.9560  -22.2870  -10.4330 H       1  UNL1        0.1690
      5  C         19.9420  -23.4540   -9.4170 C.2     1  UNL1        0.0330
      6  C         19.0170  -23.9860   -8.5110 C.2     1  UNL1        0.0420
      7  C         17.6700  -23.5840   -8.5480 C.2     1  UNL1        0.0810
      8  C         17.2310  -22.6390   -9.4950 C.2     1  UNL1       -0.0390
      9  C         18.1720  -22.1150  -10.3960 C.2     1  UNL1        0.0090
     10  C         15.8160  -22.1390   -9.5760 C.3     1  UNL1        0.0500
     11  C         19.5100  -22.5240  -10.3680 C.2     1  UNL1        0.0170
     12  S         16.5670  -24.3090   -7.3450 S.O2    1  UNL1        0.2460
     13  O         17.3700  -25.0550   -6.3970 O.2     1  UNL1       -0.2060
     14  O         15.4690  -24.9550   -8.0350 O.2     1  UNL1       -0.2060
     15  N         15.9790  -22.9540   -6.5110 N.pl3   1  UNL1       -0.1810
     16  H         15.5220  -22.3170   -7.1610 H       1  UNL1        0.1460
     17  C         16.8270  -22.3730   -5.5260 C.2     1  UNL1        0.0230
     18  C         16.5780  -22.6030   -4.1740 C.2     1  UNL1        0.0240
     19  C         17.4450  -22.0870   -3.2120 C.2     1  UNL1        0.0020
     20  C         18.5600  -21.3430   -3.6040 C.2     1  UNL1        0.0070
     21  C         18.8160  -21.1040   -4.9610 C.2     1  UNL1       -0.0600
     22  C         20.0460  -20.3540   -5.3820 C.3     1  UNL1        0.0480
     23  C         17.9470  -21.6380   -5.9220 C.2     1  UNL1        0.0310
     24  C         23.6910  -23.3190  -10.0700 C.2     1  UNL1        0.0500
     25  C         24.4170  -23.9840   -9.0740 C.2     1  UNL1        0.0300
     26  C         25.8090  -24.0950   -9.1530 C.2     1  UNL1        0.0020
     27  C         26.4990  -23.5380  -10.2250 C.2     1  UNL1        0.0010
     28  C         25.7960  -22.8830  -11.2360 C.2     1  UNL1        0.0190
     29  C         24.3940  -22.7840  -11.1780 C.2     1  UNL1        0.0580
     30  C         23.6530  -22.1200  -12.2970 C.2     1  UNL1        0.2540
     31  O         22.4260  -22.1740  -12.3450 O.2     1  UNL1       -0.2680
     32  N         24.4140  -21.5180  -13.2780 N.am    1  UNL1       -0.3530
     33  H         25.4020  -21.7220  -13.3240 H       1  UNL1        0.1630
     34  C         23.8130  -20.9600  -14.4720 C.3     1  UNL1        0.1620
     35  C         24.4670  -21.4920  -15.7150 C.2     1  UNL1       -0.0230
     36  C         25.0190  -20.6380  -16.6750 C.2     1  UNL1        0.0120
     37  C         25.6130  -21.1670  -17.8170 C.2     1  UNL1        0.0200
     38  C         25.6380  -22.5440  -17.9620 C.2     1  UNL1        0.1160
     39  N         25.1180  -23.4030  -17.0590 N.2     1  UNL1       -0.2730
     40  C         24.5470  -22.8590  -15.9590 C.2     1  UNL1        0.1240
@<TRIPOS>BOND
     1    38    37    2
     2    38    39    1
     3    37    36    1
     4    39    40    2
     5    36    35    2
     6    40    35    1
     7    35    34    1
     8    34    32    1
     9    33    32    1
    10    32    30   am
    11    31    30    2
    12    30    29    1
    13    28    29    1
    14    28    27    2
    15    29    24    2
    16     4     3    1
    17     9    11    1
    18     9     8    2
    19    11     5    2
    20    27    26    1
    21    24     3    1
    22    24    25    1
    23     3     1   am
    24    10     8    1
    25     8     7    1
    26     5     1    1
    27     5     6    1
    28     1     2    2
    29    26    25    2
    30     7     6    2
    31     7    12    1
    32    14    12    2
    33    12    15    1
    34    12    13    2
    35    16    15    1
    36    15    17    1
    37    23    17    2
    38    23    21    1
    39    17    18    1
    40    22    21    1
    41    21    20    2
    42    18    19    2
    43    20    19    1
