@<TRIPOS>MOLECULE
50016_out_ligand_01.pdbqt
 33 37 0 0 0
SMALL
GASTEIGER

@<TRIPOS>ATOM
      1  C         18.4290  -22.2310  -10.1410 C.2     1  UNL1        0.0810
      2  C         19.7740  -22.6300  -10.1520 C.2     1  UNL1        0.0420
      3  C         20.6630  -22.0710  -11.0760 C.2     1  UNL1        0.0330
      4  C         20.2060  -21.1260  -11.9970 C.2     1  UNL1        0.0170
      5  C         18.8660  -20.7280  -11.9830 C.2     1  UNL1        0.0090
      6  C         17.9550  -21.2740  -11.0620 C.2     1  UNL1       -0.0390
      7  C         16.5330  -20.7860  -11.0930 C.3     1  UNL1        0.0500
      8  C         22.0770  -22.5340  -11.0710 C.2     1  UNL1        0.2520
      9  O         22.4380  -23.3390  -10.2240 O.2     1  UNL1       -0.2680
     10  N         22.8900  -21.9760  -12.0350 N.am    1  UNL1       -0.3480
     11  H         22.5360  -21.1610  -12.5180 H       1  UNL1        0.1630
     12  C         24.3320  -22.2270  -12.1490 C.3     1  UNL1        0.0340
     13  C         25.0700  -21.9310  -10.8210 C.3     1  UNL1        0.0350
     14  C         26.5850  -22.1480  -10.9830 C.3     1  UNL1       -0.0120
     15  C         27.1200  -21.2020  -12.0710 C.3     1  UNL1        0.0090
     16  C         26.8450  -23.6030  -11.4040 C.3     1  UNL1        0.0090
     17  C         26.4210  -21.4920  -13.4080 C.3     1  UNL1       -0.0120
     18  C         26.6860  -22.9470  -13.8180 C.3     1  UNL1        0.0090
     19  C         24.9070  -21.2820  -13.2400 C.3     1  UNL1        0.0350
     20  C         26.1480  -23.9010  -12.7430 C.3     1  UNL1       -0.0120
     21  C         24.6320  -23.6850  -12.5830 C.3     1  UNL1        0.0350
     22  S         17.3590  -22.9650   -8.9080 S.O2    1  UNL1        0.2460
     23  O         16.6770  -24.0810   -9.5250 O.2     1  UNL1       -0.2060
     24  O         16.6310  -21.8970   -8.2580 O.2     1  UNL1       -0.2060
     25  N         18.5180  -23.5170   -7.7830 N.pl3   1  UNL1       -0.1810
     26  H         19.4210  -23.5380   -8.2580 H       1  UNL1        0.1460
     27  C         18.5850  -22.7330   -6.5830 C.2     1  UNL1        0.0230
     28  C         19.4020  -21.6040   -6.5340 C.2     1  UNL1        0.0240
     29  C         19.4420  -20.8290   -5.3760 C.2     1  UNL1        0.0020
     30  C         18.6540  -21.1720   -4.2750 C.2     1  UNL1        0.0070
     31  C         17.8100  -22.2870   -4.3260 C.2     1  UNL1       -0.0600
     32  C         16.9530  -22.6630   -3.1550 C.3     1  UNL1        0.0480
     33  C         17.7840  -23.0670   -5.4910 C.2     1  UNL1        0.0310
@<TRIPOS>BOND
     1    18    17    1
     2    18    20    1
     3    17    19    1
     4    17    15    1
     5    19    12    1
     6    20    21    1
     7    20    16    1
     8    21    12    1
     9    11    10    1
    10    12    10    1
    11    12    13    1
    12    15    14    1
    13    10     8   am
    14     4     5    2
    15     4     3    1
    16     5     6    1
    17    16    14    1
    18     7     6    1
    19     3     8    1
    20     3     2    2
    21     8     9    2
    22     6     1    2
    23    14    13    1
    24     2     1    1
    25     1    22    1
    26    23    22    2
    27    22    24    2
    28    22    25    1
    29    26    25    1
    30    25    27    1
    31    27    28    2
    32    27    33    1
    33    28    29    1
    34    33    31    2
    35    29    30    2
    36    31    30    1
    37    31    32    1
