@<TRIPOS>MOLECULE
50018_out_ligand_01.pdbqt
 37 40 0 0 0
SMALL
GASTEIGER

@<TRIPOS>ATOM
      1  C         21.9760  -23.5000   -9.8060 C.2     1  UNL1        0.2560
      2  O         21.9440  -24.4790   -9.0710 O.2     1  UNL1       -0.2670
      3  N         23.0920  -22.9170  -10.3690 N.am    1  UNL1       -0.3220
      4  H         22.9330  -22.1780  -11.0550 H       1  UNL1        0.1690
      5  C         20.6870  -22.8490  -10.1700 C.2     1  UNL1        0.0330
      6  C         20.5850  -22.0030  -11.2790 C.2     1  UNL1        0.0170
      7  C         19.3610  -21.4090  -11.5950 C.2     1  UNL1        0.0090
      8  C         18.2140  -21.6540  -10.8200 C.2     1  UNL1       -0.0390
      9  C         16.9310  -20.9750  -11.2130 C.3     1  UNL1        0.0500
     10  C         18.3330  -22.4990   -9.6970 C.2     1  UNL1        0.0860
     11  C         19.5680  -23.0810   -9.3680 C.2     1  UNL1        0.0420
     12  S         16.9410  -22.8860   -8.6470 S.O2    1  UNL1        0.2630
     13  O         16.1490  -23.9000   -9.3080 O.2     1  UNL1       -0.2000
     14  O         16.3240  -21.6550   -8.2000 O.2     1  UNL1       -0.2000
     15  N         17.6740  -23.6410   -7.3180 N.pl3   1  UNL1       -0.2810
     16  H         17.2780  -24.5700   -7.1790 H       1  UNL1        0.1790
     17  C         17.8920  -22.8540   -6.1520 C.2     1  UNL1        0.0420
     18  C         17.2550  -23.2040   -4.9620 C.2     1  UNL1        0.0300
     19  C         17.4920  -22.4640   -3.8030 C.2     1  UNL1        0.0020
     20  C         18.3710  -21.3810   -3.8360 C.2     1  UNL1        0.0000
     21  C         19.0150  -21.0390   -5.0250 C.2     1  UNL1        0.0020
     22  C         18.7770  -21.7770   -6.1860 C.2     1  UNL1        0.0300
     23  C         24.4450  -23.3230  -10.2600 C.2     1  UNL1        0.0500
     24  C         24.9360  -24.0330   -9.1600 C.2     1  UNL1        0.0300
     25  C         26.2640  -24.4730   -9.1240 C.2     1  UNL1        0.0020
     26  C         27.1200  -24.2200  -10.1910 C.2     1  UNL1        0.0010
     27  C         26.6570  -23.5000  -11.2900 C.2     1  UNL1        0.0190
     28  C         25.3380  -23.0180  -11.3110 C.2     1  UNL1        0.0590
     29  C         24.8810  -22.2150  -12.4760 C.2     1  UNL1        0.2560
     30  O         24.1540  -21.2450  -12.2490 O.2     1  UNL1       -0.2670
     31  N         25.3020  -22.5510  -13.7680 N.am    1  UNL1       -0.3480
     32  C         26.5350  -23.2910  -14.0530 C.3     1  UNL1        0.1260
     33  C         24.7000  -21.7880  -14.8630 C.3     1  UNL1        0.1260
     34  C         26.2990  -24.5980  -14.8200 C.3     1  UNL1        0.0200
     35  C         24.9280  -24.7450  -15.4810 C.3     1  UNL1        0.0020
     36  C         24.6140  -23.7180  -16.5680 C.3     1  UNL1        0.0020
     37  C         25.0250  -22.2760  -16.2750 C.3     1  UNL1        0.0200
@<TRIPOS>BOND
     1    36    37    1
     2    36    35    1
     3    37    33    1
     4    35    34    1
     5    33    31    1
     6    34    32    1
     7    32    31    1
     8    31    29   am
     9    29    30    2
    10    29    28    1
    11     7     6    1
    12     7     8    2
    13    28    27    1
    14    28    23    2
    15    27    26    2
    16     6     5    2
    17     9     8    1
    18     4     3    1
    19     8    10    1
    20     3    23    1
    21     3     1   am
    22    23    24    1
    23    26    25    1
    24     5     1    1
    25     5    11    1
    26     1     2    2
    27    10    11    2
    28    10    12    1
    29    13    12    2
    30    24    25    2
    31    12    14    2
    32    12    15    1
    33    15    16    1
    34    15    17    1
    35    22    17    2
    36    22    21    1
    37    17    18    1
    38    21    20    2
    39    18    19    2
    40    20    19    1
