@<TRIPOS>MOLECULE
50017_out_ligand_01.pdbqt
 36 40 0 0 0
SMALL
GASTEIGER

@<TRIPOS>ATOM
      1  C         23.7580  -21.9860  -13.5670 C.2     1  UNL1        0.0800
      2  C         22.4920  -21.4010  -13.5130 C.2     1  UNL1        0.0270
      3  C         21.7280  -21.5220  -12.3490 C.2     1  UNL1        0.0310
      4  C         22.2170  -22.2280  -11.2380 C.2     1  UNL1        0.0350
      5  C         23.4800  -22.8210  -11.3150 C.2     1  UNL1        0.0310
      6  C         24.2480  -22.7110  -12.4800 C.2     1  UNL1        0.0270
      7  N         21.3830  -22.2940  -10.1080 N.am    1  UNL1       -0.3210
      8  C         21.2600  -23.3200   -9.1880 C.2     1  UNL1        0.2800
      9  O         21.8870  -24.3730   -9.2030 O.2     1  UNL1       -0.2650
     10  H         20.7860  -21.4940   -9.9260 H       1  UNL1        0.1690
     11  C         20.2830  -23.0250   -8.1550 C.2     1  UNL1        0.1440
     12  C         19.0200  -23.5380   -7.9270 C.2     1  UNL1        0.0580
     13  C         18.5040  -22.8880   -6.7700 C.2     1  UNL1        0.0120
     14  C         19.5040  -22.0120   -6.3640 C.2     1  UNL1        0.0870
     15  C         17.3030  -22.9400   -6.0110 C.2     1  UNL1       -0.0130
     16  C         19.4110  -21.1700   -5.2600 C.2     1  UNL1        0.0390
     17  O         20.5790  -22.0900   -7.1960 O.2     1  UNL1       -0.3040
     18  C         18.2240  -21.2290   -4.5220 C.2     1  UNL1        0.0150
     19  C         17.1750  -22.0950   -4.8770 C.2     1  UNL1       -0.0250
     20  C         15.9880  -22.1470   -4.1310 C.2     1  UNL1        0.0120
     21  C         14.9520  -23.0130   -4.4930 C.2     1  UNL1        0.0010
     22  C         15.0830  -23.8390   -5.6070 C.2     1  UNL1        0.0010
     23  C         16.2520  -23.8070   -6.3670 C.2     1  UNL1        0.0130
     24  S         24.7260  -21.8530  -15.0550 S.O2    1  UNL1        0.2630
     25  O         25.2370  -23.1670  -15.3790 O.2     1  UNL1       -0.2000
     26  O         23.9430  -21.0990  -16.0120 O.2     1  UNL1       -0.2000
     27  N         25.9970  -20.8400  -14.5970 N.pl3   1  UNL1       -0.2810
     28  H         26.7680  -21.3580  -14.1800 H       1  UNL1        0.1790
     29  C         26.3130  -19.7090  -15.4000 C.2     1  UNL1        0.0430
     30  C         26.3440  -19.8520  -16.7850 C.2     1  UNL1        0.0300
     31  C         26.6090  -18.7440  -17.5910 C.2     1  UNL1        0.0090
     32  C         26.8490  -17.4830  -17.0230 C.2     1  UNL1       -0.0560
     33  C         27.1200  -16.3090  -17.9250 C.3     1  UNL1        0.0490
     34  C         26.8190  -17.3400  -15.6210 C.2     1  UNL1       -0.0540
     35  C         26.5530  -18.4640  -14.8220 C.2     1  UNL1        0.0370
     36  C         27.0660  -16.0110  -14.9600 C.3     1  UNL1        0.0490
@<TRIPOS>BOND
     1    33    32    1
     2    31    32    2
     3    31    30    1
     4    32    34    1
     5    30    29    2
     6    26    24    2
     7    34    36    1
     8    34    35    2
     9    29    35    1
    10    29    27    1
    11    25    24    2
    12    24    27    1
    13    24     1    1
    14    27    28    1
    15     1     2    2
    16     1     6    1
    17     2     3    1
    18     6     5    2
    19     3     4    2
    20     5     4    1
    21     4     7    1
    22     7    10    1
    23     7     8   am
    24     9     8    2
    25     8    11    1
    26    11    12    2
    27    11    17    1
    28    12    13    1
    29    17    14    1
    30    13    14    2
    31    13    15    1
    32    23    15    2
    33    23    22    1
    34    14    16    1
    35    15    19    1
    36    22    21    2
    37    16    18    2
    38    19    18    1
    39    19    20    2
    40    21    20    1
