@<TRIPOS>MOLECULE
50023_out_ligand_01.pdbqt
 34 36 0 0 0
SMALL
GASTEIGER

@<TRIPOS>ATOM
      1  C         17.5900  -23.3460   -8.8850 C.2     1  UNL1        0.0860
      2  C         18.9830  -23.5240   -8.9260 C.2     1  UNL1        0.0420
      3  C         19.7490  -22.9000   -9.9130 C.2     1  UNL1        0.0330
      4  C         19.1270  -22.0930  -10.8650 C.2     1  UNL1        0.0170
      5  C         17.7390  -21.9350  -10.8420 C.2     1  UNL1        0.0090
      6  C         16.9450  -22.5610   -9.8610 C.2     1  UNL1       -0.0390
      7  C         15.4590  -22.3550   -9.9280 C.3     1  UNL1        0.0500
      8  C         21.2240  -23.0840   -9.8860 C.2     1  UNL1        0.2560
      9  O         21.6880  -23.8580   -9.0580 O.2     1  UNL1       -0.2670
     10  N         21.9110  -22.3660  -10.8460 N.am    1  UNL1       -0.3230
     11  H         21.3580  -21.8640  -11.5300 H       1  UNL1        0.1690
     12  C         23.3060  -22.3280  -11.0490 C.2     1  UNL1        0.0370
     13  C         24.1630  -21.4280  -10.4180 C.2     1  UNL1        0.0290
     14  C         25.5350  -21.4630  -10.6780 C.2     1  UNL1        0.0050
     15  C         26.0660  -22.3940  -11.5730 C.2     1  UNL1        0.0370
     16  C         25.2230  -23.2960  -12.2160 C.2     1  UNL1        0.0710
     17  C         23.8480  -23.2560  -11.9480 C.2     1  UNL1        0.0660
     18  O         25.5920  -24.2660  -13.1060 O.2     1  UNL1       -0.3470
     19  C         25.3890  -24.0460  -14.5060 C.3     1  UNL1        0.1200
     20  C         26.5830  -23.3020  -15.0990 C.3     1  UNL1        0.0400
     21  C         25.2660  -25.4240  -15.1510 C.3     1  UNL1        0.0400
     22  S         16.7410  -24.2020   -7.5600 S.O2    1  UNL1        0.2630
     23  O         15.6250  -24.9530   -8.0890 O.2     1  UNL1       -0.2000
     24  O         17.7630  -24.8680   -6.7790 O.2     1  UNL1       -0.2000
     25  N         16.1650  -22.9440   -6.5930 N.pl3   1  UNL1       -0.2800
     26  H         15.1590  -22.9990   -6.4430 H       1  UNL1        0.1790
     27  C         16.9750  -22.3810   -5.5640 C.2     1  UNL1        0.0490
     28  C         16.6630  -22.6060   -4.2130 C.2     1  UNL1       -0.0350
     29  C         17.4840  -22.0400   -3.2260 C.2     1  UNL1        0.0090
     30  C         15.4690  -23.4140   -3.7850 C.3     1  UNL1        0.0500
     31  C         18.5890  -21.2600   -3.5730 C.2     1  UNL1        0.0070
     32  C         18.8930  -21.0250   -4.9150 C.2     1  UNL1       -0.0600
     33  C         20.0500  -20.1460   -5.2880 C.3     1  UNL1        0.0480
     34  C         18.0670  -21.5740   -5.9030 C.2     1  UNL1        0.0370
@<TRIPOS>BOND
     1    21    19    1
     2    20    19    1
     3    19    18    1
     4    18    16    1
     5    16    17    1
     6    16    15    2
     7    17    12    2
     8    15    14    1
     9    11    10    1
    10    12    10    1
    11    12    13    1
    12     4     5    2
    13     4     3    1
    14    10     8   am
    15     5     6    1
    16    14    13    2
    17     7     6    1
    18     3     8    1
    19     3     2    2
    20     8     9    2
    21     6     1    2
    22     2     1    1
    23     1    22    1
    24    23    22    2
    25    22    24    2
    26    22    25    1
    27    25    26    1
    28    25    27    1
    29    34    27    2
    30    34    32    1
    31    27    28    1
    32    33    32    1
    33    32    31    2
    34    28    30    1
    35    28    29    2
    36    31    29    1
