@<TRIPOS>MOLECULE
50022_out_ligand_01.pdbqt
 34 38 0 0 0
SMALL
GASTEIGER

@<TRIPOS>ATOM
      1  C         18.3280  -22.2730  -10.3860 C.2     1  UNL1        0.0810
      2  C         19.6830  -22.6370  -10.3720 C.2     1  UNL1        0.0420
      3  C         20.5890  -22.0040  -11.2270 C.2     1  UNL1        0.0330
      4  C         20.1440  -20.9970  -12.0880 C.2     1  UNL1        0.0170
      5  C         18.7940  -20.6370  -12.1040 C.2     1  UNL1        0.0090
      6  C         17.8660  -21.2600  -11.2520 C.2     1  UNL1       -0.0390
      7  C         16.4250  -20.8330  -11.3340 C.3     1  UNL1        0.0500
      8  C         22.0210  -22.4000  -11.1640 C.2     1  UNL1        0.2520
      9  O         22.3610  -23.2850  -10.3930 O.2     1  UNL1       -0.2680
     10  N         22.8660  -21.7310  -12.0230 N.am    1  UNL1       -0.3480
     11  H         22.4320  -21.1970  -12.7650 H       1  UNL1        0.1630
     12  C         24.2920  -22.0370  -12.1930 C.3     1  UNL1        0.0340
     13  C         24.5380  -23.5400  -12.4800 C.3     1  UNL1        0.0350
     14  C         26.0450  -23.8300  -12.6000 C.3     1  UNL1       -0.0120
     15  C         26.7410  -23.4600  -11.2810 C.3     1  UNL1        0.0090
     16  C         26.6320  -22.9820  -13.7410 C.3     1  UNL1        0.0090
     17  C         26.5320  -21.9680  -10.9800 C.3     1  UNL1       -0.0120
     18  C         27.1200  -21.1270  -12.1250 C.3     1  UNL1        0.0090
     19  C         25.0250  -21.6840  -10.8700 C.3     1  UNL1        0.0350
     20  C         26.4260  -21.4860  -13.4500 C.3     1  UNL1       -0.0120
     21  C         24.9190  -21.1950  -13.3310 C.3     1  UNL1        0.0350
     22  S         17.2250  -23.1480   -9.2810 S.O2    1  UNL1        0.2460
     23  O         16.6350  -24.2440  -10.0200 O.2     1  UNL1       -0.2060
     24  O         16.4090  -22.1660   -8.6030 O.2     1  UNL1       -0.2060
     25  N         18.3540  -23.8390   -8.2050 N.pl3   1  UNL1       -0.1810
     26  H         18.1100  -24.8250   -8.0930 H       1  UNL1        0.1460
     27  C         18.4270  -23.1800   -6.9320 C.2     1  UNL1        0.0230
     28  C         19.1650  -22.0100   -6.7990 C.2     1  UNL1        0.0250
     29  C         19.2040  -21.3500   -5.5700 C.2     1  UNL1        0.0090
     30  C         18.4990  -21.8500   -4.4630 C.2     1  UNL1       -0.0560
     31  C         18.5720  -21.1120   -3.1530 C.3     1  UNL1        0.0490
     32  C         17.7500  -23.0370   -4.6000 C.2     1  UNL1       -0.0540
     33  C         17.7100  -23.6840   -5.8460 C.2     1  UNL1        0.0310
     34  C         16.9630  -23.6060   -3.4510 C.3     1  UNL1        0.0490
@<TRIPOS>BOND
     1    16    20    1
     2    16    14    1
     3    20    21    1
     4    20    18    1
     5    21    12    1
     6    11    10    1
     7    14    13    1
     8    14    15    1
     9    13    12    1
    10    12    10    1
    11    12    19    1
    12    18    17    1
    13     5     4    2
    14     5     6    1
    15     4     3    1
    16    10     8   am
    17     7     6    1
    18    15    17    1
    19     6     1    2
    20     3     8    1
    21     3     2    2
    22     8     9    2
    23    17    19    1
    24     1     2    1
    25     1    22    1
    26    23    22    2
    27    22    24    2
    28    22    25    1
    29    25    26    1
    30    25    27    1
    31    27    28    2
    32    27    33    1
    33    28    29    1
    34    33    32    2
    35    29    30    2
    36    32    30    1
    37    32    34    1
    38    30    31    1
