@<TRIPOS>MOLECULE
50037_out_ligand_01.pdbqt
 37 40 0 0 0
SMALL
GASTEIGER

@<TRIPOS>ATOM
      1  C         19.2780  -22.4330  -10.1990 C.2     1  UNL1        0.0860
      2  C         20.6310  -22.8130  -10.1940 C.2     1  UNL1        0.0420
      3  C         21.5340  -22.2360  -11.0900 C.2     1  UNL1        0.0330
      4  C         21.0710  -21.3150  -12.0340 C.2     1  UNL1        0.0170
      5  C         19.7220  -20.9510  -12.0550 C.2     1  UNL1        0.0090
      6  C         18.8060  -21.4880  -11.1330 C.2     1  UNL1       -0.0390
      7  C         17.3710  -21.0500  -11.2250 C.3     1  UNL1        0.0500
      8  C         22.9660  -22.6400  -11.0110 C.2     1  UNL1        0.2520
      9  O         23.3730  -23.2630  -10.0380 O.2     1  UNL1       -0.2680
     10  N         23.7680  -22.2370  -12.0520 N.am    1  UNL1       -0.3440
     11  H         23.4190  -21.5850  -12.7400 H       1  UNL1        0.1630
     12  C         25.2030  -22.4740  -12.0590 C.3     1  UNL1        0.1510
     13  C         25.8990  -21.1200  -12.1860 C.2     1  UNL1       -0.0310
     14  C         26.2130  -20.3970  -11.0230 C.2     1  UNL1        0.0090
     15  C         26.8080  -19.1370  -11.1060 C.2     1  UNL1        0.0010
     16  C         27.0880  -18.5800  -12.3510 C.2     1  UNL1        0.0000
     17  C         26.7660  -19.2760  -13.5150 C.2     1  UNL1        0.0010
     18  C         26.1700  -20.5350  -13.4350 C.2     1  UNL1        0.0090
     19  C         25.6420  -23.4940  -13.1100 C.2     1  UNL1       -0.0310
     20  C         26.7640  -24.3230  -12.9490 C.2     1  UNL1        0.0090
     21  C         27.1200  -25.2460  -13.9370 C.2     1  UNL1        0.0010
     22  C         26.3620  -25.3530  -15.1020 C.2     1  UNL1        0.0000
     23  C         25.2480  -24.5360  -15.2820 C.2     1  UNL1        0.0010
     24  C         24.8920  -23.6150  -14.2970 C.2     1  UNL1        0.0090
     25  S         18.2110  -23.2110   -8.9900 S.O2    1  UNL1        0.2630
     26  O         16.9700  -23.5790   -9.6420 O.2     1  UNL1       -0.2000
     27  O         18.9820  -24.2060   -8.2770 O.2     1  UNL1       -0.2000
     28  N         17.8340  -21.9410   -7.9410 N.pl3   1  UNL1       -0.2800
     29  H         18.3470  -21.0930   -8.1600 H       1  UNL1        0.1790
     30  C         17.4870  -22.2050   -6.5800 C.2     1  UNL1        0.0490
     31  C         18.3270  -21.7720   -5.5370 C.2     1  UNL1       -0.0350
     32  C         17.9930  -22.1080   -4.2160 C.2     1  UNL1        0.0090
     33  C         19.5950  -21.0010   -5.7870 C.3     1  UNL1        0.0500
     34  C         16.8320  -22.8290   -3.9310 C.2     1  UNL1        0.0070
     35  C         15.9690  -23.2100   -4.9600 C.2     1  UNL1       -0.0600
     36  C         14.7260  -23.9940   -4.6560 C.3     1  UNL1        0.0480
     37  C         16.3080  -22.8980   -6.2830 C.2     1  UNL1        0.0370
@<TRIPOS>BOND
     1    23    22    2
     2    23    24    1
     3    22    21    1
     4    24    19    2
     5    21    20    2
     6    17    18    1
     7    17    16    2
     8    18    13    2
     9    19    20    1
    10    19    12    1
    11    11    10    1
    12    16    15    1
    13    13    12    1
    14    13    14    1
    15    12    10    1
    16     5     4    2
    17     5     6    1
    18    10     8   am
    19     4     3    1
    20     7     6    1
    21     6     1    2
    22    15    14    2
    23     3     8    1
    24     3     2    2
    25     8     9    2
    26     1     2    1
    27     1    25    1
    28    26    25    2
    29    25    27    2
    30    25    28    1
    31    29    28    1
    32    28    30    1
    33    30    37    2
    34    30    31    1
    35    37    35    1
    36    33    31    1
    37    31    32    2
    38    35    36    1
    39    35    34    2
    40    32    34    1
