@<TRIPOS>MOLECULE
50038_out_ligand_01.pdbqt
 35 39 0 0 0
SMALL
GASTEIGER

@<TRIPOS>ATOM
      1  C         23.8640  -22.0480  -13.6200 C.2     1  UNL1        0.0800
      2  C         24.3370  -22.7840  -12.5330 C.2     1  UNL1        0.0270
      3  C         23.5500  -22.9050  -11.3820 C.2     1  UNL1        0.0310
      4  C         22.3010  -22.2830  -11.3080 C.2     1  UNL1        0.0350
      5  C         21.8480  -21.5310  -12.4020 C.2     1  UNL1        0.0310
      6  C         22.6260  -21.4100  -13.5570 C.2     1  UNL1        0.0270
      7  N         21.4510  -22.3550  -10.1900 N.am    1  UNL1       -0.3210
      8  C         21.3430  -23.3690   -9.2530 C.2     1  UNL1        0.2800
      9  O         21.9880  -24.4120   -9.2530 O.2     1  UNL1       -0.2650
     10  H         20.8260  -21.5720  -10.0320 H       1  UNL1        0.1690
     11  C         20.3530  -23.0790   -8.2320 C.2     1  UNL1        0.1440
     12  C         19.1250  -23.6560   -7.9690 C.2     1  UNL1        0.0580
     13  C         18.5730  -22.9780   -6.8470 C.2     1  UNL1        0.0120
     14  C         19.5160  -22.0190   -6.4960 C.2     1  UNL1        0.0870
     15  C         17.3790  -23.0610   -6.0790 C.2     1  UNL1       -0.0130
     16  C         19.3730  -21.1260   -5.4380 C.2     1  UNL1        0.0390
     17  O         20.5910  -22.0750   -7.3290 O.2     1  UNL1       -0.3040
     18  C         18.1940  -21.2190   -4.6910 C.2     1  UNL1        0.0150
     19  C         17.2010  -22.1660   -4.9910 C.2     1  UNL1       -0.0250
     20  C         16.0210  -22.2510   -4.2370 C.2     1  UNL1        0.0120
     21  C         15.0400  -23.1980   -4.5460 C.2     1  UNL1        0.0010
     22  C         15.2210  -24.0750   -5.6140 C.2     1  UNL1        0.0010
     23  C         16.3830  -24.0120   -6.3810 C.2     1  UNL1        0.0130
     24  S         24.8640  -21.8820  -15.0780 S.O2    1  UNL1        0.2630
     25  O         25.5150  -23.1560  -15.3000 O.2     1  UNL1       -0.2000
     26  O         24.0760  -21.2620  -16.1220 O.2     1  UNL1       -0.2000
     27  N         26.0820  -20.8220  -14.5740 N.pl3   1  UNL1       -0.2810
     28  H         26.8910  -21.3440  -14.2410 H       1  UNL1        0.1790
     29  C         26.3360  -19.6750  -15.3750 C.2     1  UNL1        0.0420
     30  C         26.3690  -19.7870  -16.7630 C.2     1  UNL1        0.0300
     31  C         26.5820  -18.6490  -17.5460 C.2     1  UNL1        0.0090
     32  C         26.7680  -17.3980  -16.9450 C.2     1  UNL1       -0.0620
     33  C         26.9560  -16.1710  -17.7880 C.3     1  UNL1        0.0480
     34  C         26.7110  -17.2960  -15.5500 C.2     1  UNL1        0.0090
     35  C         26.4980  -18.4330  -14.7670 C.2     1  UNL1        0.0300
@<TRIPOS>BOND
     1    33    32    1
     2    31    32    2
     3    31    30    1
     4    32    34    1
     5    30    29    2
     6    26    24    2
     7    34    35    2
     8    29    35    1
     9    29    27    1
    10    25    24    2
    11    24    27    1
    12    24     1    1
    13    27    28    1
    14     1     6    2
    15     1     2    1
    16     6     5    1
    17     2     3    2
    18     5     4    2
    19     3     4    1
    20     4     7    1
    21     7    10    1
    22     7     8   am
    23     8     9    2
    24     8    11    1
    25    11    12    2
    26    11    17    1
    27    12    13    1
    28    17    14    1
    29    13    14    2
    30    13    15    1
    31    14    16    1
    32    23    15    2
    33    23    22    1
    34    15    19    1
    35    22    21    2
    36    16    18    2
    37    19    18    1
    38    19    20    2
    39    21    20    1
