@<TRIPOS>MOLECULE
50048_out_ligand_01.pdbqt
 31 34 0 0 0
SMALL
GASTEIGER

@<TRIPOS>ATOM
      1  C         24.2610  -22.1100  -13.0960 C.2     1  UNL1        0.0540
      2  C         25.3810  -21.8600  -13.9040 C.2     1  UNL1        0.0190
      3  C         26.6010  -22.4810  -13.6240 C.2     1  UNL1        0.0010
      4  C         26.7080  -23.3620  -12.5490 C.2     1  UNL1        0.0020
      5  C         25.5950  -23.6280  -11.7490 C.2     1  UNL1        0.0250
      6  C         24.3690  -23.0150  -12.0230 C.2     1  UNL1        0.0380
      7  N         23.2650  -23.2660  -11.1390 N.pl3   1  UNL1       -0.1800
      8  H         22.3740  -22.8710  -11.4790 H       1  UNL1        0.1460
      9  S         23.4630  -22.7820   -9.5230 S.O2    1  UNL1        0.2450
     10  O         24.4710  -23.6100   -8.8950 O.2     1  UNL1       -0.2060
     11  O         23.5670  -21.3380   -9.5230 O.2     1  UNL1       -0.2060
     12  C         21.8830  -23.1770   -8.8180 C.2     1  UNL1        0.0750
     13  C         21.2790  -24.3930   -9.1430 C.2     1  UNL1        0.0260
     14  C         20.0420  -24.7170   -8.5840 C.2     1  UNL1        0.0140
     15  C         19.4000  -23.8290   -7.7030 C.2     1  UNL1       -0.0260
     16  C         18.1560  -24.1430   -7.1310 C.2     1  UNL1        0.0120
     17  C         20.0160  -22.5930   -7.3840 C.2     1  UNL1       -0.0250
     18  C         17.5280  -23.2510   -6.2580 C.2     1  UNL1        0.0010
     19  C         18.1340  -22.0360   -5.9460 C.2     1  UNL1        0.0010
     20  C         19.3700  -21.7090   -6.5050 C.2     1  UNL1        0.0120
     21  C         21.2580  -22.2750   -7.9520 C.2     1  UNL1        0.0370
     22  C         22.9470  -21.4750  -13.3920 C.2     1  UNL1        0.2530
     23  O         22.8100  -20.8150  -14.4200 O.2     1  UNL1       -0.2680
     24  N         21.9340  -21.6790  -12.4850 N.am    1  UNL1       -0.3540
     25  H         22.0900  -22.1900  -11.6230 H       1  UNL1        0.1620
     26  C         20.6440  -21.0260  -12.6200 C.3     1  UNL1        0.1550
     27  C         19.8880  -21.0250  -11.2850 C.3     1  UNL1        0.1390
     28  C         19.1770  -22.3410  -11.0090 C.3     1  UNL1        0.0350
     29  C         17.8070  -22.1080  -11.5950 C.3     1  UNL1        0.0290
     30  C         17.5770  -20.6460  -11.2860 C.3     1  UNL1        0.1680
     31  O         18.8590  -20.0060  -11.3360 O.3     1  UNL1       -0.3840
@<TRIPOS>BOND
     1    23    22    2
     2     2     3    1
     3     2     1    2
     4     3     4    2
     5    22     1    1
     6    22    24   am
     7     1     6    1
     8    26    24    1
     9    26    27    1
    10     4     5    1
    11    24    25    1
    12     6     5    2
    13     6     7    1
    14    29    30    1
    15    29    28    1
    16     8     7    1
    17    31    30    1
    18    31    27    1
    19    27    28    1
    20     7     9    1
    21     9    11    2
    22     9    10    2
    23     9    12    1
    24    13    12    2
    25    13    14    1
    26    12    21    1
    27    14    15    2
    28    21    17    2
    29    15    17    1
    30    15    16    1
    31    17    20    1
    32    16    18    2
    33    20    19    2
    34    18    19    1
