@<TRIPOS>MOLECULE
50041_out_ligand_01.pdbqt
 32 34 0 0 0
SMALL
GASTEIGER

@<TRIPOS>ATOM
      1  C         16.6480  -22.2470   -9.7580 C.3     1  UNL1        0.0500
      2  C         18.0250  -22.0630  -10.3310 C.2     1  UNL1       -0.0390
      3  C         18.1410  -21.6070  -11.6550 C.2     1  UNL1        0.0090
      4  C         19.3930  -21.4310  -12.2500 C.2     1  UNL1        0.0170
      5  C         20.5600  -21.7160  -11.5360 C.2     1  UNL1        0.0330
      6  C         20.4670  -22.1410  -10.2080 C.2     1  UNL1        0.0420
      7  C         19.2080  -22.3170   -9.6080 C.2     1  UNL1        0.0810
      8  S         19.1780  -22.9010   -7.9150 S.O2    1  UNL1        0.2460
      9  O         20.4400  -22.5210   -7.3100 O.2     1  UNL1       -0.2060
     10  O         18.7350  -24.2770   -7.9370 O.2     1  UNL1       -0.2060
     11  N         17.9890  -21.8870   -7.2330 N.pl3   1  UNL1       -0.1810
     12  H         18.2870  -20.9190   -7.3470 H       1  UNL1        0.1460
     13  C         17.6750  -22.1940   -5.8630 C.2     1  UNL1        0.0290
     14  C         18.4490  -21.5560   -4.8880 C.2     1  UNL1        0.0250
     15  C         18.1810  -21.7460   -3.5370 C.2     1  UNL1        0.0020
     16  C         17.1190  -22.5590   -3.1540 C.2     1  UNL1        0.0070
     17  C         16.3110  -23.1890   -4.1150 C.2     1  UNL1       -0.0540
     18  C         15.1520  -24.0290   -3.6390 C.3     1  UNL1        0.0490
     19  C         16.5970  -23.0250   -5.4940 C.2     1  UNL1       -0.0340
     20  C         15.7060  -23.6840   -6.5170 C.3     1  UNL1        0.0500
     21  C         21.8720  -21.5360  -12.2210 C.2     1  UNL1        0.2520
     22  O         21.9090  -21.0760  -13.3570 O.2     1  UNL1       -0.2680
     23  N         22.9900  -21.9420  -11.5190 N.am    1  UNL1       -0.3520
     24  H         22.8590  -22.5210  -10.7000 H       1  UNL1        0.1630
     25  C         24.3190  -21.9850  -12.1430 C.3     1  UNL1        0.0840
     26  C         24.5880  -23.4270  -12.6160 C.3     1  UNL1        0.0250
     27  C         26.0200  -23.8640  -12.9100 C.3     1  UNL1        0.0020
     28  C         26.7710  -23.1490  -14.0340 C.3     1  UNL1        0.0000
     29  C         26.6170  -21.6390  -14.1860 C.3     1  UNL1        0.0000
     30  C         27.0590  -20.7510  -13.0220 C.3     1  UNL1        0.0000
     31  C         26.7880  -21.2100  -11.5940 C.3     1  UNL1        0.0020
     32  C         25.3300  -21.3820  -11.1590 C.3     1  UNL1        0.0250
@<TRIPOS>BOND
     1    29    28    1
     2    29    30    1
     3    28    27    1
     4    22    21    2
     5    30    31    1
     6    27    26    1
     7    26    25    1
     8     4     3    1
     9     4     5    2
    10    21     5    1
    11    21    23   am
    12    25    23    1
    13    25    32    1
    14     3     2    2
    15    31    32    1
    16     5     6    1
    17    23    24    1
    18     2     1    1
    19     2     7    1
    20     6     7    2
    21     7     8    1
    22    10     8    2
    23     8     9    2
    24     8    11    1
    25    12    11    1
    26    11    13    1
    27    20    19    1
    28    13    19    2
    29    13    14    1
    30    19    17    1
    31    14    15    2
    32    17    18    1
    33    17    16    2
    34    15    16    1
