@<TRIPOS>MOLECULE
50046_out_ligand_01.pdbqt
 36 40 0 0 0
SMALL
GASTEIGER

@<TRIPOS>ATOM
      1  C         23.8520  -21.9190  -13.4200 C.2     1  UNL1        0.0800
      2  C         22.5060  -21.5580  -13.4610 C.2     1  UNL1        0.0270
      3  C         21.7290  -21.6770  -12.3040 C.2     1  UNL1        0.0310
      4  C         22.2850  -22.1610  -11.1120 C.2     1  UNL1        0.0350
      5  C         23.6320  -22.5340  -11.0940 C.2     1  UNL1        0.0310
      6  C         24.4170  -22.4180  -12.2460 C.2     1  UNL1        0.0270
      7  N         21.4310  -22.2430   -9.9970 N.am    1  UNL1       -0.3210
      8  C         21.3340  -23.2550   -9.0580 C.2     1  UNL1        0.2800
      9  O         22.0030  -24.2820   -9.0450 O.2     1  UNL1       -0.2650
     10  H         20.8000  -21.4640   -9.8410 H       1  UNL1        0.1690
     11  C         20.3280  -22.9810   -8.0470 C.2     1  UNL1        0.1440
     12  C         19.1320  -23.6110   -7.7630 C.2     1  UNL1        0.0580
     13  C         18.5440  -22.9220   -6.6650 C.2     1  UNL1        0.0120
     14  C         19.4360  -21.9040   -6.3500 C.2     1  UNL1        0.0870
     15  C         17.3550  -23.0400   -5.8940 C.2     1  UNL1       -0.0130
     16  C         19.2480  -20.9830   -5.3240 C.2     1  UNL1        0.0390
     17  O         20.5140  -21.9350   -7.1800 O.2     1  UNL1       -0.3040
     18  C         18.0740  -21.1110   -4.5720 C.2     1  UNL1        0.0150
     19  C         17.1310  -22.1170   -4.8390 C.2     1  UNL1       -0.0250
     20  C         15.9560  -22.2370   -4.0810 C.2     1  UNL1        0.0120
     21  C         15.0250  -23.2430   -4.3560 C.2     1  UNL1        0.0010
     22  C         15.2510  -24.1470   -5.3920 C.2     1  UNL1        0.0010
     23  C         16.4100  -24.0510   -6.1620 C.2     1  UNL1        0.0130
     24  S         24.8540  -21.7710  -14.8770 S.O2    1  UNL1        0.2630
     25  O         25.5680  -23.0200  -15.0430 O.2     1  UNL1       -0.2000
     26  O         24.0470  -21.2260  -15.9480 O.2     1  UNL1       -0.2000
     27  N         26.0130  -20.6280  -14.4120 N.pl3   1  UNL1       -0.2810
     28  H         26.7860  -21.0820  -13.9270 H       1  UNL1        0.1790
     29  C         26.3280  -19.5900  -15.3310 C.2     1  UNL1        0.0440
     30  C         26.3300  -19.8530  -16.6990 C.2     1  UNL1        0.0310
     31  C         26.5920  -18.8230  -17.6050 C.2     1  UNL1        0.0110
     32  C         26.8460  -17.5190  -17.1530 C.2     1  UNL1       -0.0400
     33  C         27.1180  -16.4300  -18.1530 C.3     1  UNL1        0.0500
     34  C         26.8290  -17.2720  -15.7710 C.2     1  UNL1        0.0420
     35  C         26.5700  -18.3020  -14.8640 C.2     1  UNL1        0.0540
     36 CL         27.1180  -15.6910  -15.1330 Cl      1  UNL1       -0.0840
@<TRIPOS>BOND
     1    33    32    1
     2    31    32    2
     3    31    30    1
     4    32    34    1
     5    30    29    2
     6    26    24    2
     7    34    36    1
     8    34    35    2
     9    29    35    1
    10    29    27    1
    11    25    24    2
    12    24    27    1
    13    24     1    1
    14    27    28    1
    15     2     1    2
    16     2     3    1
    17     1     6    1
    18     3     4    2
    19     6     5    2
    20     4     5    1
    21     4     7    1
    22     7    10    1
    23     7     8   am
    24     8     9    2
    25     8    11    1
    26    11    12    2
    27    11    17    1
    28    12    13    1
    29    17    14    1
    30    13    14    2
    31    13    15    1
    32    14    16    1
    33    23    15    2
    34    23    22    1
    35    15    19    1
    36    22    21    2
    37    16    18    2
    38    19    18    1
    39    19    20    2
    40    21    20    1
