@<TRIPOS>MOLECULE
50059_out_ligand_01.pdbqt
 34 36 0 0 0
SMALL
GASTEIGER

@<TRIPOS>ATOM
      1  C         17.6380  -23.4670   -8.7280 C.2     1  UNL1        0.1020
      2  C         19.0390  -23.5990   -8.7700 C.2     1  UNL1        0.0440
      3  C         19.7850  -22.9590   -9.7650 C.2     1  UNL1        0.0340
      4  C         19.1340  -22.1970  -10.7360 C.2     1  UNL1        0.0190
      5  C         17.7430  -22.0650  -10.6930 C.2     1  UNL1        0.0260
      6  C         16.9860  -22.6920   -9.6910 C.2     1  UNL1        0.0570
      7 CL         15.2800  -22.4660   -9.7980 Cl      1  UNL1       -0.0830
      8  C         21.2610  -23.1510   -9.7860 C.2     1  UNL1        0.2560
      9  O         21.7400  -23.9620   -9.0050 O.2     1  UNL1       -0.2670
     10  N         21.9360  -22.3530  -10.6910 N.am    1  UNL1       -0.3230
     11  H         21.3980  -21.6490  -11.1780 H       1  UNL1        0.1690
     12  C         23.3250  -22.3420  -10.9520 C.2     1  UNL1        0.0370
     13  C         24.2200  -21.4440  -10.3660 C.2     1  UNL1        0.0290
     14  C         25.5810  -21.4880  -10.6870 C.2     1  UNL1        0.0050
     15  C         26.0570  -22.4380  -11.5860 C.2     1  UNL1        0.0370
     16  C         25.1780  -23.3580  -12.1470 C.2     1  UNL1        0.0710
     17  C         23.8130  -23.2990  -11.8510 C.2     1  UNL1        0.0660
     18  O         25.6990  -24.2470  -13.0460 O.2     1  UNL1       -0.3470
     19  C         25.3600  -23.9660  -14.4120 C.3     1  UNL1        0.1200
     20  C         26.5050  -23.1730  -15.0340 C.3     1  UNL1        0.0400
     21  C         25.1830  -25.3030  -15.1270 C.3     1  UNL1        0.0400
     22  S         16.7970  -24.2760   -7.3920 S.O2    1  UNL1        0.2650
     23  O         17.7220  -25.0390   -6.5880 O.2     1  UNL1       -0.2000
     24  O         15.6450  -24.9410   -7.9690 O.2     1  UNL1       -0.2000
     25  N         16.1620  -22.9900   -6.5040 N.pl3   1  UNL1       -0.2800
     26  H         15.1620  -23.1040   -6.3370 H       1  UNL1        0.1790
     27  C         16.9420  -22.4110   -5.4670 C.2     1  UNL1        0.0490
     28  C         16.6720  -22.6510   -4.1130 C.2     1  UNL1       -0.0350
     29  C         17.5280  -22.0880   -3.1530 C.2     1  UNL1        0.0090
     30  C         15.5520  -23.5350   -3.6460 C.3     1  UNL1        0.0500
     31  C         18.6030  -21.2810   -3.5330 C.2     1  UNL1        0.0070
     32  C         18.8430  -21.0100   -4.8820 C.2     1  UNL1       -0.0600
     33  C         20.0140  -20.1700   -5.2960 C.3     1  UNL1        0.0480
     34  C         18.0120  -21.5910   -5.8450 C.2     1  UNL1        0.0370
@<TRIPOS>BOND
     1    21    19    1
     2    20    19    1
     3    19    18    1
     4    18    16    1
     5    16    17    1
     6    16    15    2
     7    17    12    2
     8    15    14    1
     9    11    10    1
    10    12    10    1
    11    12    13    1
    12     4     5    2
    13     4     3    1
    14     5     6    1
    15    10     8   am
    16    14    13    2
    17     7     6    1
    18     8     3    1
    19     8     9    2
    20     3     2    2
    21     6     1    2
    22     2     1    1
    23     1    22    1
    24    24    22    2
    25    22    23    2
    26    22    25    1
    27    25    26    1
    28    25    27    1
    29    34    27    2
    30    34    32    1
    31    27    28    1
    32    33    32    1
    33    32    31    2
    34    28    30    1
    35    28    29    2
    36    31    29    1
