@<TRIPOS>MOLECULE
50058_out_ligand_01.pdbqt
 42 45 0 0 0
SMALL
GASTEIGER

@<TRIPOS>ATOM
      1  N         20.7110  -22.9890  -10.1830 N.pl3   1  UNL1       -0.2630
      2  S         20.8110  -24.1000   -8.9090 S.O2    1  UNL1        0.2650
      3  O         20.2160  -25.3430   -9.3620 O.2     1  UNL1       -0.2000
      4  O         22.1670  -24.0940   -8.3980 O.2     1  UNL1       -0.2000
      5  C         19.7810  -23.4410   -7.6150 C.2     1  UNL1        0.0800
      6  C         19.9890  -22.1460   -7.1370 C.2     1  UNL1        0.0260
      7  C         19.1330  -21.6190   -6.1680 C.2     1  UNL1        0.0080
      8  C         18.0550  -22.3720   -5.6850 C.2     1  UNL1       -0.0620
      9  C         17.1180  -21.8050   -4.6580 C.3     1  UNL1        0.0480
     10  C         17.8330  -23.6570   -6.1990 C.2     1  UNL1        0.0080
     11  C         18.6880  -24.1890   -7.1660 C.2     1  UNL1        0.0260
     12  C         21.7870  -22.9720  -11.1950 C.3     1  UNL1        0.2450
     13  C         22.8040  -21.8490  -11.0710 C.2     1  UNL1        0.2410
     14  O         22.7440  -21.0270  -10.1600 O.2     1  UNL1       -0.2710
     15  N         23.7880  -21.9010  -12.0440 N.am    1  UNL1       -0.3250
     16  H         23.7790  -22.7120  -12.6700 H       1  UNL1        0.1690
     17  C         24.8910  -21.0340  -12.2410 C.2     1  UNL1        0.0500
     18  C         25.6290  -20.5150  -11.1700 C.2     1  UNL1        0.0300
     19  C         26.7290  -19.6830  -11.3900 C.2     1  UNL1        0.0020
     20  C         27.1200  -19.3670  -12.6860 C.2     1  UNL1        0.0010
     21  C         26.3970  -19.8630  -13.7680 C.2     1  UNL1        0.0190
     22  C         25.2650  -20.6750  -13.5620 C.2     1  UNL1        0.0580
     23  C         24.4880  -21.1870  -14.7390 C.2     1  UNL1        0.2540
     24  O         23.3950  -20.6980  -15.0140 O.2     1  UNL1       -0.2680
     25  N         25.0670  -22.1880  -15.4940 N.am    1  UNL1       -0.3540
     26  H         26.0590  -22.3540  -15.4030 H       1  UNL1        0.1620
     27  C         24.4330  -22.6930  -16.7030 C.3     1  UNL1        0.1550
     28  C         24.7830  -21.9190  -17.9860 C.3     1  UNL1        0.1390
     29  C         26.2200  -21.3990  -18.0130 C.3     1  UNL1        0.0350
     30  C         26.0770  -19.9680  -17.5500 C.3     1  UNL1        0.0290
     31  C         24.7450  -19.5870  -18.1530 C.3     1  UNL1        0.1680
     32  O         23.9250  -20.7580  -18.0670 O.3     1  UNL1       -0.3840
     33  C         19.4560  -22.3760  -10.4800 C.2     1  UNL1        0.0460
     34  C         19.3730  -21.3040  -11.3700 C.2     1  UNL1        0.0300
     35  C         18.1350  -20.7280  -11.6580 C.2     1  UNL1        0.0030
     36  C         16.9770  -21.2220  -11.0580 C.2     1  UNL1        0.0160
     37  C         17.0450  -22.2980  -10.1590 C.2     1  UNL1        0.0500
     38  C         18.2950  -22.8760   -9.8850 C.2     1  UNL1        0.0460
     39  C         15.7910  -22.8460   -9.5240 C.3     1  UNL1        0.4170
     40  F         14.6680  -22.5010  -10.2120 F       1  UNL1       -0.1660
     41  F         15.6020  -22.3930   -8.2520 F       1  UNL1       -0.1660
     42  F         15.7810  -24.2040   -9.4370 F       1  UNL1       -0.1660
@<TRIPOS>BOND
     1    31    32    1
     2    31    30    1
     3    32    28    1
     4    29    28    1
     5    29    30    1
     6    28    27    1
     7    27    25    1
     8    25    26    1
     9    25    23   am
    10    24    23    2
    11    23    22    1
    12    21    22    1
    13    21    20    2
    14    22    17    2
    15    20    19    1
    16    16    15    1
    17    17    15    1
    18    17    18    1
    19    15    13   am
    20    35    34    1
    21    35    36    2
    22    19    18    2
    23    34    33    2
    24    12    13    1
    25    12     1    1
    26    13    14    2
    27    36    37    1
    28    33     1    1
    29    33    38    1
    30    40    39    1
    31     1     2    1
    32    37    38    2
    33    37    39    1
    34    39    42    1
    35    39    41    1
    36     3     2    2
    37     2     4    2
    38     2     5    1
    39     5    11    2
    40     5     6    1
    41    11    10    1
    42     6     7    2
    43    10     8    2
    44     7     8    1
    45     8     9    1
