@<TRIPOS>MOLECULE
50057_out_ligand_01.pdbqt
 37 42 0 0 0
SMALL
GASTEIGER

@<TRIPOS>ATOM
      1  O         22.1170  -21.7950   -7.9940 O.2     1  UNL1       -0.2670
      2  C         21.1330  -22.3510   -8.4690 C.2     1  UNL1        0.2560
      3  N         20.8960  -22.6460   -9.7990 N.am    1  UNL1       -0.3230
      4  H         19.9720  -22.9790  -10.0360 H       1  UNL1        0.1690
      5  C         20.0290  -22.7290   -7.5450 C.2     1  UNL1        0.0320
      6  C         19.5750  -21.8540   -6.5480 C.2     1  UNL1        0.0190
      7  C         18.5380  -22.2460   -5.6960 C.2     1  UNL1        0.0250
      8  C         17.9490  -23.5020   -5.8530 C.2     1  UNL1        0.0220
      9  C         18.3980  -24.3760   -6.8410 C.2     1  UNL1        0.0250
     10  C         19.4280  -23.9850   -7.6980 C.2     1  UNL1        0.0190
     11  N         16.9290  -23.9460   -4.9510 N.pl3   1  UNL1       -0.1810
     12  H         16.9050  -24.9670   -4.9100 H       1  UNL1        0.1460
     13  S         15.3550  -23.4500   -5.3990 S.O2    1  UNL1        0.2450
     14  O         14.3970  -24.4870   -5.0880 O.2     1  UNL1       -0.2060
     15  O         15.2090  -22.0960   -4.9030 O.2     1  UNL1       -0.2060
     16  C         15.5240  -23.3840   -7.1640 C.2     1  UNL1        0.0740
     17  C         15.3280  -24.5350   -7.9320 C.2     1  UNL1        0.0250
     18  C         15.4800  -24.4660   -9.3170 C.2     1  UNL1        0.0020
     19  C         15.8320  -23.2590   -9.9240 C.2     1  UNL1        0.0000
     20  C         16.0380  -22.1150   -9.1490 C.2     1  UNL1        0.0020
     21  C         15.8870  -22.1740   -7.7650 C.2     1  UNL1        0.0250
     22  C         21.7610  -22.4240  -10.8900 C.2     1  UNL1        0.0350
     23  C         22.9980  -23.0730  -10.8720 C.2     1  UNL1        0.0300
     24  C         23.9160  -22.9090  -11.9190 C.2     1  UNL1        0.0100
     25  C         23.6280  -22.0880  -13.0180 C.2     1  UNL1       -0.0490
     26  C         22.3820  -21.4350  -13.0140 C.2     1  UNL1        0.0100
     27  C         21.4630  -21.5980  -11.9690 C.2     1  UNL1        0.0300
     28  C         24.6030  -21.8840  -14.1890 C.3     1  UNL1       -0.0120
     29  C         24.1740  -22.6120  -15.5010 C.3     1  UNL1        0.0190
     30  C         25.1830  -22.3760  -16.6380 C.3     1  UNL1       -0.0130
     31  C         26.5590  -22.9070  -16.2090 C.3     1  UNL1        0.0090
     32  C         25.2820  -20.8710  -16.9220 C.3     1  UNL1        0.0090
     33  C         27.0270  -22.1780  -14.9410 C.3     1  UNL1       -0.0130
     34  C         27.1170  -20.6700  -15.2250 C.3     1  UNL1        0.0090
     35  C         26.0140  -22.4210  -13.8080 C.3     1  UNL1        0.0190
     36  C         25.7430  -20.1310  -15.6590 C.3     1  UNL1       -0.0130
     37  C         24.7260  -20.3690  -14.5270 C.3     1  UNL1        0.0190
@<TRIPOS>BOND
     1    32    30    1
     2    32    36    1
     3    30    31    1
     4    30    29    1
     5    31    33    1
     6    36    34    1
     7    36    37    1
     8    29    28    1
     9    34    33    1
    10    33    35    1
    11    37    28    1
    12    28    35    1
    13    28    25    1
    14    25    26    2
    15    25    24    1
    16    26    27    1
    17    27    22    2
    18    24    23    2
    19    22    23    1
    20    22     3    1
    21     4     3    1
    22    19    18    2
    23    19    20    1
    24     3     2   am
    25    18    17    1
    26    20    21    2
    27     2     1    2
    28     2     5    1
    29    17    16    2
    30    21    16    1
    31    10     5    2
    32    10     9    1
    33     5     6    1
    34    16    13    1
    35     9     8    2
    36     6     7    2
    37     8     7    1
    38     8    11    1
    39    13    14    2
    40    13    11    1
    41    13    15    2
    42    11    12    1
