@<TRIPOS>MOLECULE
50067_out_ligand_01.pdbqt
 36 40 0 0 0
SMALL
GASTEIGER

@<TRIPOS>ATOM
      1  C         23.9320  -22.0930  -13.7180 C.2     1  UNL1        0.0800
      2  C         22.6770  -21.4870  -13.6810 C.2     1  UNL1        0.0270
      3  C         21.9040  -21.5750  -12.5200 C.2     1  UNL1        0.0310
      4  C         22.3700  -22.2730  -11.3960 C.2     1  UNL1        0.0350
      5  C         23.6190  -22.8980  -11.4610 C.2     1  UNL1        0.0310
      6  C         24.3980  -22.8170  -12.6200 C.2     1  UNL1        0.0270
      7  N         21.5230  -22.3040  -10.2680 N.am    1  UNL1       -0.3210
      8  C         21.5040  -23.2420   -9.2430 C.2     1  UNL1        0.2800
      9  O         22.2850  -24.1850   -9.1590 O.2     1  UNL1       -0.2650
     10  H         20.8850  -21.5270  -10.1840 H       1  UNL1        0.1690
     11  C         20.4720  -23.0020   -8.2410 C.2     1  UNL1        0.1440
     12  C         19.2500  -23.5940   -7.9630 C.2     1  UNL1        0.0580
     13  C         18.6880  -22.9110   -6.8430 C.2     1  UNL1        0.0120
     14  C         19.6180  -21.9380   -6.5070 C.2     1  UNL1        0.0870
     15  C         17.4990  -23.0040   -6.0700 C.2     1  UNL1       -0.0130
     16  C         19.4700  -21.0350   -5.4580 C.2     1  UNL1        0.0390
     17  O         20.6870  -21.9920   -7.3410 O.2     1  UNL1       -0.3040
     18  C         18.2950  -21.1350   -4.7050 C.2     1  UNL1        0.0150
     19  C         17.3130  -22.0990   -4.9920 C.2     1  UNL1       -0.0250
     20  C         16.1390  -22.1920   -4.2300 C.2     1  UNL1        0.0120
     21  C         15.1690  -23.1550   -4.5220 C.2     1  UNL1        0.0010
     22  C         15.3560  -24.0420   -5.5800 C.2     1  UNL1        0.0010
     23  C         16.5140  -23.9730   -6.3550 C.2     1  UNL1        0.0130
     24  S         24.9220  -21.9940  -15.1930 S.O2    1  UNL1        0.2630
     25  O         25.3500  -23.3380  -15.5200 O.2     1  UNL1       -0.2000
     26  O         24.2050  -21.1860  -16.1570 O.2     1  UNL1       -0.2000
     27  N         26.3060  -21.1770  -14.6790 N.pl3   1  UNL1       -0.2800
     28  H         26.5980  -21.4630  -13.7470 H       1  UNL1        0.1790
     29  C         26.5240  -19.8240  -15.0710 C.2     1  UNL1        0.0480
     30  C         26.3930  -19.4690  -16.4160 C.2     1  UNL1        0.0310
     31  C         26.5750  -18.1450  -16.8200 C.2     1  UNL1        0.0090
     32  C         26.8870  -17.1580  -15.8820 C.2     1  UNL1       -0.0610
     33  C         27.1200  -15.7410  -16.3170 C.3     1  UNL1        0.0480
     34  C         27.0450  -17.5230  -14.5380 C.2     1  UNL1        0.0150
     35  C         26.8630  -18.8520  -14.1170 C.2     1  UNL1       -0.0340
     36  C         27.0520  -19.1880  -12.6630 C.3     1  UNL1        0.0500
@<TRIPOS>BOND
     1    31    30    1
     2    31    32    2
     3    30    29    2
     4    33    32    1
     5    26    24    2
     6    32    34    1
     7    25    24    2
     8    24    27    1
     9    24     1    1
    10    29    27    1
    11    29    35    1
    12    27    28    1
    13    34    35    2
    14    35    36    1
    15     1     2    2
    16     1     6    1
    17     2     3    1
    18     6     5    2
    19     3     4    2
    20     5     4    1
    21     4     7    1
    22     7    10    1
    23     7     8   am
    24     8     9    2
    25     8    11    1
    26    11    12    2
    27    11    17    1
    28    12    13    1
    29    17    14    1
    30    13    14    2
    31    13    15    1
    32    14    16    1
    33    23    15    2
    34    23    22    1
    35    15    19    1
    36    22    21    2
    37    16    18    2
    38    19    18    1
    39    19    20    2
    40    21    20    1
