@<TRIPOS>MOLECULE
50068_out_ligand_01.pdbqt
 38 43 0 0 0
SMALL
GASTEIGER

@<TRIPOS>ATOM
      1  C         19.8140  -22.1030  -11.2190 C.2     1  UNL1        0.0350
      2  C         19.9260  -23.1120  -10.2480 C.2     1  UNL1        0.0310
      3  C         18.8200  -23.5010   -9.4880 C.2     1  UNL1        0.0270
      4  C         17.5890  -22.8800   -9.7010 C.2     1  UNL1        0.0800
      5  C         17.4650  -21.8600  -10.6430 C.2     1  UNL1        0.0270
      6  C         18.5770  -21.4800  -11.4040 C.2     1  UNL1        0.0310
      7  N         20.9830  -21.7780  -11.9390 N.am    1  UNL1       -0.3210
      8  C         22.2800  -22.2240  -11.7070 C.2     1  UNL1        0.2800
      9  O         22.5980  -22.9560  -10.7750 O.2     1  UNL1       -0.2650
     10  H         20.8600  -21.1170  -12.6900 H       1  UNL1        0.1690
     11  C         23.2570  -21.7270  -12.6670 C.2     1  UNL1        0.1440
     12  C         23.2650  -21.5940  -14.0470 C.2     1  UNL1        0.0580
     13  C         24.5250  -21.0370  -14.4160 C.2     1  UNL1        0.0120
     14  C         25.2120  -20.8670  -13.2230 C.2     1  UNL1        0.0870
     15  C         25.1700  -20.6560  -15.6260 C.2     1  UNL1       -0.0130
     16  C         26.4970  -20.3430  -13.1210 C.2     1  UNL1        0.0390
     17  O         24.4560  -21.2800  -12.1750 O.2     1  UNL1       -0.3040
     18  C         27.1210  -19.9710  -14.3180 C.2     1  UNL1        0.0150
     19  C         26.4830  -20.1180  -15.5600 C.2     1  UNL1       -0.0250
     20  C         27.1160  -19.7430  -16.7540 C.2     1  UNL1        0.0120
     21  C         26.4720  -19.8940  -17.9850 C.2     1  UNL1        0.0010
     22  C         25.1840  -20.4230  -18.0450 C.2     1  UNL1        0.0010
     23  C         24.5300  -20.8040  -16.8740 C.2     1  UNL1        0.0130
     24  S         16.1850  -23.3590   -8.7240 S.O2    1  UNL1        0.2630
     25  O         15.6020  -22.1440   -8.1920 O.2     1  UNL1       -0.2000
     26  O         15.3860  -24.2940   -9.4830 O.2     1  UNL1       -0.2000
     27  N         16.9000  -24.1370   -7.4070 N.pl3   1  UNL1       -0.2800
     28  H         17.8320  -24.4750   -7.6380 H       1  UNL1        0.1790
     29  C         16.7200  -23.5660   -6.1080 C.2     1  UNL1        0.0530
     30  C         15.6320  -24.0160   -5.3540 C.2     1  UNL1        0.0310
     31  C         15.3940  -23.4890   -4.0900 C.2     1  UNL1        0.0030
     32  C         16.2430  -22.5110   -3.5760 C.2     1  UNL1        0.0120
     33  C         17.3400  -22.0430   -4.3160 C.2     1  UNL1       -0.0240
     34  C         18.1860  -21.0560   -3.7830 C.2     1  UNL1        0.0120
     35  C         17.5910  -22.5640   -5.6100 C.2     1  UNL1        0.0010
     36  C         19.2740  -20.5740   -4.5090 C.2     1  UNL1        0.0010
     37  C         19.5290  -21.0700   -5.7810 C.2     1  UNL1        0.0010
     38  C         18.6990  -22.0520   -6.3260 C.2     1  UNL1        0.0140
@<TRIPOS>BOND
     1    22    21    1
     2    22    23    2
     3    21    20    2
     4    23    15    1
     5    20    19    1
     6    15    19    1
     7    15    13    2
     8    19    18    2
     9    13    12    1
    10    13    14    1
    11    18    16    1
    12    12    11    2
    13    14    16    2
    14    14    17    1
    15    10     7    1
    16    11    17    1
    17    11     8    1
    18     7     8   am
    19     7     1    1
    20     8     9    2
    21     6     1    2
    22     6     5    1
    23     1     2    1
    24     5     4    2
    25     2     3    2
    26     4     3    1
    27     4    24    1
    28    26    24    2
    29    24    25    2
    30    24    27    1
    31    28    27    1
    32    27    29    1
    33    38    37    2
    34    38    35    1
    35    29    35    2
    36    29    30    1
    37    37    36    1
    38    35    33    1
    39    30    31    2
    40    36    34    2
    41    33    34    1
    42    33    32    2
    43    31    32    1
