@<TRIPOS>MOLECULE
50063_out_ligand_01.pdbqt
 36 40 0 0 0
SMALL
GASTEIGER

@<TRIPOS>ATOM
      1  C         17.8970  -23.7840   -8.4420 C.2     1  UNL1        0.0800
      2  C         17.6340  -22.9490   -9.5290 C.2     1  UNL1        0.0270
      3  C         18.6820  -22.5460  -10.3640 C.2     1  UNL1        0.0310
      4  C         19.9940  -22.9600  -10.1120 C.2     1  UNL1        0.0350
      5  C         20.2460  -23.7720   -8.9970 C.2     1  UNL1        0.0310
      6  C         19.2040  -24.1830   -8.1600 C.2     1  UNL1        0.0270
      7  N         21.1050  -22.5990  -10.9030 N.am    1  UNL1       -0.3210
      8  C         22.2920  -22.0090  -10.4850 C.2     1  UNL1        0.2800
      9  O         22.5170  -21.6640   -9.3280 O.2     1  UNL1       -0.2650
     10  H         21.0020  -22.7550  -11.8950 H       1  UNL1        0.1690
     11  C         23.2620  -21.8060  -11.5550 C.2     1  UNL1        0.1440
     12  C         23.2510  -22.0530  -12.9190 C.2     1  UNL1        0.0580
     13  C         24.5120  -21.6360  -13.4390 C.2     1  UNL1        0.0120
     14  C         25.2180  -21.1580  -12.3450 C.2     1  UNL1        0.0870
     15  C         25.1430  -21.6080  -14.7140 C.2     1  UNL1       -0.0130
     16  C         26.5110  -20.6470  -12.4030 C.2     1  UNL1        0.0390
     17  O         24.4730  -21.2600  -11.2140 O.2     1  UNL1       -0.3040
     18  C         27.1210  -20.6230  -13.6620 C.2     1  UNL1        0.0150
     19  C         26.4630  -21.0920  -14.8100 C.2     1  UNL1       -0.0250
     20  C         27.0830  -21.0650  -16.0680 C.2     1  UNL1        0.0120
     21  C         26.4190  -21.5350  -17.2050 C.2     1  UNL1        0.0010
     22  C         25.1250  -22.0420  -17.1050 C.2     1  UNL1        0.0010
     23  C         24.4830  -22.0810  -15.8670 C.2     1  UNL1        0.0130
     24  S         16.5640  -24.2950   -7.3830 S.O2    1  UNL1        0.2630
     25  O         17.1240  -25.1510   -6.3590 O.2     1  UNL1       -0.2000
     26  O         15.4760  -24.7480   -8.2230 O.2     1  UNL1       -0.2000
     27  N         16.1190  -22.8660   -6.6040 N.pl3   1  UNL1       -0.2800
     28  H         15.1090  -22.7790   -6.5110 H       1  UNL1        0.1790
     29  C         16.9520  -22.3070   -5.5900 C.2     1  UNL1        0.0500
     30  C         18.0780  -21.5600   -5.9510 C.2     1  UNL1        0.0540
     31  C         18.9080  -21.0330   -4.9650 C.2     1  UNL1        0.0360
     32  C         18.6220  -21.2340   -3.6190 C.2     1  UNL1        0.0240
     33 CL         20.3010  -20.1260   -5.4130 Cl      1  UNL1       -0.0840
     34  C         17.4910  -21.9660   -3.2540 C.2     1  UNL1        0.0110
     35  C         16.6430  -22.5100   -4.2320 C.2     1  UNL1       -0.0350
     36  C         15.4290  -23.2800   -3.7940 C.3     1  UNL1        0.0500
@<TRIPOS>BOND
     1    21    22    1
     2    21    20    2
     3    22    23    2
     4    20    19    1
     5    23    15    1
     6    19    15    1
     7    19    18    2
     8    15    13    2
     9    18    16    1
    10    13    12    1
    11    13    14    1
    12    12    11    2
    13    16    14    2
    14    14    17    1
    15    10     7    1
    16    11    17    1
    17    11     8    1
    18     7     8   am
    19     7     4    1
    20     8     9    2
    21     3     4    2
    22     3     2    1
    23     4     5    1
    24     2     1    2
    25     5     6    2
    26     1     6    1
    27     1    24    1
    28    26    24    2
    29    24    27    1
    30    24    25    2
    31    27    28    1
    32    27    29    1
    33    30    29    2
    34    30    31    1
    35    29    35    1
    36    33    31    1
    37    31    32    2
    38    35    36    1
    39    35    34    2
    40    32    34    1
