@<TRIPOS>MOLECULE
50069_out_ligand_01.pdbqt
 35 39 0 0 0
SMALL
GASTEIGER

@<TRIPOS>ATOM
      1  C         18.0400  -23.6030   -8.5050 C.2     1  UNL1        0.0800
      2  C         17.8710  -22.6210   -9.4830 C.2     1  UNL1        0.0270
      3  C         18.9490  -22.2650  -10.3000 C.2     1  UNL1        0.0310
      4  C         20.1970  -22.8730  -10.1370 C.2     1  UNL1        0.0350
      5  C         20.3570  -23.8380   -9.1320 C.2     1  UNL1        0.0310
      6  C         19.2860  -24.2010   -8.3120 C.2     1  UNL1        0.0270
      7  N         21.3270  -22.5740  -10.9190 N.am    1  UNL1       -0.3210
      8  C         22.5250  -22.0080  -10.5200 C.2     1  UNL1        0.2800
      9  O         22.8000  -21.6520   -9.3790 O.2     1  UNL1       -0.2650
     10  H         21.2740  -22.7910  -11.9090 H       1  UNL1        0.1690
     11  C         23.4630  -21.8590  -11.6180 C.2     1  UNL1        0.1440
     12  C         23.3990  -22.2840  -12.9310 C.2     1  UNL1        0.0580
     13  C         24.6000  -21.8640  -13.5690 C.2     1  UNL1        0.0120
     14  C         25.3260  -21.2030  -12.5860 C.2     1  UNL1        0.0870
     15  C         25.1630  -21.9670  -14.8700 C.2     1  UNL1       -0.0130
     16  C         26.5770  -20.6270  -12.7860 C.2     1  UNL1        0.0390
     17  O         24.6450  -21.1970  -11.4070 O.2     1  UNL1       -0.3040
     18  C         27.1210  -20.7350  -14.0710 C.2     1  UNL1        0.0150
     19  C         26.4390  -21.3900  -15.1100 C.2     1  UNL1       -0.0250
     20  C         26.9910  -21.4940  -16.3960 C.2     1  UNL1        0.0120
     21  C         26.3030  -22.1490  -17.4210 C.2     1  UNL1        0.0010
     22  C         25.0510  -22.7130  -17.1800 C.2     1  UNL1        0.0010
     23  C         24.4780  -22.6250  -15.9120 C.2     1  UNL1        0.0130
     24  S         16.6710  -24.0500   -7.4590 S.O2    1  UNL1        0.2630
     25  O         15.5750  -24.4590   -8.3090 O.2     1  UNL1       -0.2000
     26  O         17.1820  -24.9290   -6.4260 O.2     1  UNL1       -0.2000
     27  N         16.2850  -22.6020   -6.6840 N.pl3   1  UNL1       -0.2800
     28  H         15.2870  -22.4060   -6.7080 H       1  UNL1        0.1790
     29  C         17.0320  -22.1780   -5.5460 C.2     1  UNL1        0.0480
     30  C         18.2060  -21.4410   -5.7290 C.2     1  UNL1        0.0300
     31  C         18.9650  -21.0370   -4.6310 C.2     1  UNL1        0.0020
     32  C         18.5500  -21.3610   -3.3440 C.2     1  UNL1        0.0010
     33  C         17.3720  -22.0850   -3.1530 C.2     1  UNL1        0.0090
     34  C         16.5970  -22.5000   -4.2480 C.2     1  UNL1       -0.0350
     35  C         15.3280  -23.2660   -3.9950 C.3     1  UNL1        0.0500
@<TRIPOS>BOND
     1    21    22    1
     2    21    20    2
     3    22    23    2
     4    20    19    1
     5    23    15    1
     6    19    15    1
     7    19    18    2
     8    15    13    2
     9    18    16    1
    10    13    12    1
    11    13    14    1
    12    12    11    2
    13    16    14    2
    14    14    17    1
    15    10     7    1
    16    11    17    1
    17    11     8    1
    18     7     8   am
    19     7     4    1
    20     8     9    2
    21     3     4    2
    22     3     2    1
    23     4     5    1
    24     2     1    2
    25     5     6    2
    26     1     6    1
    27     1    24    1
    28    25    24    2
    29    24    27    1
    30    24    26    2
    31    28    27    1
    32    27    29    1
    33    30    29    2
    34    30    31    1
    35    29    34    1
    36    31    32    2
    37    34    35    1
    38    34    33    2
    39    32    33    1
