@<TRIPOS>MOLECULE
50064_out_ligand_01.pdbqt
 38 42 0 0 0
SMALL
GASTEIGER

@<TRIPOS>ATOM
      1  C         20.2770  -21.7830   -6.8990 C.2     1  UNL1        0.0330
      2  C         20.0360  -20.9810   -5.7820 C.2     1  UNL1        0.0170
      3  C         18.8080  -21.0580   -5.1190 C.2     1  UNL1        0.0090
      4  C         17.8060  -21.9470   -5.5460 C.2     1  UNL1       -0.0390
      5  C         16.5090  -21.9750   -4.7860 C.3     1  UNL1        0.0500
      6  C         18.0640  -22.7540   -6.6740 C.2     1  UNL1        0.0860
      7  C         19.2950  -22.6720   -7.3440 C.2     1  UNL1        0.0420
      8  C         21.5860  -21.7490   -7.6090 C.2     1  UNL1        0.2560
      9  N         21.7120  -22.6740   -8.6280 N.am    1  UNL1       -0.3230
     10  H         20.9640  -23.3470   -8.7310 H       1  UNL1        0.1690
     11  O         22.4240  -20.9420   -7.2270 O.2     1  UNL1       -0.2670
     12  C         22.8100  -22.8490   -9.4970 C.2     1  UNL1        0.0350
     13  C         22.7120  -22.2620  -10.7680 C.2     1  UNL1        0.0440
     14  C         23.7710  -22.3810  -11.6960 C.ar    1  UNL1        0.0050
     15  C         23.9720  -21.9050  -13.0300 C.ar    1  UNL1        0.0030
     16  C         24.9110  -23.0910  -11.3250 C.ar    1  UNL1        0.0460
     17  C         23.1870  -21.1380  -13.9180 C.2     1  UNL1        0.0140
     18  C         25.2340  -22.3330  -13.4470 C.ar    1  UNL1        0.0460
     19  C         23.6820  -20.8230  -15.1880 C.2     1  UNL1        0.0010
     20  C         24.9450  -21.2560  -15.5780 C.2     1  UNL1        0.0020
     21  C         25.7420  -22.0160  -14.7180 C.2     1  UNL1        0.0300
     22  N         25.7760  -23.0580  -12.4020 N.ar    1  UNL1       -0.3460
     23  C         25.0310  -23.6810  -10.0590 C.2     1  UNL1        0.0330
     24  C         23.9660  -23.5470   -9.1570 C.2     1  UNL1        0.0320
     25  C         27.0790  -23.7060  -12.4350 C.3     1  UNL1        0.1250
     26  C         27.1210  -24.8620  -13.4170 C.3     1  UNL1        0.0270
     27  S         16.8590  -23.9060   -7.3180 S.O2    1  UNL1        0.2630
     28  O         17.0100  -25.1570   -6.6030 O.2     1  UNL1       -0.2000
     29  O         15.5680  -23.2550   -7.3730 O.2     1  UNL1       -0.2000
     30  N         17.4120  -24.1860   -8.8940 N.pl3   1  UNL1       -0.2810
     31  H         17.0260  -25.0580   -9.2530 H       1  UNL1        0.1790
     32  C         17.4360  -23.0770   -9.7860 C.2     1  UNL1        0.0430
     33  C         16.3290  -22.2350   -9.8780 C.2     1  UNL1        0.0300
     34  C         16.3840  -21.1090  -10.6980 C.2     1  UNL1        0.0030
     35  C         17.5440  -20.8230  -11.4190 C.2     1  UNL1        0.0070
     36  C         18.6590  -21.6660  -11.3330 C.2     1  UNL1       -0.0600
     37  C         19.9250  -21.3250  -12.0620 C.3     1  UNL1        0.0480
     38  C         18.5990  -22.7910  -10.5030 C.2     1  UNL1        0.0370
@<TRIPOS>BOND
     1    20    19    2
     2    20    21    1
     3    19    17    1
     4    21    18    2
     5    17    15    2
     6    18    15   ar
     7    18    22   ar
     8    26    25    1
     9    15    14   ar
    10    25    22    1
    11    22    16   ar
    12    37    36    1
    13    14    16   ar
    14    14    13    1
    15    35    36    2
    16    35    34    1
    17    36    38    1
    18    16    23    1
    19    13    12    2
    20    34    33    2
    21    38    32    2
    22    23    24    2
    23    33    32    1
    24    32    30    1
    25    12    24    1
    26    12     9    1
    27    31    30    1
    28    30    27    1
    29    10     9    1
    30     9     8   am
    31     8    11    2
    32     8     1    1
    33    29    27    2
    34     7     1    2
    35     7     6    1
    36    27     6    1
    37    27    28    2
    38     1     2    1
    39     6     4    2
    40     2     3    2
    41     4     3    1
    42     4     5    1
