@<TRIPOS>MOLECULE
50060_out_ligand_01.pdbqt
 40 45 0 0 0
SMALL
GASTEIGER

@<TRIPOS>ATOM
      1  C         24.6030  -22.7580  -14.6270 C.2     1  UNL1        0.0860
      2  C         23.9030  -23.0650  -13.4450 C.2     1  UNL1        0.0420
      3  C         22.9850  -22.1600  -12.9030 C.2     1  UNL1        0.0330
      4  C         22.7390  -20.9540  -13.5620 C.2     1  UNL1        0.0170
      5  C         23.4310  -20.6480  -14.7380 C.2     1  UNL1        0.0090
      6  C         24.3760  -21.5350  -15.2870 C.2     1  UNL1       -0.0390
      7  C         25.0610  -21.1310  -16.5630 C.3     1  UNL1        0.0500
      8  C         22.2660  -22.5460  -11.6560 C.2     1  UNL1        0.2560
      9  O         22.8350  -23.3000  -10.8800 O.2     1  UNL1       -0.2670
     10  N         21.0250  -21.9590  -11.4800 N.am    1  UNL1       -0.3230
     11  H         20.7530  -21.2430  -12.1380 H       1  UNL1        0.1690
     12  C         20.1420  -22.1510  -10.3940 C.2     1  UNL1        0.0350
     13  C         18.7550  -22.1600  -10.5120 C.2     1  UNL1        0.0300
     14  C         17.9400  -22.3670   -9.3880 C.2     1  UNL1        0.0100
     15  C         18.4840  -22.5680   -8.1120 C.2     1  UNL1       -0.0490
     16  C         19.8860  -22.5440   -8.0090 C.2     1  UNL1        0.0100
     17  C         20.7010  -22.3320   -9.1280 C.2     1  UNL1        0.0300
     18  C         17.6150  -22.8150   -6.8680 C.3     1  UNL1       -0.0120
     19  C         18.1100  -21.9400   -5.6780 C.3     1  UNL1        0.0190
     20  C         17.2930  -22.2200   -4.4040 C.3     1  UNL1       -0.0130
     21  C         17.4250  -23.7080   -4.0330 C.3     1  UNL1        0.0090
     22  C         15.8150  -21.8900   -4.6630 C.3     1  UNL1        0.0090
     23  C         16.8900  -24.5870   -5.1750 C.3     1  UNL1       -0.0130
     24  C         15.4150  -24.2450   -5.4290 C.3     1  UNL1        0.0090
     25  C         17.7060  -24.3130   -6.4510 C.3     1  UNL1        0.0190
     26  C         15.2810  -22.7620   -5.8080 C.3     1  UNL1       -0.0130
     27  C         16.1040  -22.4900   -7.0800 C.3     1  UNL1        0.0190
     28  S         25.6990  -24.0290  -15.2520 S.O2    1  UNL1        0.2630
     29  O         25.8870  -23.8610  -16.6750 O.2     1  UNL1       -0.2000
     30  O         25.2320  -25.2960  -14.7220 O.2     1  UNL1       -0.2000
     31  N         27.1200  -23.7140  -14.4140 N.pl3   1  UNL1       -0.2810
     32  H         27.8830  -23.4340  -15.0270 H       1  UNL1        0.1790
     33  C         27.1200  -23.2100  -13.0890 C.2     1  UNL1        0.0430
     34  C         27.0130  -24.0570  -11.9850 C.2     1  UNL1        0.0370
     35  C         26.8860  -23.5270  -10.6960 C.2     1  UNL1       -0.0590
     36  C         26.8020  -22.1390  -10.5320 C.2     1  UNL1        0.0130
     37  C         26.7660  -24.4410   -9.5090 C.3     1  UNL1        0.0480
     38  C         26.8470  -21.2820  -11.6400 C.2     1  UNL1       -0.0590
     39  C         26.7510  -19.7950  -11.4540 C.3     1  UNL1        0.0480
     40  C         27.0110  -21.8300  -12.9180 C.2     1  UNL1        0.0370
@<TRIPOS>BOND
     1    29    28    2
     2     7     6    1
     3     6     5    1
     4     6     1    2
     5    28    30    2
     6    28     1    1
     7    28    31    1
     8    32    31    1
     9     5     4    2
    10     1     2    1
    11    31    33    1
    12     4     3    1
    13     2     3    2
    14    33    40    2
    15    33    34    1
    16    40    38    1
    17     3     8    1
    18    11    10    1
    19    34    35    2
    20     8    10   am
    21     8     9    2
    22    38    39    1
    23    38    36    2
    24    10    12    1
    25    35    36    1
    26    35    37    1
    27    13    12    2
    28    13    14    1
    29    12    17    1
    30    14    15    2
    31    17    16    2
    32    15    16    1
    33    15    18    1
    34    27    18    1
    35    27    26    1
    36    18    25    1
    37    18    19    1
    38    25    23    1
    39    26    24    1
    40    26    22    1
    41    19    20    1
    42    24    23    1
    43    23    21    1
    44    22    20    1
    45    20    21    1
