@<TRIPOS>MOLECULE
50073_out_ligand_01.pdbqt
 36 40 0 0 0
SMALL
GASTEIGER

@<TRIPOS>ATOM
      1  C         22.8700  -22.2950  -12.3470 C.2     1  UNL1        0.0350
      2  C         23.9080  -23.2290  -12.4720 C.2     1  UNL1        0.0310
      3  C         24.7320  -23.2410  -13.6020 C.2     1  UNL1        0.0270
      4  C         24.5110  -22.3120  -14.6210 C.2     1  UNL1        0.0800
      5  C         23.5030  -21.3560  -14.4980 C.2     1  UNL1        0.0270
      6  C         22.6800  -21.3560  -13.3660 C.2     1  UNL1        0.0310
      7  N         22.0870  -22.3640  -11.1750 N.am    1  UNL1       -0.3210
      8  C         22.4480  -21.9880   -9.8860 C.2     1  UNL1        0.2800
      9  O         23.5290  -21.4890   -9.5930 O.2     1  UNL1       -0.2650
     10  H         21.1440  -22.6980  -11.3020 H       1  UNL1        0.1690
     11  C         21.4100  -22.2210   -8.8880 C.2     1  UNL1        0.1440
     12  C         21.0050  -21.5450   -7.7480 C.2     1  UNL1        0.0580
     13  C         19.9180  -22.2740   -7.1810 C.2     1  UNL1        0.0120
     14  C         19.7260  -23.3580   -8.0250 C.2     1  UNL1        0.0870
     15  C         19.0670  -22.1420   -6.0490 C.2     1  UNL1       -0.0130
     16  C         18.7560  -24.3380   -7.8420 C.2     1  UNL1        0.0390
     17  O         20.6180  -23.3280   -9.0480 O.2     1  UNL1       -0.3040
     18  C         17.9260  -24.1990   -6.7240 C.2     1  UNL1        0.0150
     19  C         18.0640  -23.1230   -5.8310 C.2     1  UNL1       -0.0250
     20  C         17.2260  -22.9920   -4.7120 C.2     1  UNL1        0.0120
     21  C         17.3730  -21.9180   -3.8300 C.2     1  UNL1        0.0010
     22  C         18.3580  -20.9570   -4.0480 C.2     1  UNL1        0.0010
     23  C         19.2050  -21.0630   -5.1510 C.2     1  UNL1        0.0130
     24  S         25.5530  -22.3250  -16.0630 S.O2    1  UNL1        0.2630
     25  O         25.1120  -21.2480  -16.9240 O.2     1  UNL1       -0.2000
     26  O         25.6370  -23.6870  -16.5440 O.2     1  UNL1       -0.2000
     27  N         27.0600  -21.8540  -15.4520 N.pl3   1  UNL1       -0.2790
     28  H         27.7280  -21.7070  -16.2110 H       1  UNL1        0.1790
     29  C         27.1020  -20.8970  -14.3880 C.2     1  UNL1        0.0640
     30  C         27.1140  -21.3340  -13.0620 C.2     1  UNL1        0.0330
     31  C         27.1190  -20.4030  -12.0190 C.2     1  UNL1        0.0260
     32  C         27.1130  -19.0380  -12.3040 C.2     1  UNL1        0.0350
     33 CL         27.1210  -17.9000  -11.0160 Cl      1  UNL1       -0.0840
     34  C         27.1060  -18.5890  -13.6230 C.2     1  UNL1        0.0500
     35  C         27.1010  -19.5190  -14.6630 C.2     1  UNL1        0.0620
     36 CL         27.0950  -18.9390  -16.2910 Cl      1  UNL1       -0.0820
@<TRIPOS>BOND
     1    25    24    2
     2    26    24    2
     3    36    35    1
     4    28    27    1
     5    24    27    1
     6    24     4    1
     7    27    29    1
     8    35    29    2
     9    35    34    1
    10     4     5    2
    11     4     3    1
    12     5     6    1
    13    29    30    1
    14    34    32    2
    15     3     2    2
    16     6     1    2
    17    30    31    2
    18     2     1    1
    19     1     7    1
    20    32    31    1
    21    32    33    1
    22    10     7    1
    23     7     8   am
    24     8     9    2
    25     8    11    1
    26    17    11    1
    27    17    14    1
    28    11    12    2
    29    14    16    1
    30    14    13    2
    31    16    18    2
    32    12    13    1
    33    13    15    1
    34    18    19    1
    35    15    19    2
    36    15    23    1
    37    19    20    1
    38    23    22    2
    39    20    21    2
    40    22    21    1
