@<TRIPOS>MOLECULE
50074_out_ligand_01.pdbqt
 37 41 0 0 0
SMALL
GASTEIGER

@<TRIPOS>ATOM
      1  C         17.9950  -23.7270   -8.2890 C.2     1  UNL1        0.0750
      2  C         17.8000  -22.7890   -9.3050 C.2     1  UNL1        0.0270
      3  C         18.8820  -22.3870  -10.0940 C.2     1  UNL1        0.0310
      4  C         20.1600  -22.9050   -9.8650 C.2     1  UNL1        0.0350
      5  C         20.3450  -23.8230   -8.8210 C.2     1  UNL1        0.0310
      6  C         19.2680  -24.2330   -8.0300 C.2     1  UNL1        0.0270
      7  N         21.2960  -22.5600  -10.6180 N.am    1  UNL1       -0.3210
      8  C         22.4770  -21.9840  -10.1800 C.2     1  UNL1        0.2800
      9  O         22.7230  -21.6540   -9.0250 O.2     1  UNL1       -0.2650
     10  H         21.2620  -22.7410  -11.6160 H       1  UNL1        0.1690
     11  C         23.4300  -21.7850  -11.2570 C.2     1  UNL1        0.1440
     12  C         23.3860  -22.1560  -12.5870 C.2     1  UNL1        0.0580
     13  C         24.5950  -21.7070  -13.1890 C.2     1  UNL1        0.0120
     14  C         25.3050  -21.0850  -12.1700 C.2     1  UNL1        0.0870
     15  C         25.1780  -21.7540  -14.4850 C.2     1  UNL1       -0.0130
     16  C         26.5570  -20.4990  -12.3260 C.2     1  UNL1        0.0390
     17  O         24.6070  -21.1290  -11.0020 O.2     1  UNL1       -0.3040
     18  C         27.1200  -20.5510  -13.6060 C.2     1  UNL1        0.0150
     19  C         26.4560  -21.1660  -14.6810 C.2     1  UNL1       -0.0250
     20  C         27.0290  -21.2140  -15.9610 C.2     1  UNL1        0.0120
     21  C         26.3580  -21.8280  -17.0230 C.2     1  UNL1        0.0010
     22  C         25.1040  -22.4030  -16.8250 C.2     1  UNL1        0.0010
     23  C         24.5110  -22.3700  -15.5630 C.2     1  UNL1        0.0130
     24  S         16.6110  -24.2510   -7.3010 S.O2    1  UNL1        0.2450
     25  O         15.5850  -24.7440   -8.1960 O.2     1  UNL1       -0.2060
     26  O         17.1320  -25.0830   -6.2360 O.2     1  UNL1       -0.2060
     27  N         16.0800  -22.8150   -6.5740 N.pl3   1  UNL1       -0.1790
     28  H         15.1100  -22.9170   -6.2700 H       1  UNL1        0.1460
     29  C         16.9210  -22.2340   -5.5690 C.2     1  UNL1        0.0560
     30  C         18.0850  -21.5570   -5.9350 C.2     1  UNL1        0.0340
     31  C         18.9370  -21.0430   -4.9510 C.2     1  UNL1       -0.0600
     32  C         18.5900  -21.1940   -3.6040 C.2     1  UNL1        0.0090
     33  C         20.1710  -20.2850   -5.3430 C.3     1  UNL1        0.0480
     34  C         17.4230  -21.8740   -3.2350 C.2     1  UNL1        0.0390
     35  C         16.5850  -22.4070   -4.2160 C.2     1  UNL1        0.0900
     36  O         15.4210  -23.0940   -3.9760 O.2     1  UNL1       -0.3540
     37  C         15.5250  -24.2580   -3.1640 C.3     1  UNL1        0.2100
@<TRIPOS>BOND
     1    21    22    1
     2    21    20    2
     3    22    23    2
     4    20    19    1
     5    23    15    1
     6    19    15    1
     7    19    18    2
     8    15    13    2
     9    18    16    1
    10    13    12    1
    11    13    14    1
    12    12    11    2
    13    16    14    2
    14    14    17    1
    15    10     7    1
    16    11    17    1
    17    11     8    1
    18     7     8   am
    19     7     4    1
    20     8     9    2
    21     3     4    2
    22     3     2    1
    23     4     5    1
    24     2     1    2
    25     5     6    2
    26     1     6    1
    27     1    24    1
    28    25    24    2
    29    24    27    1
    30    24    26    2
    31    27    28    1
    32    27    29    1
    33    30    29    2
    34    30    31    1
    35    29    35    1
    36    33    31    1
    37    31    32    2
    38    35    36    1
    39    35    34    2
    40    36    37    1
    41    32    34    1
