@<TRIPOS>MOLECULE
50088_out_ligand_01.pdbqt
 38 43 0 0 0
SMALL
GASTEIGER

@<TRIPOS>ATOM
      1  C         21.9570  -22.5180  -10.5430 C.2     1  UNL1        0.2560
      2  O         21.0050  -22.1490  -11.2210 O.2     1  UNL1       -0.2670
      3  N         21.9500  -22.9010   -9.2150 N.am    1  UNL1       -0.3230
      4  H         22.8080  -23.2870   -8.8420 H       1  UNL1        0.1690
      5  C         23.2790  -22.6210  -11.2130 C.2     1  UNL1        0.0330
      6  C         24.3850  -23.1760  -10.5720 C.2     1  UNL1        0.0170
      7  C         25.6100  -23.2450  -11.2410 C.2     1  UNL1        0.0090
      8  C         25.7610  -22.7510  -12.5520 C.2     1  UNL1       -0.0390
      9  C         27.1080  -22.9010  -13.2020 C.3     1  UNL1        0.0500
     10  C         24.6390  -22.1810  -13.1830 C.2     1  UNL1        0.0860
     11  C         23.4060  -22.1180  -12.5110 C.2     1  UNL1        0.0420
     12  S         24.6400  -21.5430  -14.8580 S.O2    1  UNL1        0.2630
     13  O         24.7380  -22.6350  -15.8000 O.2     1  UNL1       -0.2000
     14  O         23.5390  -20.6040  -14.9440 O.2     1  UNL1       -0.2000
     15  N         26.0490  -20.6130  -14.9070 N.pl3   1  UNL1       -0.2810
     16  H         26.8860  -21.1840  -14.7930 H       1  UNL1        0.1790
     17  C         26.1250  -19.5180  -15.8080 C.2     1  UNL1        0.0420
     18  C         26.4010  -18.2410  -15.3180 C.2     1  UNL1        0.0300
     19  C         26.5030  -17.1670  -16.2040 C.2     1  UNL1        0.0020
     20  C         26.3320  -17.3700  -17.5750 C.2     1  UNL1        0.0000
     21  C         26.0610  -18.6490  -18.0610 C.2     1  UNL1        0.0020
     22  C         25.9590  -19.7240  -17.1780 C.2     1  UNL1        0.0300
     23  C         20.8390  -22.9350   -8.3470 C.2     1  UNL1        0.0350
     24  C         20.5950  -21.9880   -7.3570 C.2     1  UNL1        0.0300
     25  C         19.4510  -22.0810   -6.5510 C.2     1  UNL1        0.0100
     26  C         18.5120  -23.1150   -6.7080 C.2     1  UNL1       -0.0490
     27  C         18.7840  -24.0730   -7.6960 C.2     1  UNL1        0.0100
     28  C         19.9320  -23.9860   -8.5000 C.2     1  UNL1        0.0300
     29  C         17.2580  -23.1610   -5.8200 C.3     1  UNL1       -0.0120
     30  C         17.2900  -21.9890   -4.7960 C.3     1  UNL1        0.0190
     31  C         16.0180  -21.9730   -3.9310 C.3     1  UNL1       -0.0130
     32  C         15.9110  -23.2920   -3.1540 C.3     1  UNL1        0.0090
     33  C         14.7880  -21.8170   -4.8420 C.3     1  UNL1        0.0090
     34  C         15.8400  -24.4700   -4.1350 C.3     1  UNL1       -0.0130
     35  C         14.6090  -24.3090   -5.0370 C.3     1  UNL1        0.0090
     36  C         17.1100  -24.4810   -5.0030 C.3     1  UNL1        0.0190
     37  C         14.7080  -22.9960   -5.8240 C.3     1  UNL1       -0.0130
     38  C         15.9750  -23.0200   -6.6940 C.3     1  UNL1        0.0190
@<TRIPOS>BOND
     1    21    20    2
     2    21    22    1
     3    20    19    1
     4    22    17    2
     5    19    18    2
     6    17    18    1
     7    17    15    1
     8    13    12    2
     9    14    12    2
    10    15    12    1
    11    15    16    1
    12    12    10    1
    13     9     8    1
    14    10     8    2
    15    10    11    1
    16     8     7    1
    17    11     5    2
    18     7     6    2
    19     2     1    2
    20     5     6    1
    21     5     1    1
    22     1     3   am
    23     3     4    1
    24     3    23    1
    25    28    23    2
    26    28    27    1
    27    23    24    1
    28    27    26    2
    29    24    25    2
    30    26    25    1
    31    26    29    1
    32    38    37    1
    33    38    29    1
    34    37    35    1
    35    37    33    1
    36    29    36    1
    37    29    30    1
    38    35    34    1
    39    36    34    1
    40    33    31    1
    41    30    31    1
    42    34    32    1
    43    31    32    1
