@<TRIPOS>MOLECULE
50116_out_ligand_01.pdbqt
 28 29 0 0 0
SMALL
GASTEIGER

@<TRIPOS>ATOM
      1  S         21.1080  -23.9160   -9.1290 S.O2    1  UNL1        0.2450
      2  O         20.2800  -25.0930   -9.2900 O.2     1  UNL1       -0.2060
      3  O         22.5330  -24.0080   -8.8940 O.2     1  UNL1       -0.2060
      4  C         20.4110  -22.9380   -7.8200 C.2     1  UNL1        0.0750
      5  C         19.2400  -23.3620   -7.1910 C.2     1  UNL1        0.0420
      6  C         18.7030  -22.5970   -6.1480 C.2     1  UNL1        0.0390
      7  C         19.3180  -21.3940   -5.7460 C.2     1  UNL1       -0.0460
      8  C         20.5150  -21.0080   -6.3740 C.2     1  UNL1        0.0090
      9  C         18.7460  -20.5090   -4.6730 C.3     1  UNL1        0.0490
     10  C         21.0620  -21.7750   -7.4050 C.2     1  UNL1        0.0250
     11  C         17.4560  -23.1130   -5.5290 C.2     1  UNL1        0.2520
     12  N         16.3060  -22.4270   -5.8520 N.am    1  UNL1       -0.3570
     13  H         16.4130  -21.5150   -6.2780 H       1  UNL1        0.1620
     14  O         17.5130  -24.0530   -4.7470 O.2     1  UNL1       -0.2680
     15  C         15.0620  -22.7150   -5.1720 C.3     1  UNL1        0.1180
     16  C         13.9630  -21.7660   -5.6060 C.3     1  UNL1        0.0260
     17  N         20.8040  -22.9000  -10.4650 N.pl3   1  UNL1       -0.1810
     18  H         21.4840  -22.1380  -10.4360 H       1  UNL1        0.1460
     19  C         19.4630  -22.3960  -10.5140 C.2     1  UNL1        0.0230
     20  C         19.1950  -21.2350  -11.2370 C.2     1  UNL1        0.0240
     21  C         17.8870  -20.7640  -11.3350 C.2     1  UNL1        0.0030
     22  C         16.8450  -21.4600  -10.7180 C.2     1  UNL1        0.0160
     23  C         17.1040  -22.6380   -9.9990 C.2     1  UNL1        0.0490
     24  C         18.4240  -23.1090   -9.9140 C.2     1  UNL1        0.0400
     25  C         15.9740  -23.4130   -9.3660 C.3     1  UNL1        0.4170
     26  F         16.4010  -24.3010   -8.4250 F       1  UNL1       -0.1660
     27  F         15.2600  -24.1440  -10.2670 F       1  UNL1       -0.1660
     28  F         15.0750  -22.6060   -8.7410 F       1  UNL1       -0.1660
@<TRIPOS>BOND
     1    21    20    1
     2    21    22    2
     3    20    19    2
     4    22    23    1
     5    19    17    1
     6    19    24    1
     7    17    18    1
     8    17     1    1
     9    27    25    1
    10    23    24    2
    11    23    25    1
    12    25    28    1
    13    25    26    1
    14     2     1    2
    15     1     3    2
    16     1     4    1
    17     4    10    2
    18     4     5    1
    19    10     8    1
    20     5     6    2
    21     8     7    2
    22    13    12    1
    23     6     7    1
    24     6    11    1
    25    12    11   am
    26    12    15    1
    27     7     9    1
    28    16    15    1
    29    11    14    2
