@<TRIPOS>MOLECULE
50133_out_ligand_01.pdbqt
 34 36 0 0 0
SMALL
GASTEIGER

@<TRIPOS>ATOM
      1  C         22.1630  -22.1780  -10.7130 C.2     1  UNL1        0.0800
      2  C         21.8110  -21.6600  -11.9620 C.2     1  UNL1        0.0260
      3  C         20.4700  -21.3950  -12.2480 C.2     1  UNL1        0.0090
      4  C         19.4670  -21.6480  -11.2970 C.2     1  UNL1       -0.0460
      5  C         18.0360  -21.3270  -11.6370 C.3     1  UNL1        0.0490
      6  C         19.8420  -22.2100  -10.0590 C.2     1  UNL1        0.0390
      7  C         21.1850  -22.4620   -9.7580 C.2     1  UNL1        0.0420
      8  C         18.8480  -22.5610   -9.0150 C.2     1  UNL1        0.2560
      9  O         17.9350  -23.3170   -9.3200 O.2     1  UNL1       -0.2670
     10  N         19.0590  -21.9180   -7.8120 N.am    1  UNL1       -0.3230
     11  H         19.8130  -21.2420   -7.7880 H       1  UNL1        0.1690
     12  C         18.2950  -22.0360   -6.6350 C.2     1  UNL1        0.0350
     13  C         18.8460  -21.5040   -5.4610 C.2     1  UNL1        0.0290
     14  C         18.1550  -21.5790   -4.2510 C.2     1  UNL1        0.0030
     15  C         16.9040  -22.1940   -4.2000 C.2     1  UNL1        0.0160
     16  C         16.3340  -22.7340   -5.3630 C.2     1  UNL1        0.0500
     17  C         17.0440  -22.6540   -6.5750 C.2     1  UNL1        0.0450
     18  C         14.9940  -23.4300   -5.3140 C.3     1  UNL1        0.4170
     19  F         14.8310  -24.3110   -6.3400 F       1  UNL1       -0.1660
     20  F         14.8060  -24.1520   -4.1730 F       1  UNL1       -0.1660
     21  F         13.9390  -22.5720   -5.3850 F       1  UNL1       -0.1660
     22  S         23.8610  -22.5460  -10.3440 S.O2    1  UNL1        0.2630
     23  O         24.5530  -21.2760  -10.2480 O.2     1  UNL1       -0.2000
     24  O         23.8910  -23.4890   -9.2460 O.2     1  UNL1       -0.2000
     25  N         24.4140  -23.2850  -11.7460 N.pl3   1  UNL1       -0.2810
     26  H         24.8370  -24.1960  -11.5730 H       1  UNL1        0.1790
     27  C         24.8600  -22.5400  -12.8780 C.2     1  UNL1        0.0430
     28  C         25.4600  -21.2850  -12.7660 C.2     1  UNL1        0.0370
     29  C         25.8540  -20.5760  -13.9110 C.2     1  UNL1       -0.0590
     30  C         25.5890  -21.1150  -15.1750 C.2     1  UNL1        0.0130
     31  C         26.4990  -19.2280  -13.7700 C.3     1  UNL1        0.0480
     32  C         24.9470  -22.3550  -15.3050 C.2     1  UNL1       -0.0590
     33  C         24.6660  -22.9150  -16.6720 C.3     1  UNL1        0.0480
     34  C         24.5930  -23.0640  -14.1470 C.2     1  UNL1        0.0370
@<TRIPOS>BOND
     1    33    32    1
     2    32    30    2
     3    32    34    1
     4    30    29    1
     5    34    27    2
     6    29    31    1
     7    29    28    2
     8    27    28    1
     9    27    25    1
    10     3     2    1
    11     3     4    2
    12     2     1    2
    13    25    26    1
    14    25    22    1
    15     5     4    1
    16     4     6    1
    17     1    22    1
    18     1     7    1
    19    22    23    2
    20    22    24    2
    21     6     7    2
    22     6     8    1
    23     9     8    2
    24     8    10   am
    25    10    11    1
    26    10    12    1
    27    12    17    2
    28    12    13    1
    29    17    16    1
    30    19    18    1
    31    13    14    2
    32    21    18    1
    33    16    18    1
    34    16    15    2
    35    18    20    1
    36    14    15    1
