@<TRIPOS>MOLECULE
50130_out_ligand_01.pdbqt
 34 36 0 0 0
SMALL
GASTEIGER

@<TRIPOS>ATOM
      1  C         21.9650  -22.1960  -10.8000 C.2     1  UNL1        0.0800
      2  C         21.5790  -21.5250  -11.9640 C.2     1  UNL1        0.0260
      3  C         20.2340  -21.2090  -12.1690 C.2     1  UNL1        0.0090
      4  C         19.2620  -21.5520  -11.2150 C.2     1  UNL1       -0.0460
      5  C         17.8200  -21.2240  -11.4840 C.3     1  UNL1        0.0490
      6  C         19.6790  -22.1840  -10.0270 C.2     1  UNL1        0.0390
      7  C         21.0230  -22.5110   -9.8180 C.2     1  UNL1        0.0420
      8  C         18.7220  -22.5480   -8.9560 C.2     1  UNL1        0.2560
      9  O         17.8530  -23.3700   -9.2120 O.2     1  UNL1       -0.2670
     10  N         18.9660  -21.9100   -7.7570 N.am    1  UNL1       -0.3230
     11  H         19.7860  -21.3160   -7.7190 H       1  UNL1        0.1690
     12  C         18.2270  -22.0260   -6.5630 C.2     1  UNL1        0.0350
     13  C         18.7990  -21.4930   -5.4020 C.2     1  UNL1        0.0290
     14  C         18.1280  -21.5640   -4.1790 C.2     1  UNL1        0.0030
     15  C         16.8770  -22.1680   -4.1040 C.2     1  UNL1        0.0160
     16  C         16.2840  -22.7080   -5.2550 C.2     1  UNL1        0.0500
     17  C         16.9700  -22.6300   -6.4810 C.2     1  UNL1        0.0450
     18  C         14.9280  -23.3680   -5.2000 C.3     1  UNL1        0.4170
     19  F         13.9070  -22.4880   -5.3990 F       1  UNL1       -0.1660
     20  F         14.6670  -23.9700   -4.0040 F       1  UNL1       -0.1660
     21  F         14.7770  -24.3410   -6.1410 F       1  UNL1       -0.1660
     22  S         23.6800  -22.5850  -10.5310 S.O2    1  UNL1        0.2630
     23  O         24.4220  -21.3440  -10.6290 O.2     1  UNL1       -0.2000
     24  O         23.7610  -23.4050   -9.3420 O.2     1  UNL1       -0.2000
     25  N         24.1060  -23.4850  -11.8910 N.pl3   1  UNL1       -0.2800
     26  H         24.2770  -24.4630  -11.6750 H       1  UNL1        0.1790
     27  C         24.8690  -22.8790  -12.9310 C.2     1  UNL1        0.0480
     28  C         24.2160  -22.1440  -13.9230 C.2     1  UNL1        0.0310
     29  C         24.9450  -21.4880  -14.9130 C.2     1  UNL1        0.0090
     30  C         26.3400  -21.5560  -14.9220 C.2     1  UNL1       -0.0610
     31  C         27.1210  -20.8510  -15.9920 C.3     1  UNL1        0.0480
     32  C         26.9910  -22.3210  -13.9460 C.2     1  UNL1        0.0150
     33  C         26.2690  -22.9850  -12.9400 C.2     1  UNL1       -0.0340
     34  C         27.0190  -23.7870  -11.9130 C.3     1  UNL1        0.0500
@<TRIPOS>BOND
     1    31    30    1
     2    30    29    2
     3    30    32    1
     4    29    28    1
     5    32    33    2
     6    28    27    2
     7    33    27    1
     8    33    34    1
     9    27    25    1
    10     3     2    1
    11     3     4    2
    12     2     1    2
    13    25    26    1
    14    25    22    1
    15     5     4    1
    16     4     6    1
    17     1    22    1
    18     1     7    1
    19    23    22    2
    20    22    24    2
    21     6     7    2
    22     6     8    1
    23     9     8    2
    24     8    10   am
    25    10    11    1
    26    10    12    1
    27    12    17    2
    28    12    13    1
    29    17    16    1
    30    21    18    1
    31    13    14    2
    32    19    18    1
    33    16    18    1
    34    16    15    2
    35    18    20    1
    36    14    15    1
