@<TRIPOS>MOLECULE
50131_out_ligand_01.pdbqt
 34 36 0 0 0
SMALL
GASTEIGER

@<TRIPOS>ATOM
      1  C         21.8840  -22.1600  -10.7100 C.2     1  UNL1        0.0750
      2  C         21.4620  -21.5780  -11.9080 C.2     1  UNL1        0.0250
      3  C         20.1050  -21.3110  -12.1060 C.2     1  UNL1        0.0090
      4  C         19.1580  -21.6220  -11.1170 C.2     1  UNL1       -0.0460
      5  C         17.7030  -21.3620  -11.3940 C.3     1  UNL1        0.0490
      6  C         19.6120  -22.1680   -9.8990 C.2     1  UNL1        0.0390
      7  C         20.9700  -22.4460   -9.6960 C.2     1  UNL1        0.0420
      8  C         18.6910  -22.5110   -8.7870 C.2     1  UNL1        0.2560
      9  O         17.7890  -23.3060   -9.0180 O.2     1  UNL1       -0.2670
     10  N         19.0080  -21.9100   -7.5860 N.am    1  UNL1       -0.3230
     11  H         19.8610  -21.3660   -7.5630 H       1  UNL1        0.1690
     12  C         18.3070  -22.0200   -6.3680 C.2     1  UNL1        0.0350
     13  C         18.8730  -21.4050   -5.2460 C.2     1  UNL1        0.0290
     14  C         18.2420  -21.4740   -4.0020 C.2     1  UNL1        0.0030
     15  C         17.0320  -22.1510   -3.8700 C.2     1  UNL1        0.0160
     16  C         16.4380  -22.7590   -4.9830 C.2     1  UNL1        0.0500
     17  C         17.0910  -22.6950   -6.2280 C.2     1  UNL1        0.0450
     18  C         15.1340  -23.5050   -4.8530 C.3     1  UNL1        0.4170
     19  F         15.1090  -24.3520   -3.7850 F       1  UNL1       -0.1660
     20  F         14.0590  -22.6830   -4.6920 F       1  UNL1       -0.1660
     21  F         14.8630  -24.2740   -5.9440 F       1  UNL1       -0.1660
     22  S         23.6080  -22.5080  -10.4520 S.O2    1  UNL1        0.2450
     23  O         23.7120  -23.3250   -9.2620 O.2     1  UNL1       -0.2060
     24  O         24.3270  -21.2610  -10.5910 O.2     1  UNL1       -0.2060
     25  N         23.9100  -23.5290  -11.7820 N.pl3   1  UNL1       -0.1810
     26  H         24.2570  -24.4120  -11.4000 H       1  UNL1        0.1460
     27  C         24.8550  -22.9980  -12.7260 C.2     1  UNL1        0.0290
     28  C         26.2250  -23.2410  -12.5550 C.2     1  UNL1       -0.0400
     29  C         27.1180  -22.7460  -13.5150 C.2     1  UNL1        0.0090
     30  C         26.7450  -24.0300  -11.3880 C.3     1  UNL1        0.0500
     31  C         26.6540  -22.0270  -14.6200 C.2     1  UNL1        0.0070
     32  C         25.2840  -21.8060  -14.7990 C.2     1  UNL1       -0.0600
     33  C         24.7870  -21.0220  -15.9790 C.3     1  UNL1        0.0480
     34  C         24.3860  -22.2890  -13.8390 C.2     1  UNL1        0.0310
@<TRIPOS>BOND
     1    33    32    1
     2    32    31    2
     3    32    34    1
     4    31    29    1
     5    34    27    2
     6    29    28    2
     7    27    28    1
     8    27    25    1
     9    28    30    1
    10     3     2    1
    11     3     4    2
    12     2     1    2
    13    25    26    1
    14    25    22    1
    15     5     4    1
    16     4     6    1
    17     1    22    1
    18     1     7    1
    19    24    22    2
    20    22    23    2
    21     6     7    2
    22     6     8    1
    23     9     8    2
    24     8    10   am
    25    10    11    1
    26    10    12    1
    27    12    17    2
    28    12    13    1
    29    17    16    1
    30    21    18    1
    31    13    14    2
    32    16    18    1
    33    16    15    2
    34    18    20    1
    35    18    19    1
    36    14    15    1
