@<TRIPOS>MOLECULE
50132_out_ligand_01.pdbqt
 34 36 0 0 0
SMALL
GASTEIGER

@<TRIPOS>ATOM
      1  C         21.9960  -22.2670  -10.6860 C.2     1  UNL1        0.0800
      2  C         21.6200  -21.7210  -11.9140 C.2     1  UNL1        0.0260
      3  C         20.2770  -21.4150  -12.1510 C.2     1  UNL1        0.0090
      4  C         19.3010  -21.6500  -11.1690 C.2     1  UNL1       -0.0460
      5  C         17.8770  -21.2580  -11.4490 C.3     1  UNL1        0.0490
      6  C         19.6970  -22.2470   -9.9540 C.2     1  UNL1        0.0390
      7  C         21.0420  -22.5460   -9.7070 C.2     1  UNL1        0.0420
      8  C         18.7380  -22.5510   -8.8660 C.2     1  UNL1        0.2560
      9  O         17.7870  -23.2750   -9.1300 O.2     1  UNL1       -0.2670
     10  N         19.0220  -21.9190   -7.6730 N.am    1  UNL1       -0.3230
     11  H         19.8010  -21.2720   -7.6780 H       1  UNL1        0.1690
     12  C         18.3180  -22.0310   -6.4570 C.2     1  UNL1        0.0350
     13  C         18.8730  -21.4030   -5.3370 C.2     1  UNL1        0.0290
     14  C         18.2380  -21.4670   -4.0950 C.2     1  UNL1        0.0030
     15  C         17.0430  -22.1680   -3.9600 C.2     1  UNL1        0.0160
     16  C         16.4740  -22.8150   -5.0660 C.2     1  UNL1        0.0500
     17  C         17.1200  -22.7340   -6.3140 C.2     1  UNL1        0.0450
     18  C         15.1690  -23.5600   -4.9380 C.3     1  UNL1        0.4170
     19  F         14.9050  -24.3700   -6.0010 F       1  UNL1       -0.1660
     20  F         14.1010  -22.7230   -4.8270 F       1  UNL1       -0.1660
     21  F         15.1210  -24.3690   -3.8400 F       1  UNL1       -0.1660
     22  S         23.7050  -22.6290  -10.3540 S.O2    1  UNL1        0.2630
     23  O         23.7600  -23.5730   -9.2590 O.2     1  UNL1       -0.2000
     24  O         24.4000  -21.3600  -10.2840 O.2     1  UNL1       -0.2000
     25  N         24.2180  -23.3800  -11.7770 N.pl3   1  UNL1       -0.2810
     26  H         24.5260  -24.3370  -11.6140 H       1  UNL1        0.1790
     27  C         24.9310  -22.6140  -12.7420 C.2     1  UNL1        0.0430
     28  C         26.2170  -22.1750  -12.4370 C.2     1  UNL1        0.0300
     29  C         26.9140  -21.3830  -13.3510 C.2     1  UNL1        0.0090
     30  C         26.3360  -21.0240  -14.5790 C.2     1  UNL1       -0.0560
     31  C         27.1210  -20.1720  -15.5400 C.3     1  UNL1        0.0490
     32  C         25.0380  -21.4750  -14.8890 C.2     1  UNL1       -0.0540
     33  C         24.3460  -22.2700  -13.9590 C.2     1  UNL1        0.0370
     34  C         24.3750  -21.1270  -16.1930 C.3     1  UNL1        0.0490
@<TRIPOS>BOND
     1    34    32    1
     2    31    30    1
     3    32    30    2
     4    32    33    1
     5    30    29    1
     6    33    27    2
     7    29    28    2
     8    27    28    1
     9    27    25    1
    10     3     2    1
    11     3     4    2
    12     2     1    2
    13    25    26    1
    14    25    22    1
    15     5     4    1
    16     4     6    1
    17     1    22    1
    18     1     7    1
    19    22    24    2
    20    22    23    2
    21     6     7    2
    22     6     8    1
    23     9     8    2
    24     8    10   am
    25    11    10    1
    26    10    12    1
    27    12    17    2
    28    12    13    1
    29    17    16    1
    30    19    18    1
    31    13    14    2
    32    16    18    1
    33    16    15    2
    34    18    20    1
    35    18    21    1
    36    14    15    1
