@<TRIPOS>MOLECULE
50134_out_ligand_01.pdbqt
 34 36 0 0 0
SMALL
GASTEIGER

@<TRIPOS>ATOM
      1  C         21.7440  -22.3110  -10.6480 C.2     1  UNL1        0.0800
      2  C         21.2950  -21.7010  -11.8220 C.2     1  UNL1        0.0260
      3  C         19.9380  -21.4040  -11.9750 C.2     1  UNL1        0.0090
      4  C         19.0200  -21.7030  -10.9550 C.2     1  UNL1       -0.0460
      5  C         17.5650  -21.3770  -11.1440 C.3     1  UNL1        0.0490
      6  C         19.5020  -22.2770   -9.7640 C.2     1  UNL1        0.0390
      7  C         20.8560  -22.5880   -9.6060 C.2     1  UNL1        0.0420
      8  C         18.6140  -22.5450   -8.6110 C.2     1  UNL1        0.2560
      9  O         17.6940  -23.3350   -8.7590 O.2     1  UNL1       -0.2670
     10  N         18.9800  -21.8480   -7.4760 N.am    1  UNL1       -0.3230
     11  H         19.7840  -21.2350   -7.5630 H       1  UNL1        0.1690
     12  C         18.3880  -21.9160   -6.1990 C.2     1  UNL1        0.0350
     13  C         19.0300  -21.2320   -5.1590 C.2     1  UNL1        0.0290
     14  C         18.5150  -21.2600   -3.8610 C.2     1  UNL1        0.0030
     15  C         17.3520  -21.9770   -3.5880 C.2     1  UNL1        0.0160
     16  C         16.6900  -22.6670   -4.6150 C.2     1  UNL1        0.0500
     17  C         17.2200  -22.6300   -5.9190 C.2     1  UNL1        0.0450
     18  C         15.4390  -23.4660   -4.3410 C.3     1  UNL1        0.4170
     19  F         15.5400  -24.2790   -3.2500 F       1  UNL1       -0.1660
     20  F         15.1060  -24.2840   -5.3780 F       1  UNL1       -0.1660
     21  F         14.3480  -22.6810   -4.1150 F       1  UNL1       -0.1660
     22  S         23.4750  -22.6580  -10.4340 S.O2    1  UNL1        0.2630
     23  O         23.6130  -23.5490   -9.3010 O.2     1  UNL1       -0.2000
     24  O         24.1710  -21.3880  -10.4750 O.2     1  UNL1       -0.2000
     25  N         23.9100  -23.4570  -11.8520 N.pl3   1  UNL1       -0.2800
     26  H         23.9860  -24.4600  -11.7080 H       1  UNL1        0.1790
     27  C         24.7830  -22.8460  -12.7990 C.2     1  UNL1        0.0490
     28  C         24.2770  -21.9180  -13.7140 C.2     1  UNL1        0.0300
     29  C         25.1260  -21.2910  -14.6260 C.2     1  UNL1        0.0020
     30  C         26.4800  -21.6060  -14.6460 C.2     1  UNL1        0.0010
     31  C         26.9910  -22.5480  -13.7500 C.2     1  UNL1        0.0090
     32  C         26.1550  -23.1760  -12.8110 C.2     1  UNL1       -0.0310
     33  C         26.7700  -24.1820  -11.8620 C.3     1  UNL1        0.0360
     34  C         27.1210  -23.5600  -10.5150 C.3     1  UNL1        0.0100
@<TRIPOS>BOND
     1    30    29    2
     2    30    31    1
     3    29    28    1
     4    31    32    2
     5    28    27    2
     6    32    27    1
     7    32    33    1
     8    27    25    1
     9     3     2    1
    10     3     4    2
    11    33    34    1
    12    25    26    1
    13    25    22    1
    14     2     1    2
    15     5     4    1
    16     4     6    1
    17     1    22    1
    18     1     7    1
    19    24    22    2
    20    22    23    2
    21     6     7    2
    22     6     8    1
    23     9     8    2
    24     8    10   am
    25    11    10    1
    26    10    12    1
    27    12    17    2
    28    12    13    1
    29    17    16    1
    30    20    18    1
    31    13    14    2
    32    16    18    1
    33    16    15    2
    34    18    21    1
    35    18    19    1
    36    14    15    1
