@<TRIPOS>MOLECULE
50135_out_ligand_01.pdbqt
 36 39 0 0 0
SMALL
GASTEIGER

@<TRIPOS>ATOM
      1  C         20.4380  -20.7330  -12.1770 C.3     1  UNL1        0.0490
      2  C         19.3720  -21.3920  -11.3440 C.2     1  UNL1       -0.0460
      3  C         18.0440  -20.9420  -11.4480 C.2     1  UNL1        0.0090
      4  C         17.0270  -21.5370  -10.7000 C.2     1  UNL1        0.0260
      5  C         17.3300  -22.6050   -9.8550 C.2     1  UNL1        0.0800
      6  C         18.6400  -23.0710   -9.7310 C.2     1  UNL1        0.0420
      7  C         19.6590  -22.4630  -10.4750 C.2     1  UNL1        0.0390
      8  S         16.0480  -23.3640   -8.8910 S.O2    1  UNL1        0.2630
      9  O         15.3930  -24.3690   -9.6980 O.2     1  UNL1       -0.2000
     10  O         15.2930  -22.2850   -8.2850 O.2     1  UNL1       -0.2000
     11  N         16.9100  -24.0930   -7.6380 N.pl3   1  UNL1       -0.2800
     12  H         17.8650  -24.3170   -7.9150 H       1  UNL1        0.1790
     13  C         16.7200  -23.5990   -6.3100 C.2     1  UNL1        0.0530
     14  C         15.6380  -24.1090   -5.5870 C.2     1  UNL1        0.0310
     15  C         15.3890  -23.6620   -4.2940 C.2     1  UNL1        0.0030
     16  C         16.2240  -22.7030   -3.7210 C.2     1  UNL1        0.0120
     17  C         17.3140  -22.1760   -4.4300 C.2     1  UNL1       -0.0240
     18  C         18.1460  -21.2110   -3.8370 C.2     1  UNL1        0.0120
     19  C         17.5770  -22.6170   -5.7510 C.2     1  UNL1        0.0010
     20  C         19.2290  -20.6730   -4.5300 C.2     1  UNL1        0.0010
     21  C         19.4950  -21.0910   -5.8290 C.2     1  UNL1        0.0010
     22  C         18.6790  -22.0510   -6.4330 C.2     1  UNL1        0.0140
     23  C         21.0430  -22.9950  -10.3430 C.2     1  UNL1        0.2560
     24  O         21.2610  -23.8510   -9.4970 O.2     1  UNL1       -0.2670
     25  N         21.9410  -22.4380  -11.2350 N.am    1  UNL1       -0.3230
     26  H         21.5660  -21.7870  -11.9130 H       1  UNL1        0.1690
     27  C         23.3210  -22.7130  -11.3420 C.2     1  UNL1        0.0350
     28  C         24.2470  -22.4640  -10.3290 C.2     1  UNL1        0.0290
     29  C         25.6000  -22.7590  -10.5160 C.2     1  UNL1        0.0030
     30  C         26.0410  -23.3070  -11.7180 C.2     1  UNL1        0.0160
     31  C         25.1280  -23.5720  -12.7470 C.2     1  UNL1        0.0500
     32  C         23.7710  -23.2620  -12.5500 C.2     1  UNL1        0.0450
     33  C         25.5960  -24.1440  -14.0620 C.3     1  UNL1        0.4170
     34  F         25.4960  -23.2660  -15.0980 F       1  UNL1       -0.1660
     35  F         24.8820  -25.2430  -14.4310 F       1  UNL1       -0.1660
     36  F         26.9010  -24.5390  -14.0340 F       1  UNL1       -0.1660
@<TRIPOS>BOND
     1    34    33    1
     2    35    33    1
     3    33    36    1
     4    33    31    1
     5    31    32    1
     6    31    30    2
     7    32    27    2
     8     1     2    1
     9    26    25    1
    10    30    29    1
    11     3     2    2
    12     3     4    1
    13     2     7    1
    14    27    25    1
    15    27    28    1
    16    25    23   am
    17     4     5    2
    18    29    28    2
    19     7    23    1
    20     7     6    2
    21    23    24    2
    22     5     6    1
    23     5     8    1
    24     9     8    2
    25     8    10    2
    26     8    11    1
    27    12    11    1
    28    11    13    1
    29    22    21    2
    30    22    19    1
    31    13    19    2
    32    13    14    1
    33    21    20    1
    34    19    17    1
    35    14    15    2
    36    20    18    2
    37    17    18    1
    38    17    16    2
    39    15    16    1
