@<TRIPOS>MOLECULE
50142_out_ligand_01.pdbqt
 34 36 0 0 0
SMALL
GASTEIGER

@<TRIPOS>ATOM
      1  C         17.9960  -21.0570  -11.4240 C.3     1  UNL1        0.0490
      2  C         19.4050  -21.5310  -11.1890 C.2     1  UNL1       -0.0460
      3  C         20.3710  -21.3310  -12.1920 C.2     1  UNL1        0.0090
      4  C         21.6970  -21.7280  -11.9980 C.2     1  UNL1        0.0250
      5  C         22.0700  -22.3260  -10.7920 C.2     1  UNL1        0.0750
      6  C         21.1280  -22.5520   -9.7860 C.2     1  UNL1        0.0420
      7  C         19.7950  -22.1760   -9.9980 C.2     1  UNL1        0.0390
      8  C         18.8300  -22.4910   -8.9140 C.2     1  UNL1        0.2560
      9  O         17.8640  -23.1880   -9.1860 O.2     1  UNL1       -0.2670
     10  N         19.1460  -21.9070   -7.7040 N.am    1  UNL1       -0.3230
     11  H         19.9760  -21.3260   -7.6850 H       1  UNL1        0.1690
     12  C         18.4320  -22.0010   -6.4930 C.2     1  UNL1        0.0350
     13  C         18.9870  -21.3660   -5.3750 C.2     1  UNL1        0.0290
     14  C         18.3480  -21.4170   -4.1350 C.2     1  UNL1        0.0030
     15  C         17.1390  -22.0980   -4.0030 C.2     1  UNL1        0.0160
     16  C         16.5580  -22.7280   -5.1120 C.2     1  UNL1        0.0500
     17  C         17.2210  -22.6800   -6.3530 C.2     1  UNL1        0.0450
     18  C         15.2480  -23.4630   -4.9860 C.3     1  UNL1        0.4170
     19  F         14.9880  -24.2680   -6.0530 F       1  UNL1       -0.1660
     20  F         14.1750  -22.6310   -4.8840 F       1  UNL1       -0.1660
     21  F         15.2030  -24.2640   -3.8860 F       1  UNL1       -0.1660
     22  S         23.7540  -22.8220  -10.5590 S.O2    1  UNL1        0.2410
     23  O         23.8640  -23.4980   -9.2840 O.2     1  UNL1       -0.2060
     24  O         24.2000  -23.4280  -11.7960 O.2     1  UNL1       -0.2060
     25  N         24.5270  -21.3290  -10.3460 N.3     1  UNL1       -0.2150
     26  H         24.4720  -21.0900   -9.3510 H       1  UNL1        0.1390
     27  C         25.9260  -21.2670  -10.8410 C.3     1  UNL1        0.1080
     28  C         26.0180  -20.3160  -12.0410 C.3     1  UNL1        0.0490
     29  C         25.7810  -20.9850  -13.3800 C.2     1  UNL1       -0.0830
     30  C         26.6230  -21.9150  -13.8660 C.2     1  UNL1       -0.0240
     31  C         26.4320  -22.6140  -15.1840 C.3     1  UNL1        0.0270
     32  C         25.0530  -22.3860  -15.8000 C.3     1  UNL1        0.0040
     33  C         24.6090  -20.9360  -15.6380 C.3     1  UNL1        0.0050
     34  C         24.5670  -20.5340  -14.1640 C.3     1  UNL1        0.0340
@<TRIPOS>BOND
     1    32    33    1
     2    32    31    1
     3    33    34    1
     4    31    30    1
     5    34    29    1
     6    30    29    2
     7    29    28    1
     8     3     4    1
     9     3     2    2
    10    28    27    1
    11     4     5    2
    12    24    22    2
    13     1     2    1
    14     2     7    1
    15    27    25    1
    16     5    22    1
    17     5     6    1
    18    22    25    1
    19    22    23    2
    20    25    26    1
    21     7     6    2
    22     7     8    1
    23     9     8    2
    24     8    10   am
    25    10    11    1
    26    10    12    1
    27    12    17    2
    28    12    13    1
    29    17    16    1
    30    19    18    1
    31    13    14    2
    32    16    18    1
    33    16    15    2
    34    18    20    1
    35    18    21    1
    36    14    15    1
