@<TRIPOS>MOLECULE
50144_out_ligand_01.pdbqt
 33 35 0 0 0
SMALL
GASTEIGER

@<TRIPOS>ATOM
      1  C         17.6890  -23.1930   -8.8330 C.2     1  UNL1        0.0800
      2  C         17.0400  -22.3270   -9.7170 C.2     1  UNL1        0.0260
      3  C         17.7620  -21.7230  -10.7490 C.2     1  UNL1        0.0090
      4  C         19.1330  -21.9810  -10.9140 C.2     1  UNL1       -0.0460
      5  C         19.8640  -21.3370  -12.0590 C.3     1  UNL1        0.0490
      6  C         19.7720  -22.8410   -9.9970 C.2     1  UNL1        0.0390
      7  C         19.0500  -23.4680   -8.9750 C.2     1  UNL1        0.0420
      8  C         21.2260  -23.1300  -10.0650 C.2     1  UNL1        0.2560
      9  O         21.6520  -24.0960   -9.4490 O.2     1  UNL1       -0.2670
     10  N         21.9390  -22.2100  -10.8100 N.am    1  UNL1       -0.3230
     11  H         21.4140  -21.4330  -11.1900 H       1  UNL1        0.1690
     12  C         23.3250  -22.2120  -11.0680 C.2     1  UNL1        0.0350
     13  C         24.2560  -21.4770  -10.3330 C.2     1  UNL1        0.0290
     14  C         25.6150  -21.5320  -10.6520 C.2     1  UNL1        0.0030
     15  C         26.0580  -22.3260  -11.7070 C.2     1  UNL1        0.0160
     16  C         25.1450  -23.0810  -12.4530 C.2     1  UNL1        0.0500
     17  C         23.7780  -23.0100  -12.1270 C.2     1  UNL1        0.0450
     18  C         25.6060  -23.9280  -13.6100 C.3     1  UNL1        0.4170
     19  F         24.7470  -24.9500  -13.8780 F       1  UNL1       -0.1660
     20  F         26.8180  -24.5110  -13.3870 F       1  UNL1       -0.1660
     21  F         25.7380  -23.2320  -14.7730 F       1  UNL1       -0.1660
     22  S         16.7590  -23.9800   -7.5420 S.O2    1  UNL1        0.2630
     23  O         17.6610  -24.7620   -6.7280 O.2     1  UNL1       -0.2000
     24  O         15.5980  -24.5840   -8.1630 O.2     1  UNL1       -0.2000
     25  N         16.1750  -22.6630   -6.6550 N.pl3   1  UNL1       -0.2800
     26  H         15.1630  -22.7210   -6.5520 H       1  UNL1        0.1790
     27  C         16.9260  -22.2260   -5.5260 C.2     1  UNL1        0.0480
     28  C         18.0840  -21.4770   -5.7530 C.2     1  UNL1        0.0300
     29  C         18.8780  -21.0700   -4.6820 C.2     1  UNL1        0.0020
     30  C         18.5180  -21.4160   -3.3830 C.2     1  UNL1        0.0010
     31  C         17.3620  -22.1650   -3.1530 C.2     1  UNL1        0.0090
     32  C         16.5460  -22.5720   -4.2200 C.2     1  UNL1       -0.0350
     33  C         15.3260  -23.4020   -3.9310 C.3     1  UNL1        0.0500
@<TRIPOS>BOND
     1    21    18    1
     2    19    18    1
     3    18    20    1
     4    18    16    1
     5    16    17    1
     6    16    15    2
     7    17    12    2
     8     5     4    1
     9    15    14    1
    10    11    10    1
    11    12    10    1
    12    12    13    1
    13     4     3    2
    14     4     6    1
    15    10     8   am
    16     3     2    1
    17    14    13    2
    18     8     6    1
    19     8     9    2
    20     6     7    2
    21     2     1    2
    22     7     1    1
    23     1    22    1
    24    24    22    2
    25    22    23    2
    26    22    25    1
    27    25    26    1
    28    25    27    1
    29    28    27    2
    30    28    29    1
    31    27    32    1
    32    29    30    2
    33    32    33    1
    34    32    31    2
    35    30    31    1
