@<TRIPOS>MOLECULE
50158_out_ligand_01.pdbqt
 33 35 0 0 0
SMALL
GASTEIGER

@<TRIPOS>ATOM
      1  C         17.7500  -21.3100  -11.4000 C.3     1  UNL1        0.0490
      2  C         19.1890  -21.6480  -11.1240 C.2     1  UNL1       -0.0460
      3  C         20.1560  -21.3830  -12.1060 C.2     1  UNL1        0.0090
      4  C         21.5060  -21.6520  -11.8700 C.2     1  UNL1        0.0250
      5  C         21.9020  -22.1900  -10.6430 C.2     1  UNL1        0.0750
      6  C         20.9570  -22.5000   -9.6660 C.2     1  UNL1        0.0420
      7  C         19.6050  -22.2330   -9.9110 C.2     1  UNL1        0.0390
      8  C         18.6510  -22.5610   -8.8260 C.2     1  UNL1        0.2560
      9  O         17.7170  -23.3060   -9.0920 O.2     1  UNL1       -0.2670
     10  N         18.9330  -21.9350   -7.6280 N.am    1  UNL1       -0.3230
     11  H         19.7160  -21.2920   -7.6300 H       1  UNL1        0.1690
     12  C         18.2310  -22.0580   -6.4130 C.2     1  UNL1        0.0350
     13  C         18.6830  -21.5420   -5.1980 C.2     1  UNL1        0.0290
     14  C         17.9270  -21.7040   -4.0330 C.2     1  UNL1        0.0030
     15  C         16.7110  -22.3820   -4.0730 C.2     1  UNL1        0.0160
     16  C         16.2320  -22.9000   -5.2840 C.2     1  UNL1        0.0500
     17  C         17.0070  -22.7390   -6.4460 C.2     1  UNL1        0.0450
     18  C         14.9280  -23.6530   -5.3350 C.3     1  UNL1        0.4170
     19  F         13.8420  -22.8290   -5.3660 F       1  UNL1       -0.1660
     20  F         14.8270  -24.4430   -6.4400 F       1  UNL1       -0.1660
     21  F         14.7380  -24.4760   -4.2670 F       1  UNL1       -0.1660
     22  S         23.6180  -22.5390  -10.3490 S.O2    1  UNL1        0.2450
     23  O         23.6770  -23.4290   -9.2090 O.2     1  UNL1       -0.2060
     24  O         24.3470  -21.2910  -10.3620 O.2     1  UNL1       -0.2060
     25  N         24.0360  -23.4780  -11.6980 N.pl3   1  UNL1       -0.1800
     26  H         24.3220  -24.4050  -11.3760 H       1  UNL1        0.1460
     27  C         24.9040  -22.8720  -12.6620 C.2     1  UNL1        0.0400
     28  C         24.3430  -22.1610  -13.7240 C.2     1  UNL1        0.0260
     29  C         25.1650  -21.4970  -14.6370 C.2     1  UNL1        0.0020
     30  C         26.5520  -21.5450  -14.4920 C.2     1  UNL1        0.0010
     31  C         27.1210  -22.2560  -13.4350 C.2     1  UNL1        0.0210
     32  C         26.2990  -22.9170  -12.5190 C.2     1  UNL1        0.0330
     33 BR         27.1200  -23.8840  -11.1060 Br      1  UNL1       -0.0490
@<TRIPOS>BOND
     1    29    30    2
     2    29    28    1
     3    30    31    1
     4    28    27    2
     5    31    32    2
     6    27    32    1
     7    27    25    1
     8    32    33    1
     9     3     4    1
    10     3     2    2
    11     4     5    2
    12    25    26    1
    13    25    22    1
    14     1     2    1
    15     2     7    1
    16     5    22    1
    17     5     6    1
    18    24    22    2
    19    22    23    2
    20     7     6    2
    21     7     8    1
    22     9     8    2
    23     8    10   am
    24    11    10    1
    25    10    12    1
    26    17    12    2
    27    17    16    1
    28    20    18    1
    29    12    13    1
    30    19    18    1
    31    18    16    1
    32    18    21    1
    33    16    15    2
    34    13    14    2
    35    15    14    1
