@<TRIPOS>MOLECULE
50159_out_ligand_01.pdbqt
 33 35 0 0 0
SMALL
GASTEIGER

@<TRIPOS>ATOM
      1  C         17.8040  -21.1080  -11.3300 C.3     1  UNL1        0.0490
      2  C         19.2350  -21.5310  -11.1490 C.2     1  UNL1       -0.0460
      3  C         20.1620  -21.2510  -12.1670 C.2     1  UNL1        0.0090
      4  C         21.5100  -21.5830  -12.0180 C.2     1  UNL1        0.0260
      5  C         21.9430  -22.2000  -10.8420 C.2     1  UNL1        0.0800
      6  C         21.0370  -22.5280   -9.8340 C.2     1  UNL1        0.0420
      7  C         19.6860  -22.2030   -9.9940 C.2     1  UNL1        0.0390
      8  C         18.7800  -22.5650   -8.8750 C.2     1  UNL1        0.2560
      9  O         17.9080  -23.3940   -9.0970 O.2     1  UNL1       -0.2670
     10  N         19.0140  -21.8620   -7.7110 N.am    1  UNL1       -0.3230
     11  H         19.7210  -21.1380   -7.7550 H       1  UNL1        0.1690
     12  C         18.3450  -22.0030   -6.4800 C.2     1  UNL1        0.0350
     13  C         18.8250  -21.5010   -5.2710 C.2     1  UNL1        0.0290
     14  C         18.0960  -21.6720   -4.0900 C.2     1  UNL1        0.0030
     15  C         16.8780  -22.3480   -4.1080 C.2     1  UNL1        0.0160
     16  C         16.3790  -22.8680   -5.3090 C.2     1  UNL1        0.0500
     17  C         17.1190  -22.6820   -6.4900 C.2     1  UNL1        0.0450
     18  C         15.0540  -23.5850   -5.3520 C.3     1  UNL1        0.4170
     19  F         14.8560  -24.3690   -4.2570 F       1  UNL1       -0.1660
     20  F         13.9930  -22.7300   -5.3930 F       1  UNL1       -0.1660
     21  F         14.9120  -24.4040   -6.4310 F       1  UNL1       -0.1660
     22  S         23.6640  -22.5840  -10.6150 S.O2    1  UNL1        0.2630
     23  O         24.4110  -21.3760  -10.8990 O.2     1  UNL1       -0.2000
     24  O         23.8070  -23.2750   -9.3510 O.2     1  UNL1       -0.2000
     25  N         23.9800  -23.6560  -11.8820 N.pl3   1  UNL1       -0.2810
     26  H         23.9810  -24.6250  -11.5690 H       1  UNL1        0.1790
     27  C         24.9240  -23.2800  -12.8800 C.2     1  UNL1        0.0430
     28  C         26.2170  -23.8030  -12.8660 C.2     1  UNL1        0.0300
     29  C         27.1190  -23.4670  -13.8770 C.2     1  UNL1        0.0040
     30  C         26.7250  -22.6110  -14.9050 C.2     1  UNL1        0.0190
     31  C         25.4300  -22.0940  -14.9140 C.2     1  UNL1        0.0130
     32 BR         24.8910  -20.9460  -16.3170 Br      1  UNL1       -0.0510
     33  C         24.5250  -22.4210  -13.9050 C.2     1  UNL1        0.0490
@<TRIPOS>BOND
     1    32    31    1
     2    31    30    2
     3    31    33    1
     4    30    29    1
     5    33    27    2
     6    29    28    2
     7    27    28    1
     8    27    25    1
     9     3     4    1
    10     3     2    2
    11     4     5    2
    12    25    26    1
    13    25    22    1
    14     1     2    1
    15     2     7    1
    16    23    22    2
    17     5    22    1
    18     5     6    1
    19    22    24    2
    20     7     6    2
    21     7     8    1
    22     9     8    2
    23     8    10   am
    24    11    10    1
    25    10    12    1
    26    17    12    2
    27    17    16    1
    28    12    13    1
    29    21    18    1
    30    20    18    1
    31    18    16    1
    32    18    19    1
    33    16    15    2
    34    13    14    2
    35    15    14    1
