@<TRIPOS>MOLECULE
50163_out_ligand_01.pdbqt
 34 36 0 0 0
SMALL
GASTEIGER

@<TRIPOS>ATOM
      1  C         19.6150  -21.0880  -11.8230 C.3     1  UNL1        0.0490
      2  C         18.9030  -21.8970  -10.7740 C.2     1  UNL1       -0.0460
      3  C         17.5160  -21.7400  -10.6230 C.2     1  UNL1        0.0090
      4  C         16.8210  -22.4390   -9.6330 C.2     1  UNL1        0.0250
      5  C         17.5110  -23.3100   -8.7870 C.2     1  UNL1        0.0750
      6  C         18.8870  -23.4910   -8.9200 C.2     1  UNL1        0.0420
      7  C         19.5760  -22.8040   -9.9300 C.2     1  UNL1        0.0390
      8  C         21.0320  -23.0690  -10.0410 C.2     1  UNL1        0.2560
      9  O         21.4790  -24.0700   -9.4990 O.2     1  UNL1       -0.2670
     10  N         21.7110  -22.1460  -10.8130 N.am    1  UNL1       -0.3230
     11  H         21.1540  -21.4230  -11.2510 H       1  UNL1        0.1690
     12  C         23.0930  -22.1220  -11.0970 C.2     1  UNL1        0.0350
     13  C         24.0350  -21.4410  -10.3250 C.2     1  UNL1        0.0290
     14  C         25.3870  -21.4600  -10.6760 C.2     1  UNL1        0.0030
     15  C         25.8120  -22.1600  -11.8030 C.2     1  UNL1        0.0160
     16  C         24.8850  -22.8570  -12.5900 C.2     1  UNL1        0.0500
     17  C         23.5260  -22.8220  -12.2300 C.2     1  UNL1        0.0450
     18  C         25.3260  -23.6010  -13.8240 C.3     1  UNL1        0.4170
     19  F         24.8500  -23.0340  -14.9670 F       1  UNL1       -0.1660
     20  F         26.6790  -23.6570  -13.9680 F       1  UNL1       -0.1660
     21  F         24.8970  -24.8940  -13.8430 F       1  UNL1       -0.1660
     22  S         16.6210  -24.1610   -7.5070 S.O2    1  UNL1        0.2450
     23  O         17.5920  -24.8360   -6.6760 O.2     1  UNL1       -0.2060
     24  O         15.5110  -24.8610   -8.1140 O.2     1  UNL1       -0.2060
     25  N         15.9640  -22.8290   -6.6580 N.pl3   1  UNL1       -0.1800
     26  H         15.0840  -23.1560   -6.2440 H       1  UNL1        0.1460
     27  C         16.8250  -22.3330   -5.6050 C.2     1  UNL1        0.0460
     28  C         17.9460  -21.5730   -5.9410 C.2     1  UNL1        0.0490
     29  C         18.8000  -21.1210   -4.9350 C.2     1  UNL1        0.0350
     30 CL         20.1780  -20.1770   -5.3460 Cl      1  UNL1       -0.0840
     31  C         18.5450  -21.4220   -3.5970 C.2     1  UNL1        0.0260
     32  C         17.4240  -22.1800   -3.2560 C.2     1  UNL1        0.0270
     33  C         16.5650  -22.6360   -4.2590 C.2     1  UNL1        0.0560
     34 CL         15.1670  -23.5440   -3.8070 Cl      1  UNL1       -0.0820
@<TRIPOS>BOND
     1    19    18    1
     2    20    18    1
     3    21    18    1
     4    18    16    1
     5    16    17    1
     6    16    15    2
     7    17    12    2
     8     1     2    1
     9    15    14    1
    10    11    10    1
    11    12    10    1
    12    12    13    1
    13    10     8   am
    14     2     3    2
    15     2     7    1
    16    14    13    2
    17     3     4    1
    18     8     7    1
    19     8     9    2
    20     7     6    2
    21     4     5    2
    22     6     5    1
    23     5    22    1
    24    24    22    2
    25    22    23    2
    26    22    25    1
    27    25    26    1
    28    25    27    1
    29    28    27    2
    30    28    29    1
    31    27    33    1
    32    30    29    1
    33    29    31    2
    34    33    34    1
    35    33    32    2
    36    31    32    1
