@<TRIPOS>MOLECULE
50166_out_ligand_01.pdbqt
 38 40 0 0 0
SMALL
GASTEIGER

@<TRIPOS>ATOM
      1  C         17.8740  -21.9210  -10.5030 C.3     1  UNL1        0.0490
      2  C         19.3630  -22.1240  -10.4620 C.2     1  UNL1       -0.0460
      3  C         20.1170  -21.8370  -11.6140 C.2     1  UNL1        0.0090
      4  C         21.5080  -21.9650  -11.6080 C.2     1  UNL1        0.0260
      5  C         22.1580  -22.3750  -10.4410 C.2     1  UNL1        0.0800
      6  C         21.4300  -22.7070   -9.2990 C.2     1  UNL1        0.0420
      7  C         20.0340  -22.5960   -9.3150 C.2     1  UNL1        0.0390
      8  S         23.9310  -22.5100  -10.4310 S.O2    1  UNL1        0.2630
      9  O         24.4890  -21.1740  -10.4260 O.2     1  UNL1       -0.2000
     10  O         24.2790  -23.4680   -9.4040 O.2     1  UNL1       -0.2000
     11  N         24.2660  -23.2570  -11.9010 N.pl3   1  UNL1       -0.2810
     12  H         23.6950  -24.0900  -12.0450 H       1  UNL1        0.1790
     13  C         24.7060  -22.5280  -13.0400 C.2     1  UNL1        0.0420
     14  C         26.0360  -22.5280  -13.4690 C.2     1  UNL1        0.0310
     15  C         26.4120  -21.8140  -14.6110 C.2     1  UNL1        0.0270
     16  C         25.4390  -21.1310  -15.3440 C.2     1  UNL1        0.0740
     17  C         24.1030  -21.1400  -14.9360 C.2     1  UNL1        0.0270
     18  C         23.7410  -21.8500  -13.7890 C.2     1  UNL1        0.0310
     19  S         25.9040  -20.2300  -16.8010 S.O2    1  UNL1        0.2390
     20  O         26.6830  -21.1000  -17.6500 O.2     1  UNL1       -0.2060
     21  O         26.3530  -18.9160  -16.4040 O.2     1  UNL1       -0.2060
     22  N         24.4140  -20.0480  -17.5690 N.3     1  UNL1       -0.2250
     23  H         23.6380  -19.9260  -16.9230 H       1  UNL1        0.1360
     24  H         24.2700  -20.8410  -18.1960 H       1  UNL1        0.1360
     25  C         19.3250  -22.9680   -8.0660 C.2     1  UNL1        0.2560
     26  O         19.0000  -24.1380   -7.9190 O.2     1  UNL1       -0.2670
     27  N         19.0720  -21.9040   -7.2240 N.am    1  UNL1       -0.3230
     28  H         19.3210  -20.9850   -7.5700 H       1  UNL1        0.1690
     29  C         18.4570  -21.9460   -5.9550 C.2     1  UNL1        0.0350
     30  C         18.9840  -21.3360   -4.8150 C.2     1  UNL1        0.0290
     31  C         18.3090  -21.4110   -3.5930 C.2     1  UNL1        0.0030
     32  C         17.1010  -22.0990   -3.5000 C.2     1  UNL1        0.0160
     33  C         16.5550  -22.7230   -4.6290 C.2     1  UNL1        0.0500
     34  C         17.2400  -22.6340   -5.8550 C.2     1  UNL1        0.0450
     35  C         15.2370  -23.4520   -4.5330 C.3     1  UNL1        0.4170
     36  F         14.1920  -22.6240   -4.2560 F       1  UNL1       -0.1660
     37  F         14.9120  -24.0930   -5.6890 F       1  UNL1       -0.1660
     38  F         15.2190  -24.4080   -3.5610 F       1  UNL1       -0.1660
@<TRIPOS>BOND
     1    24    22    1
     2    20    19    2
     3    22    23    1
     4    22    19    1
     5    19    21    2
     6    19    16    1
     7    16    17    2
     8    16    15    1
     9    17    18    1
    10    15    14    2
    11    18    13    2
    12    14    13    1
    13    13    11    1
    14    12    11    1
    15    11     8    1
    16     3     4    1
    17     3     2    2
    18     4     5    2
    19     1     2    1
    20     2     7    1
    21     5     8    1
    22     5     6    1
    23     8     9    2
    24     8    10    2
    25     7     6    2
    26     7    25    1
    27    25    26    2
    28    25    27   am
    29    28    27    1
    30    27    29    1
    31    29    34    2
    32    29    30    1
    33    34    33    1
    34    37    35    1
    35    30    31    2
    36    33    35    1
    37    33    32    2
    38    35    36    1
    39    35    38    1
    40    31    32    1
