@<TRIPOS>MOLECULE
50162_out_ligand_01.pdbqt
 34 36 0 0 0
SMALL
GASTEIGER

@<TRIPOS>ATOM
      1  C         17.3690  -23.2550   -8.7590 C.2     1  UNL1        0.0750
      2  C         16.6320  -22.3370   -9.5110 C.2     1  UNL1        0.0250
      3  C         17.2560  -21.6230  -10.5360 C.2     1  UNL1        0.0090
      4  C         18.6190  -21.8140  -10.8170 C.2     1  UNL1       -0.0460
      5  C         19.2380  -21.0570  -11.9610 C.3     1  UNL1        0.0490
      6  C         19.3560  -22.7060  -10.0120 C.2     1  UNL1        0.0390
      7  C         18.7310  -23.4390   -8.9940 C.2     1  UNL1        0.0420
      8  C         20.8090  -22.9400  -10.2030 C.2     1  UNL1        0.2560
      9  O         21.2840  -23.9760   -9.7610 O.2     1  UNL1       -0.2670
     10  N         21.4630  -21.9030  -10.8360 N.am    1  UNL1       -0.3230
     11  H         20.9070  -21.0850  -11.0570 H       1  UNL1        0.1690
     12  C         22.8320  -21.8290  -11.1670 C.2     1  UNL1        0.0350
     13  C         23.8420  -21.5530  -10.2450 C.2     1  UNL1        0.0290
     14  C         25.1780  -21.4950  -10.6530 C.2     1  UNL1        0.0030
     15  C         25.5170  -21.7190  -11.9860 C.2     1  UNL1        0.0160
     16  C         24.5200  -22.0060  -12.9280 C.2     1  UNL1        0.0500
     17  C         23.1790  -22.0550  -12.5060 C.2     1  UNL1        0.0450
     18  C         24.8610  -22.2400  -14.3770 C.3     1  UNL1        0.4170
     19  F         23.8710  -21.8310  -15.2180 F       1  UNL1       -0.1660
     20  F         25.0920  -23.5470  -14.6820 F       1  UNL1       -0.1660
     21  F         25.9780  -21.5610  -14.7620 F       1  UNL1       -0.1660
     22  S         16.5630  -24.1670   -7.4660 S.O2    1  UNL1        0.2450
     23  O         15.4270  -24.8540   -8.0430 O.2     1  UNL1       -0.2060
     24  O         17.5900  -24.8690   -6.7290 O.2     1  UNL1       -0.2060
     25  N         15.9340  -22.8810   -6.5370 N.pl3   1  UNL1       -0.1810
     26  H         15.0640  -23.2210   -6.1210 H       1  UNL1        0.1460
     27  C         16.8270  -22.4130   -5.5100 C.2     1  UNL1        0.0300
     28  C         17.9120  -21.6050   -5.8640 C.2     1  UNL1        0.0480
     29  C         18.7500  -21.1080   -4.8700 C.2     1  UNL1        0.0350
     30  C         18.5090  -21.3960   -3.5290 C.2     1  UNL1        0.0240
     31 CL         20.0940  -20.1230   -5.3000 Cl      1  UNL1       -0.0840
     32  C         17.4140  -22.1890   -3.1760 C.2     1  UNL1        0.0100
     33  C         16.5650  -22.7130   -4.1630 C.2     1  UNL1       -0.0400
     34  C         15.3800  -23.5410   -3.7520 C.3     1  UNL1        0.0500
@<TRIPOS>BOND
     1    19    18    1
     2    21    18    1
     3    20    18    1
     4    18    16    1
     5    16    17    1
     6    16    15    2
     7    17    12    2
     8    15    14    1
     9     5     4    1
    10    12    10    1
    11    12    13    1
    12    11    10    1
    13    10     8   am
    14     4     3    2
    15     4     6    1
    16    14    13    2
    17     3     2    1
    18     8     6    1
    19     8     9    2
    20     6     7    2
    21     2     1    2
    22     7     1    1
    23     1    22    1
    24    23    22    2
    25    22    24    2
    26    22    25    1
    27    25    26    1
    28    25    27    1
    29    28    27    2
    30    28    29    1
    31    27    33    1
    32    31    29    1
    33    29    30    2
    34    33    34    1
    35    33    32    2
    36    30    32    1
