@<TRIPOS>MOLECULE
50161_out_ligand_01.pdbqt
 34 36 0 0 0
SMALL
GASTEIGER

@<TRIPOS>ATOM
      1  C         17.4190  -21.2490  -11.0210 C.3     1  UNL1        0.0490
      2  C         18.8700  -21.6160  -10.8840 C.2     1  UNL1       -0.0460
      3  C         19.7400  -21.3800  -11.9610 C.2     1  UNL1        0.0090
      4  C         21.1020  -21.6790  -11.8590 C.2     1  UNL1        0.0260
      5  C         21.6040  -22.2160  -10.6710 C.2     1  UNL1        0.0800
      6  C         20.7570  -22.4840   -9.5950 C.2     1  UNL1        0.0420
      7  C         19.3930  -22.1940   -9.7100 C.2     1  UNL1        0.0390
      8  C         18.5440  -22.4990   -8.5350 C.2     1  UNL1        0.2560
      9  O         17.6040  -23.2650   -8.6920 O.2     1  UNL1       -0.2670
     10  N         18.9140  -21.8230   -7.3910 N.am    1  UNL1       -0.3230
     11  H         19.6720  -21.1570   -7.4830 H       1  UNL1        0.1690
     12  C         18.3220  -21.9160   -6.1150 C.2     1  UNL1        0.0350
     13  C         18.9700  -21.2610   -5.0610 C.2     1  UNL1        0.0290
     14  C         18.4490  -21.3060   -3.7660 C.2     1  UNL1        0.0030
     15  C         17.2740  -22.0090   -3.5120 C.2     1  UNL1        0.0160
     16  C         16.6130  -22.6790   -4.5510 C.2     1  UNL1        0.0500
     17  C         17.1470  -22.6220   -5.8520 C.2     1  UNL1        0.0450
     18  C         15.3340  -23.4380   -4.2980 C.3     1  UNL1        0.4170
     19  F         15.4560  -24.3430   -3.2870 F       1  UNL1       -0.1660
     20  F         14.2940  -22.6270   -3.9570 F       1  UNL1       -0.1660
     21  F         14.9070  -24.1490   -5.3810 F       1  UNL1       -0.1660
     22  S         23.3300  -22.5940  -10.5270 S.O2    1  UNL1        0.2630
     23  O         23.5200  -23.4710   -9.3920 O.2     1  UNL1       -0.2000
     24  O         24.0440  -21.3400  -10.6300 O.2     1  UNL1       -0.2000
     25  N         23.6450  -23.4410  -11.9530 N.pl3   1  UNL1       -0.2800
     26  H         22.7890  -23.7360  -12.4220 H       1  UNL1        0.1790
     27  C         24.7490  -23.0370  -12.7550 C.2     1  UNL1        0.0500
     28  C         25.9890  -23.6240  -12.4760 C.2     1  UNL1        0.0310
     29  C         27.1210  -23.2570  -13.1980 C.2     1  UNL1        0.0040
     30  C         27.0170  -22.2970  -14.1970 C.2     1  UNL1        0.0240
     31  C         25.7800  -21.7050  -14.4780 C.2     1  UNL1        0.0420
     32 CL         25.7420  -20.5110  -15.7290 Cl      1  UNL1       -0.0840
     33  C         24.6200  -22.0690  -13.7660 C.2     1  UNL1       -0.0130
     34  C         23.3050  -21.4030  -14.0730 C.3     1  UNL1        0.0520
@<TRIPOS>BOND
     1    32    31    1
     2    31    30    2
     3    31    33    1
     4    30    29    1
     5    34    33    1
     6    33    27    2
     7    29    28    2
     8    27    28    1
     9    27    25    1
    10    26    25    1
    11     3     4    1
    12     3     2    2
    13    25    22    1
    14     4     5    2
    15     1     2    1
    16     2     7    1
    17     5    22    1
    18     5     6    1
    19    24    22    2
    20    22    23    2
    21     7     6    2
    22     7     8    1
    23     9     8    2
    24     8    10   am
    25    11    10    1
    26    10    12    1
    27    12    17    2
    28    12    13    1
    29    17    16    1
    30    21    18    1
    31    13    14    2
    32    16    18    1
    33    16    15    2
    34    18    20    1
    35    18    19    1
    36    14    15    1
