@<TRIPOS>MOLECULE
5016_out_ligand_01.pdbqt
 29 31 0 0 0
SMALL
GASTEIGER

@<TRIPOS>ATOM
      1  N         19.0280  -20.6650  -12.1270 N.1     1  UNL1       -0.1910
      2  C         19.9130  -21.1580  -11.5590 C.1     1  UNL1        0.1020
      3  C         21.0400  -21.8400  -10.9900 C.2     1  UNL1        0.0790
      4  C         22.1080  -22.3360  -11.8150 C.2     1  UNL1        0.0330
      5  C         23.0490  -23.0390  -11.0990 C.2     1  UNL1        0.0530
      6  S         22.6460  -23.1230   -9.4430 S.3     1  UNL1       -0.0830
      7  C         21.2430  -22.1690   -9.6660 C.2     1  UNL1        0.0970
      8  N         20.6000  -21.9510   -8.4670 N.am    1  UNL1       -0.3160
      9  C         19.7750  -22.8610   -7.8470 C.2     1  UNL1        0.2560
     10  O         19.4230  -23.9420   -8.2980 O.2     1  UNL1       -0.2670
     11  H         20.5970  -20.9900   -8.1450 H       1  UNL1        0.1690
     12  C         19.2210  -22.4220   -6.5360 C.2     1  UNL1        0.0340
     13  C         19.5380  -21.1750   -5.9820 C.2     1  UNL1        0.0170
     14  C         18.9920  -20.8030   -4.7510 C.2     1  UNL1        0.0030
     15  C         18.1440  -21.6770   -4.0710 C.2     1  UNL1        0.0240
     16  C         17.8540  -22.9310   -4.6090 C.2     1  UNL1        0.0230
     17  C         18.3810  -23.3030   -5.8440 C.2     1  UNL1        0.0410
     18  N         16.9490  -23.8050   -3.9210 N.pl3   1  UNL1       -0.1810
     19  H         17.1980  -24.7850   -4.0720 H       1  UNL1        0.1460
     20  S         15.3170  -23.6090   -4.3830 S.O2    1  UNL1        0.2450
     21  O         14.9000  -22.3090   -3.9030 O.2     1  UNL1       -0.2060
     22  O         14.5730  -24.8130   -4.0870 O.2     1  UNL1       -0.2060
     23  C         15.4920  -23.5140   -6.1500 C.2     1  UNL1        0.0750
     24  C         15.4930  -22.2560   -6.7640 C.2     1  UNL1        0.0280
     25  C         15.6390  -22.1700   -8.1490 C.2     1  UNL1        0.0440
     26  C         15.7870  -23.3350   -8.8980 C.2     1  UNL1        0.1160
     27  F         15.9270  -23.2500  -10.2260 F       1  UNL1       -0.2060
     28  C         15.7950  -24.5880   -8.2880 C.2     1  UNL1        0.0440
     29  C         15.6500  -24.6830   -6.9030 C.2     1  UNL1        0.0280
@<TRIPOS>BOND
     1     1     2    3
     2     4     5    2
     3     4     3    1
     4     2     3    1
     5     5     6    1
     6     3     7    2
     7    27    26    1
     8     7     6    1
     9     7     8    1
    10    26    28    2
    11    26    25    1
    12     8    11    1
    13     8     9   am
    14    10     9    2
    15    28    29    1
    16    25    24    2
    17     9    12    1
    18    29    23    2
    19    24    23    1
    20    12    13    2
    21    12    17    1
    22    23    20    1
    23    13    14    1
    24    17    16    2
    25    14    15    2
    26    16    15    1
    27    16    18    1
    28    20    22    2
    29    20    18    1
    30    20    21    2
    31    19    18    1
