@<TRIPOS>MOLECULE
50165_out_ligand_01.pdbqt
 37 39 0 0 0
SMALL
GASTEIGER

@<TRIPOS>ATOM
      1  C         18.2380  -21.9260  -11.0850 C.3     1  UNL1        0.0490
      2  C         19.7270  -22.0660  -10.9340 C.2     1  UNL1       -0.0460
      3  C         20.5610  -21.7120  -12.0130 C.2     1  UNL1        0.0090
      4  C         21.9470  -21.8860  -11.9390 C.2     1  UNL1        0.0260
      5  C         22.5140  -22.4110  -10.7750 C.2     1  UNL1        0.0800
      6  C         21.7080  -22.7550   -9.6830 C.2     1  UNL1        0.0420
      7  C         20.3220  -22.5740   -9.7610 C.2     1  UNL1        0.0390
      8  S         24.2670  -22.6640  -10.6270 S.O2    1  UNL1        0.2630
      9  O         24.4600  -23.4500   -9.4260 O.2     1  UNL1       -0.2000
     10  O         24.9150  -21.3830  -10.8110 O.2     1  UNL1       -0.2000
     11  N         24.6720  -23.6730  -11.8960 N.pl3   1  UNL1       -0.2810
     12  H         25.1080  -24.5360  -11.5770 H       1  UNL1        0.1790
     13  C         24.8370  -23.2910  -13.2550 C.2     1  UNL1        0.0420
     14  C         24.6020  -22.0090  -13.7530 C.2     1  UNL1        0.0310
     15  C         24.7360  -21.7420  -15.1240 C.2     1  UNL1        0.0190
     16  C         25.0780  -22.7670  -16.0160 C.2     1  UNL1        0.0320
     17  C         25.2980  -24.0530  -15.5160 C.2     1  UNL1        0.0190
     18  C         25.1690  -24.3120  -14.1500 C.2     1  UNL1        0.0310
     19  C         25.2440  -22.5550  -17.4820 C.2     1  UNL1        0.2490
     20  N         24.2690  -21.8750  -18.1520 N.am    1  UNL1       -0.3660
     21  H         23.3840  -21.6110  -17.7530 H       1  UNL1        0.1590
     22  H         24.3860  -21.8060  -19.1560 H       1  UNL1        0.1590
     23  O         26.2160  -22.9970  -18.0840 O.2     1  UNL1       -0.2680
     24  C         19.5290  -23.0000   -8.5820 C.2     1  UNL1        0.2560
     25  O         19.3380  -24.1980   -8.4310 O.2     1  UNL1       -0.2670
     26  N         19.1440  -21.9680   -7.7530 N.am    1  UNL1       -0.3230
     27  H         19.4880  -21.0470   -7.9860 H       1  UNL1        0.1690
     28  C         18.3740  -22.0620   -6.5760 C.2     1  UNL1        0.0350
     29  C         18.9140  -21.5110   -5.4080 C.2     1  UNL1        0.0290
     30  C         18.2160  -21.5680   -4.2000 C.2     1  UNL1        0.0030
     31  C         16.9670  -22.1730   -4.1480 C.2     1  UNL1        0.0160
     32  C         16.4000  -22.7190   -5.3090 C.2     1  UNL1        0.0500
     33  C         17.1180  -22.6610   -6.5180 C.2     1  UNL1        0.0450
     34  C         15.0530  -23.3890   -5.2710 C.3     1  UNL1        0.4170
     35  F         14.8450  -24.1060   -4.1340 F       1  UNL1       -0.1660
     36  F         14.8590  -24.2670   -6.2970 F       1  UNL1       -0.1660
     37  F         14.0320  -22.4960   -5.3450 F       1  UNL1       -0.1660
@<TRIPOS>BOND
     1    22    20    1
     2    20    21    1
     3    20    19   am
     4    23    19    2
     5    19    16    1
     6    16    17    2
     7    16    15    1
     8    17    18    1
     9    15    14    2
    10    18    13    2
    11    14    13    1
    12    13    11    1
    13     3     4    1
    14     3     2    2
    15     4     5    2
    16    11    12    1
    17    11     8    1
    18     1     2    1
    19     2     7    1
    20    10     8    2
    21     5     8    1
    22     5     6    1
    23     8     9    2
    24     7     6    2
    25     7    24    1
    26    24    25    2
    27    24    26   am
    28    27    26    1
    29    26    28    1
    30    28    33    2
    31    28    29    1
    32    33    32    1
    33    36    34    1
    34    29    30    2
    35    37    34    1
    36    32    34    1
    37    32    31    2
    38    34    35    1
    39    30    31    1
