@<TRIPOS>MOLECULE
50185_out_ligand_01.pdbqt
 36 38 0 0 0
SMALL
GASTEIGER

@<TRIPOS>ATOM
      1  C         21.9920  -22.1640  -10.6520 C.2     1  UNL1        0.0800
      2  C         21.5560  -21.6210  -11.8630 C.2     1  UNL1        0.0260
      3  C         20.1960  -21.3630  -12.0580 C.2     1  UNL1        0.0090
      4  C         19.2610  -21.6410  -11.0480 C.2     1  UNL1       -0.0460
      5  C         17.8120  -21.3130  -11.2730 C.3     1  UNL1        0.0490
      6  C         19.7190  -22.2250   -9.8500 C.2     1  UNL1        0.0390
      7  C         21.0780  -22.4870   -9.6480 C.2     1  UNL1        0.0420
      8  S         23.7160  -22.4970  -10.3950 S.O2    1  UNL1        0.2630
      9  O         23.8380  -23.2210   -9.1480 O.2     1  UNL1       -0.2000
     10  O         24.4460  -21.2710  -10.6230 O.2     1  UNL1       -0.2000
     11  N         24.0600  -23.6150  -11.6050 N.pl3   1  UNL1       -0.2800
     12  H         24.0800  -24.5780  -11.2710 H       1  UNL1        0.1790
     13  C         24.9100  -23.2530  -12.6840 C.2     1  UNL1        0.0510
     14  C         24.3460  -22.7210  -13.8470 C.2     1  UNL1        0.0660
     15  C         25.1770  -22.3500  -14.9100 C.2     1  UNL1        0.1050
     16  C         26.5650  -22.5020  -14.8170 C.2     1  UNL1        0.0370
     17  C         27.1200  -23.0050  -13.6400 C.2     1  UNL1        0.0110
     18  C         26.3040  -23.3650  -12.5530 C.2     1  UNL1       -0.0350
     19  C         26.9740  -23.8800  -11.3100 C.3     1  UNL1        0.0500
     20  N         24.5870  -21.7980  -16.1340 N.pl3   1  UNL1       -0.1160
     21  O         24.2050  -22.5980  -17.0000 O.2     1  UNL1       -0.5320
     22  O         24.5200  -20.5650  -16.2380 O.2     1  UNL1       -0.5320
     23  C         18.8030  -22.5380   -8.7290 C.2     1  UNL1        0.2560
     24  O         17.9200  -23.3590   -8.9330 O.2     1  UNL1       -0.2670
     25  N         19.0630  -21.8210   -7.5810 N.am    1  UNL1       -0.3230
     26  H         19.7980  -21.1270   -7.6370 H       1  UNL1        0.1690
     27  C         18.4030  -21.9230   -6.3400 C.2     1  UNL1        0.0350
     28  C         19.0070  -21.2990   -5.2410 C.2     1  UNL1        0.0290
     29  C         18.4200  -21.3570   -3.9760 C.2     1  UNL1        0.0030
     30  C         17.2230  -22.0460   -3.7960 C.2     1  UNL1        0.0160
     31  C         16.6050  -22.6850   -4.8800 C.2     1  UNL1        0.0500
     32  C         17.2020  -22.6110   -6.1510 C.2     1  UNL1        0.0450
     33  C         15.3020  -23.4200   -4.6780 C.3     1  UNL1        0.4170
     34  F         15.3530  -24.2930   -3.6330 F       1  UNL1       -0.1660
     35  F         14.2700  -22.5750   -4.4030 F       1  UNL1       -0.1660
     36  F         14.9100  -24.1570   -5.7530 F       1  UNL1       -0.1660
@<TRIPOS>BOND
     1    21    20    2
     2    22    20    2
     3    20    15    1
     4    15    16    2
     5    15    14    1
     6    16    17    1
     7    14    13    2
     8    17    18    2
     9    13    18    1
    10    13    11    1
    11    18    19    1
    12     3     2    1
    13     3     4    2
    14     2     1    2
    15    11    12    1
    16    11     8    1
    17     5     4    1
    18     4     6    1
    19     1     8    1
    20     1     7    1
    21    10     8    2
    22     8     9    2
    23     6     7    2
    24     6    23    1
    25    24    23    2
    26    23    25   am
    27    26    25    1
    28    25    27    1
    29    27    32    2
    30    27    28    1
    31    32    31    1
    32    36    33    1
    33    28    29    2
    34    31    33    1
    35    31    30    2
    36    33    35    1
    37    33    34    1
    38    29    30    1
