@<TRIPOS>MOLECULE
50186_out_ligand_01.pdbqt
 36 38 0 0 0
SMALL
GASTEIGER

@<TRIPOS>ATOM
      1  C         21.1610  -21.2080  -12.4850 C.3     1  UNL1        0.0490
      2  C         20.2670  -21.7500  -11.4040 C.2     1  UNL1       -0.0460
      3  C         18.9270  -21.3300  -11.3560 C.2     1  UNL1        0.0090
      4  C         18.0540  -21.8330  -10.3880 C.2     1  UNL1        0.0250
      5  C         18.5150  -22.7710   -9.4620 C.2     1  UNL1        0.0750
      6  C         19.8490  -23.1810   -9.4670 C.2     1  UNL1        0.0420
      7  C         20.7240  -22.6590  -10.4270 C.2     1  UNL1        0.0390
      8  S         17.4180  -23.4160   -8.2210 S.O2    1  UNL1        0.2450
      9  O         18.1750  -24.3310   -7.3970 O.2     1  UNL1       -0.2060
     10  O         16.2100  -23.8260   -8.9040 O.2     1  UNL1       -0.2060
     11  N         17.0300  -22.0000   -7.3650 N.pl3   1  UNL1       -0.1800
     12  H         16.0880  -21.7190   -7.6430 H       1  UNL1        0.1460
     13  C         17.1740  -22.0680   -5.9370 C.2     1  UNL1        0.0350
     14  C         18.4040  -21.7210   -5.3360 C.2     1  UNL1       -0.0390
     15  C         19.6000  -21.2690   -6.1290 C.3     1  UNL1        0.0500
     16  C         18.5080  -21.7500   -3.9390 C.2     1  UNL1        0.0080
     17  C         17.4240  -22.1250   -3.1530 C.2     1  UNL1        0.0010
     18  C         16.2160  -22.4720   -3.7540 C.2     1  UNL1        0.0090
     19  C         16.0650  -22.4480   -5.1520 C.2     1  UNL1       -0.0320
     20  C         14.7310  -22.8530   -5.7670 C.3     1  UNL1        0.0120
     21  C         13.7000  -21.7230   -5.6840 C.3     1  UNL1        0.0150
     22  C         14.1860  -24.1330   -5.1270 C.3     1  UNL1        0.0150
     23  C         22.1330  -23.1170  -10.3600 C.2     1  UNL1        0.2560
     24  O         22.5030  -23.6930   -9.3450 O.2     1  UNL1       -0.2670
     25  N         22.8830  -22.7740  -11.4670 N.am    1  UNL1       -0.3230
     26  H         22.4190  -22.2140  -12.1710 H       1  UNL1        0.1690
     27  C         24.2410  -23.0680  -11.7030 C.2     1  UNL1        0.0350
     28  C         25.2620  -22.8170  -10.7850 C.2     1  UNL1        0.0290
     29  C         26.5860  -23.1420  -11.0910 C.2     1  UNL1        0.0030
     30  C         26.9030  -23.7200  -12.3190 C.2     1  UNL1        0.0160
     31  C         25.8960  -23.9760  -13.2570 C.2     1  UNL1        0.0500
     32  C         24.5660  -23.6530  -12.9330 C.2     1  UNL1        0.0450
     33  C         26.2260  -24.6230  -14.5790 C.3     1  UNL1        0.4170
     34  F         25.1260  -25.0650  -15.2510 F       1  UNL1       -0.1660
     35  F         27.0430  -25.7060  -14.4510 F       1  UNL1       -0.1660
     36  F         26.8660  -23.7720  -15.4250 F       1  UNL1       -0.1660
@<TRIPOS>BOND
     1    36    33    1
     2    34    33    1
     3    33    35    1
     4    33    31    1
     5    31    32    1
     6    31    30    2
     7    32    27    2
     8     1     2    1
     9    30    29    1
    10    26    25    1
    11    27    25    1
    12    27    28    1
    13    25    23   am
    14     2     3    2
    15     2     7    1
    16     3     4    1
    17    29    28    2
    18     7    23    1
    19     7     6    2
    20     4     5    2
    21    23    24    2
    22     6     5    1
    23     5     8    1
    24    10     8    2
    25     8     9    2
    26     8    11    1
    27    12    11    1
    28    11    13    1
    29    15    14    1
    30    13    14    2
    31    13    19    1
    32    20    21    1
    33    20    19    1
    34    20    22    1
    35    14    16    1
    36    19    18    2
    37    16    17    2
    38    18    17    1
