@<TRIPOS>MOLECULE
50188_out_ligand_01.pdbqt
 37 39 0 0 0
SMALL
GASTEIGER

@<TRIPOS>ATOM
      1  C         22.1950  -22.4040  -11.1600 C.2     1  UNL1        0.0750
      2  C         21.5280  -21.7850  -12.2190 C.2     1  UNL1        0.0250
      3  C         20.1550  -21.5500  -12.1230 C.2     1  UNL1        0.0090
      4  C         19.4360  -21.9450  -10.9830 C.2     1  UNL1       -0.0460
      5  C         17.9590  -21.6630  -10.9160 C.3     1  UNL1        0.0490
      6  C         20.1240  -22.5770   -9.9290 C.2     1  UNL1        0.0390
      7  C         21.5050  -22.8050  -10.0160 C.2     1  UNL1        0.0420
      8  S         23.9390  -22.7130  -11.3000 S.O2    1  UNL1        0.2450
      9  O         24.1200  -23.6360  -12.3990 O.2     1  UNL1       -0.2060
     10  O         24.4390  -22.9900   -9.9710 O.2     1  UNL1       -0.2060
     11  N         24.4970  -21.1630  -11.7380 N.pl3   1  UNL1       -0.1810
     12  H         25.1130  -20.8270  -10.9940 H       1  UNL1        0.1460
     13  C         25.1570  -21.1200  -13.0120 C.2     1  UNL1        0.0250
     14  C         26.4810  -20.6940  -13.0970 C.2     1  UNL1        0.0240
     15  C         27.1210  -20.6900  -14.3350 C.2     1  UNL1        0.0040
     16  C         26.4450  -21.1260  -15.4790 C.2     1  UNL1        0.0290
     17  C         25.1270  -21.5800  -15.3960 C.2     1  UNL1        0.0360
     18  C         24.4870  -21.5740  -14.1500 C.2     1  UNL1        0.0530
     19  N         24.3890  -22.0650  -16.4950 N.am    1  UNL1       -0.3270
     20  C         24.3230  -23.3660  -16.9590 C.2     1  UNL1        0.2180
     21  C         23.4010  -23.5040  -18.1430 C.3     1  UNL1        0.1170
     22  O         24.9390  -24.3340  -16.5300 O.2     1  UNL1       -0.2740
     23  H         23.8410  -21.3760  -16.9960 H       1  UNL1        0.1690
     24  C         19.4130  -23.0000   -8.6900 C.2     1  UNL1        0.2560
     25  O         19.2550  -24.1960   -8.4860 O.2     1  UNL1       -0.2670
     26  N         19.0110  -21.9490   -7.8890 N.am    1  UNL1       -0.3230
     27  H         19.2820  -21.0180   -8.1810 H       1  UNL1        0.1690
     28  C         18.3100  -22.0220   -6.6680 C.2     1  UNL1        0.0350
     29  C         18.9470  -21.5050   -5.5330 C.2     1  UNL1        0.0290
     30  C         18.3220  -21.5390   -4.2850 C.2     1  UNL1        0.0030
     31  C         17.0490  -22.0910   -4.1570 C.2     1  UNL1        0.0160
     32  C         16.3890  -22.6110   -5.2790 C.2     1  UNL1        0.0500
     33  C         17.0330  -22.5730   -6.5310 C.2     1  UNL1        0.0450
     34  C         15.0130  -23.2160   -5.1630 C.3     1  UNL1        0.4170
     35  F         14.0080  -22.3070   -5.3160 F       1  UNL1       -0.1660
     36  F         14.8000  -23.8000   -3.9520 F       1  UNL1       -0.1660
     37  F         14.7800  -24.1830   -6.0930 F       1  UNL1       -0.1660
@<TRIPOS>BOND
     1    21    20    1
     2    23    19    1
     3    20    22    2
     4    20    19   am
     5    19    17    1
     6    16    17    2
     7    16    15    1
     8    17    18    1
     9    15    14    2
    10    18    13    2
    11    14    13    1
    12    13    11    1
    13     9     8    2
    14     2     3    1
    15     2     1    2
    16     3     4    2
    17    11     8    1
    18    11    12    1
    19     8     1    1
    20     8    10    2
    21     1     7    1
    22     4     5    1
    23     4     6    1
    24     7     6    2
    25     6    24    1
    26    24    25    2
    27    24    26   am
    28    27    26    1
    29    26    28    1
    30    28    33    2
    31    28    29    1
    32    33    32    1
    33    37    34    1
    34    29    30    2
    35    35    34    1
    36    32    34    1
    37    32    31    2
    38    34    36    1
    39    30    31    1
