@<TRIPOS>MOLECULE
50182_out_ligand_01.pdbqt
 37 39 0 0 0
SMALL
GASTEIGER

@<TRIPOS>ATOM
      1  C         22.3170  -22.3490  -10.6610 C.2     1  UNL1        0.0750
      2  C         21.6580  -21.8940  -11.8040 C.2     1  UNL1        0.0250
      3  C         20.2670  -21.7620  -11.7900 C.2     1  UNL1        0.0090
      4  C         19.5240  -22.0830  -10.6420 C.2     1  UNL1       -0.0460
      5  C         18.0330  -21.8900  -10.6610 C.3     1  UNL1        0.0490
      6  C         20.2070  -22.5820   -9.5140 C.2     1  UNL1        0.0390
      7  C         21.6020  -22.6980   -9.5140 C.2     1  UNL1        0.0420
      8  S         24.0850  -22.5230  -10.6510 S.O2    1  UNL1        0.2450
      9  O         24.4370  -23.4330   -9.5810 O.2     1  UNL1       -0.2060
     10  O         24.6350  -21.1890  -10.7440 O.2     1  UNL1       -0.2060
     11  N         24.3200  -23.3750  -12.1100 N.pl3   1  UNL1       -0.1810
     12  H         24.9250  -24.1700  -11.8970 H       1  UNL1        0.1460
     13  C         24.8880  -22.5820  -13.1600 C.2     1  UNL1        0.0230
     14  C         26.2690  -22.4350  -13.2640 C.2     1  UNL1        0.0260
     15  C         26.8120  -21.6260  -14.2690 C.2     1  UNL1        0.0310
     16  C         25.9790  -20.9470  -15.1620 C.2     1  UNL1        0.0340
     17  C         24.5920  -21.0840  -15.0300 C.2     1  UNL1        0.0310
     18  C         24.0470  -21.8940  -14.0300 C.2     1  UNL1        0.0260
     19  N         26.4480  -20.1120  -16.1970 N.am    1  UNL1       -0.3280
     20  C         26.6030  -18.7380  -16.1650 C.2     1  UNL1        0.2180
     21  C         27.1190  -18.1990  -17.4760 C.3     1  UNL1        0.1170
     22  O         26.3880  -17.9900  -15.2180 O.2     1  UNL1       -0.2740
     23  H         26.7110  -20.5780  -17.0560 H       1  UNL1        0.1690
     24  C         19.5030  -22.9890   -8.2740 C.2     1  UNL1        0.2560
     25  O         19.3480  -24.1850   -8.0680 O.2     1  UNL1       -0.2670
     26  N         19.0630  -21.9280   -7.5090 N.am    1  UNL1       -0.3230
     27  H         19.2110  -21.0030   -7.8930 H       1  UNL1        0.1690
     28  C         18.3850  -21.9870   -6.2750 C.2     1  UNL1        0.0350
     29  C         18.8870  -21.4590   -5.0850 C.2     1  UNL1        0.0290
     30  C         18.1490  -21.5490   -3.9010 C.2     1  UNL1        0.0030
     31  C         16.9010  -22.1680   -3.8950 C.2     1  UNL1        0.0160
     32  C         16.3790  -22.7110   -5.0760 C.2     1  UNL1        0.0500
     33  C         17.1280  -22.6080   -6.2630 C.2     1  UNL1        0.0450
     34  C         15.0190  -23.3630   -5.0920 C.3     1  UNL1        0.4170
     35  F         14.8720  -24.2230   -6.1360 F       1  UNL1       -0.1660
     36  F         13.9940  -22.4730   -5.1900 F       1  UNL1       -0.1660
     37  F         14.7710  -24.0940   -3.9690 F       1  UNL1       -0.1660
@<TRIPOS>BOND
     1    21    20    1
     2    23    19    1
     3    19    20   am
     4    19    16    1
     5    20    22    2
     6    16    17    2
     7    16    15    1
     8    17    18    1
     9    15    14    2
    10    18    13    2
    11    14    13    1
    12    13    11    1
    13    11    12    1
    14    11     8    1
    15     2     3    1
    16     2     1    2
    17     3     4    2
    18    10     8    2
    19     5     4    1
    20     1     8    1
    21     1     7    1
    22     8     9    2
    23     4     6    1
    24     7     6    2
    25     6    24    1
    26    24    25    2
    27    24    26   am
    28    27    26    1
    29    26    28    1
    30    28    33    2
    31    28    29    1
    32    33    32    1
    33    35    34    1
    34    36    34    1
    35    34    32    1
    36    34    37    1
    37    29    30    2
    38    32    31    2
    39    30    31    1
