@<TRIPOS>MOLECULE
50187_out_ligand_01.pdbqt
 36 38 0 0 0
SMALL
GASTEIGER

@<TRIPOS>ATOM
      1  C         17.3900  -21.3700  -11.1460 C.3     1  UNL1        0.0490
      2  C         18.8530  -21.6580  -10.9440 C.2     1  UNL1       -0.0460
      3  C         19.7480  -21.3420  -11.9820 C.2     1  UNL1        0.0090
      4  C         21.1120  -21.6110  -11.8550 C.2     1  UNL1        0.0250
      5  C         21.5950  -22.2060  -10.6870 C.2     1  UNL1        0.0750
      6  C         20.7330  -22.5140   -9.6330 C.2     1  UNL1        0.0420
      7  C         19.3690  -22.2140   -9.7550 C.2     1  UNL1        0.0390
      8  S         23.3270  -22.5590  -10.5470 S.O2    1  UNL1        0.2450
      9  O         24.0040  -21.2850  -10.4420 O.2     1  UNL1       -0.2060
     10  O         23.4930  -23.6120   -9.5670 O.2     1  UNL1       -0.2060
     11  N         23.6410  -23.2810  -12.0650 N.pl3   1  UNL1       -0.1810
     12  H         23.7910  -24.2780  -11.8960 H       1  UNL1        0.1460
     13  C         24.7290  -22.6840  -12.7910 C.2     1  UNL1        0.0310
     14  C         26.0010  -23.2240  -12.5440 C.2     1  UNL1        0.0250
     15  C         27.1210  -22.7660  -13.2340 C.2     1  UNL1        0.0040
     16  C         26.9720  -21.7750  -14.1950 C.2     1  UNL1        0.0370
     17  C         25.6950  -21.2520  -14.4580 C.2     1  UNL1        0.1100
     18  C         24.5450  -21.6750  -13.7550 C.2     1  UNL1       -0.0070
     19  C         23.1860  -21.1040  -14.0640 C.3     1  UNL1        0.0520
     20  N         25.6140  -20.2400  -15.5090 N.pl3   1  UNL1       -0.1150
     21  O         26.0150  -19.1020  -15.2220 O.2     1  UNL1       -0.5320
     22  O         25.1740  -20.5890  -16.6120 O.2     1  UNL1       -0.5320
     23  C         18.5140  -22.5180   -8.5800 C.2     1  UNL1        0.2560
     24  O         17.5700  -23.2810   -8.7360 O.2     1  UNL1       -0.2670
     25  N         18.9360  -21.9120   -7.4130 N.am    1  UNL1       -0.3230
     26  H         19.7930  -21.3760   -7.4650 H       1  UNL1        0.1690
     27  C         18.3300  -21.9870   -6.1430 C.2     1  UNL1        0.0350
     28  C         18.9570  -21.3020   -5.0960 C.2     1  UNL1        0.0290
     29  C         18.4170  -21.3180   -3.8070 C.2     1  UNL1        0.0030
     30  C         17.2410  -22.0220   -3.5540 C.2     1  UNL1        0.0160
     31  C         16.5970  -22.7170   -4.5880 C.2     1  UNL1        0.0500
     32  C         17.1510  -22.6900   -5.8820 C.2     1  UNL1        0.0450
     33  C         15.3210  -23.4860   -4.3360 C.3     1  UNL1        0.4170
     34  F         14.9510  -24.2750   -5.3850 F       1  UNL1       -0.1660
     35  F         15.4160  -24.3190   -3.2610 F       1  UNL1       -0.1660
     36  F         14.2560  -22.6740   -4.0930 F       1  UNL1       -0.1660
@<TRIPOS>BOND
     1    22    20    2
     2    20    21    2
     3    20    17    1
     4    17    16    2
     5    17    18    1
     6    16    15    1
     7    19    18    1
     8    18    13    2
     9    15    14    2
    10    13    14    1
    11    13    11    1
    12    11    12    1
    13    11     8    1
    14     3     4    1
    15     3     2    2
    16     4     5    2
    17     1     2    1
    18     2     7    1
    19     5     8    1
    20     5     6    1
    21     8     9    2
    22     8    10    2
    23     7     6    2
    24     7    23    1
    25    24    23    2
    26    23    25   am
    27    26    25    1
    28    25    27    1
    29    27    32    2
    30    27    28    1
    31    32    31    1
    32    34    33    1
    33    28    29    2
    34    31    33    1
    35    31    30    2
    36    33    36    1
    37    33    35    1
    38    29    30    1
