@<TRIPOS>MOLECULE
50204_out_ligand_01.pdbqt
 40 45 0 0 0
SMALL
GASTEIGER

@<TRIPOS>ATOM
      1  C         27.1060  -22.9340  -13.9010 C.3     1  UNL1        0.0500
      2  C         26.0550  -22.6630  -12.8600 C.2     1  UNL1       -0.0390
      3  C         26.2910  -23.1240  -11.5500 C.2     1  UNL1        0.0090
      4  C         25.3610  -22.9140  -10.5290 C.2     1  UNL1        0.0170
      5  C         24.1680  -22.2430  -10.8030 C.2     1  UNL1        0.0330
      6  C         23.9160  -21.7690  -12.0920 C.2     1  UNL1        0.0420
      7  C         24.8520  -21.9790  -13.1190 C.2     1  UNL1        0.0860
      8  C         23.1600  -21.9840   -9.7400 C.2     1  UNL1        0.2560
      9  O         23.3610  -21.0470   -8.9790 O.2     1  UNL1       -0.2670
     10  N         22.0710  -22.8350   -9.7620 N.am    1  UNL1       -0.3230
     11  H         22.0070  -23.4820  -10.5370 H       1  UNL1        0.1690
     12  C         20.9720  -22.8360   -8.8780 C.2     1  UNL1        0.0350
     13  C         19.8730  -23.6270   -9.2180 C.2     1  UNL1        0.0300
     14  C         18.7420  -23.6760   -8.3940 C.2     1  UNL1        0.0100
     15  C         18.6700  -22.9370   -7.2000 C.2     1  UNL1       -0.0490
     16  C         19.7850  -22.1530   -6.8700 C.2     1  UNL1        0.0100
     17  C         20.9190  -22.1030   -7.6950 C.2     1  UNL1        0.0300
     18  C         17.4110  -23.0050   -6.3210 C.3     1  UNL1       -0.0120
     19  C         17.2100  -24.4540   -5.7850 C.3     1  UNL1        0.0190
     20  C         15.9880  -24.5400   -4.8540 C.3     1  UNL1       -0.0130
     21  C         14.7280  -24.1330   -5.6290 C.3     1  UNL1        0.0090
     22  C         16.1880  -23.5820   -3.6680 C.3     1  UNL1        0.0090
     23  C         14.8730  -22.6930   -6.1430 C.3     1  UNL1       -0.0130
     24  C         15.0700  -21.7420   -4.9530 C.3     1  UNL1        0.0090
     25  C         16.0990  -22.6070   -7.0670 C.3     1  UNL1        0.0190
     26  C         16.3330  -22.1370   -4.1740 C.3     1  UNL1       -0.0130
     27  C         17.5560  -22.0450   -5.1030 C.3     1  UNL1        0.0190
     28  S         24.3950  -21.3440  -14.7270 S.O2    1  UNL1        0.2630
     29  O         23.7260  -20.0790  -14.4970 O.2     1  UNL1       -0.2000
     30  O         23.7520  -22.3690  -15.5170 O.2     1  UNL1       -0.2000
     31  N         25.8900  -20.9610  -15.4050 N.pl3   1  UNL1       -0.2800
     32  H         26.6670  -21.3220  -14.8530 H       1  UNL1        0.1790
     33  C         26.0490  -19.6990  -16.0410 C.2     1  UNL1        0.0490
     34  C         25.6850  -19.6080  -17.3880 C.2     1  UNL1        0.0310
     35  C         25.7880  -18.3960  -18.0620 C.2     1  UNL1        0.0030
     36  C         26.2560  -17.2690  -17.3920 C.2     1  UNL1        0.0070
     37  C         26.6300  -17.3400  -16.0400 C.2     1  UNL1       -0.0540
     38  C         27.1210  -16.0900  -15.3580 C.3     1  UNL1        0.0490
     39  C         26.5240  -18.5700  -15.3460 C.2     1  UNL1       -0.0290
     40  C         26.9130  -18.6370  -13.8900 C.3     1  UNL1        0.0510
@<TRIPOS>BOND
     1    35    36    2
     2    35    34    1
     3    36    37    1
     4    34    33    2
     5    33    31    1
     6    33    39    1
     7    37    38    1
     8    37    39    2
     9    30    28    2
    10    31    32    1
    11    31    28    1
    12    39    40    1
    13    28    29    2
    14    28     7    1
    15     1     2    1
    16     7     2    2
    17     7     6    1
    18     2     3    1
    19     6     5    2
    20     3     4    2
    21     5     4    1
    22     5     8    1
    23    11    10    1
    24    10     8   am
    25    10    12    1
    26     8     9    2
    27    13    12    2
    28    13    14    1
    29    12    17    1
    30    14    15    2
    31    17    16    2
    32    15    16    1
    33    15    18    1
    34    25    18    1
    35    25    23    1
    36    18    19    1
    37    18    27    1
    38    23    21    1
    39    23    24    1
    40    19    20    1
    41    21    20    1
    42    27    26    1
    43    24    26    1
    44    20    22    1
    45    26    22    1
