@<TRIPOS>MOLECULE
50213_out_ligand_01.pdbqt
 32 34 0 0 0
SMALL
GASTEIGER

@<TRIPOS>ATOM
      1  C         18.6440  -22.3100  -10.2150 C.2     1  UNL1        0.0810
      2  C         19.9140  -22.8930  -10.0850 C.2     1  UNL1        0.0420
      3  C         20.9680  -22.4610  -10.8950 C.2     1  UNL1        0.0330
      4  C         20.7600  -21.4390  -11.8250 C.2     1  UNL1        0.0170
      5  C         19.4960  -20.8590  -11.9530 C.2     1  UNL1        0.0090
      6  C         18.4200  -21.2790  -11.1500 C.2     1  UNL1       -0.0390
      7  C         17.0840  -20.6170  -11.3480 C.3     1  UNL1        0.0500
      8  S         17.3340  -22.9480   -9.1790 S.O2    1  UNL1        0.2460
      9  O         16.6330  -21.8260   -8.6010 O.2     1  UNL1       -0.2060
     10  O         16.6280  -23.9720   -9.9210 O.2     1  UNL1       -0.2060
     11  N         18.2430  -23.7680   -7.9940 N.pl3   1  UNL1       -0.1810
     12  H         17.8260  -24.6980   -7.8940 H       1  UNL1        0.1460
     13  C         18.3020  -23.1360   -6.7060 C.2     1  UNL1        0.0230
     14  C         18.9180  -21.8990   -6.5120 C.2     1  UNL1        0.0310
     15  C         18.8690  -21.2750   -5.2600 C.2     1  UNL1       -0.0600
     16  C         18.1510  -21.8820   -4.2220 C.2     1  UNL1        0.0130
     17  C         19.5250  -19.9390   -5.0570 C.3     1  UNL1        0.0480
     18  C         17.5070  -23.1100   -4.4160 C.2     1  UNL1       -0.0600
     19  C         16.7110  -23.7270   -3.3050 C.3     1  UNL1        0.0480
     20  C         17.5710  -23.7230   -5.6730 C.2     1  UNL1        0.0310
     21  C         22.3050  -23.0810  -10.7180 C.2     1  UNL1        0.2520
     22  O         22.5310  -23.7640   -9.7280 O.2     1  UNL1       -0.2680
     23  N         23.2120  -22.8440  -11.7290 N.am    1  UNL1       -0.3520
     24  H         22.9020  -22.3540  -12.5560 H       1  UNL1        0.1630
     25  C         24.5840  -23.3360  -11.6770 C.3     1  UNL1        0.0840
     26  C         25.4880  -22.4610  -10.7880 C.3     1  UNL1        0.0250
     27  C         25.3940  -20.9350  -10.9520 C.3     1  UNL1        0.0020
     28  C         26.4160  -20.3270  -11.9090 C.3     1  UNL1        0.0000
     29  C         25.9320  -20.1080  -13.3420 C.3     1  UNL1        0.0000
     30  C         25.2230  -21.2790  -14.0170 C.3     1  UNL1        0.0000
     31  C         25.9270  -22.6190  -13.8410 C.3     1  UNL1        0.0020
     32  C         25.1270  -23.6740  -13.0780 C.3     1  UNL1        0.0250
@<TRIPOS>BOND
     1    30    31    1
     2    30    29    1
     3    31    32    1
     4    29    28    1
     5    32    25    1
     6    24    23    1
     7     5     4    2
     8     5     6    1
     9    28    27    1
    10     4     3    1
    11    23    25    1
    12    23    21   am
    13    25    26    1
    14     7     6    1
    15     6     1    2
    16    27    26    1
    17     3    21    1
    18     3     2    2
    19    21    22    2
    20     1     2    1
    21     1     8    1
    22    10     8    2
    23     8     9    2
    24     8    11    1
    25    11    12    1
    26    11    13    1
    27    13    14    2
    28    13    20    1
    29    14    15    1
    30    20    18    2
    31    15    17    1
    32    15    16    2
    33    18    16    1
    34    18    19    1
