@<TRIPOS>MOLECULE
50214_out_ligand_01.pdbqt
 38 41 0 0 0
SMALL
GASTEIGER

@<TRIPOS>ATOM
      1  C         18.3670  -22.4240   -9.9180 C.2     1  UNL1        0.0860
      2  C         19.5460  -23.0970   -9.5540 C.2     1  UNL1        0.0420
      3  C         20.7610  -22.7840  -10.1690 C.2     1  UNL1        0.0330
      4  C         20.7990  -21.8030  -11.1610 C.2     1  UNL1        0.0170
      5  C         19.6220  -21.1480  -11.5390 C.2     1  UNL1        0.0090
      6  C         18.3880  -21.4460  -10.9290 C.2     1  UNL1       -0.0390
      7  C         17.1750  -20.6950  -11.3950 C.3     1  UNL1        0.0500
      8  C         21.9870  -23.4840   -9.6990 C.2     1  UNL1        0.2560
      9  O         21.8420  -24.5260   -9.0690 O.2     1  UNL1       -0.2670
     10  N         23.1750  -22.8810  -10.0560 N.am    1  UNL1       -0.3220
     11  H         23.1200  -22.0950  -10.7070 H       1  UNL1        0.1690
     12  C         24.4970  -23.3420   -9.8270 C.2     1  UNL1        0.0500
     13  C         24.8080  -24.2680   -8.8240 C.2     1  UNL1        0.0300
     14  C         26.1110  -24.7590   -8.6790 C.2     1  UNL1        0.0020
     15  C         27.1210  -24.3420   -9.5400 C.2     1  UNL1        0.0010
     16  C         26.8390  -23.4050  -10.5310 C.2     1  UNL1        0.0190
     17  C         25.5430  -22.8730  -10.6530 C.2     1  UNL1        0.0590
     18  C         25.2750  -21.8460  -11.7030 C.2     1  UNL1        0.2560
     19  O         25.2310  -20.6650  -11.3510 O.2     1  UNL1       -0.2670
     20  N         25.0900  -22.2400  -13.0370 N.am    1  UNL1       -0.3480
     21  C         24.5500  -21.2260  -13.9420 C.3     1  UNL1        0.1260
     22  C         25.7190  -23.4450  -13.5880 C.3     1  UNL1        0.1260
     23  C         23.7600  -21.7750  -15.1270 C.3     1  UNL1        0.0200
     24  C         24.6420  -22.1130  -16.3250 C.3     1  UNL1        0.0020
     25  C         25.5380  -23.3290  -16.1310 C.3     1  UNL1        0.0020
     26  C         26.4570  -23.2560  -14.9150 C.3     1  UNL1        0.0200
     27  S         16.9000  -22.8970   -9.0010 S.O2    1  UNL1        0.2630
     28  O         16.2710  -21.7310   -8.4230 O.2     1  UNL1       -0.2000
     29  O         16.1490  -23.7950   -9.8530 O.2     1  UNL1       -0.2000
     30  N         17.5380  -23.8520   -7.7520 N.pl3   1  UNL1       -0.2810
     31  H         18.5130  -24.0790   -7.9290 H       1  UNL1        0.1790
     32  C         17.1720  -23.5390   -6.4100 C.2     1  UNL1        0.0430
     33  C         15.9950  -24.0400   -5.8580 C.2     1  UNL1        0.0300
     34  C         15.6310  -23.6870   -4.5600 C.2     1  UNL1        0.0030
     35  C         16.4380  -22.8270   -3.8150 C.2     1  UNL1        0.0070
     36  C         17.6160  -22.3080   -4.3660 C.2     1  UNL1       -0.0600
     37  C         18.4980  -21.3960   -3.5650 C.3     1  UNL1        0.0480
     38  C         17.9860  -22.6820   -5.6640 C.2     1  UNL1        0.0370
@<TRIPOS>BOND
     1    24    25    1
     2    24    23    1
     3    25    26    1
     4    23    21    1
     5    26    22    1
     6    21    20    1
     7    22    20    1
     8    20    18   am
     9    18    19    2
    10    18    17    1
    11     5     4    2
    12     5     6    1
    13     7     6    1
    14     4     3    1
    15     6     1    2
    16    11    10    1
    17    17    16    1
    18    17    12    2
    19    16    15    2
    20     3     8    1
    21     3     2    2
    22    10    12    1
    23    10     8   am
    24     1     2    1
    25     1    27    1
    26    29    27    2
    27    12    13    1
    28     8     9    2
    29    15    14    1
    30    27    28    2
    31    27    30    1
    32    13    14    2
    33    31    30    1
    34    30    32    1
    35    32    33    2
    36    32    38    1
    37    33    34    1
    38    38    36    2
    39    34    35    2
    40    36    35    1
    41    36    37    1
