@<TRIPOS>MOLECULE
50216_out_ligand_01.pdbqt
 36 40 0 0 0
SMALL
GASTEIGER

@<TRIPOS>ATOM
      1  C         17.9670  -23.7680   -8.3330 C.2     1  UNL1        0.0800
      2  C         19.2430  -24.2480   -8.0350 C.2     1  UNL1        0.0270
      3  C         20.3270  -23.8490   -8.8200 C.2     1  UNL1        0.0310
      4  C         20.1460  -22.9780   -9.9050 C.2     1  UNL1        0.0350
      5  C         18.8590  -22.5180  -10.1990 C.2     1  UNL1        0.0310
      6  C         17.7670  -22.9140   -9.4190 C.2     1  UNL1        0.0270
      7  N         21.2940  -22.6270  -10.6380 N.am    1  UNL1       -0.3210
      8  C         22.4370  -21.9850  -10.1950 C.2     1  UNL1        0.2800
      9  O         22.6460  -21.6150   -9.0450 O.2     1  UNL1       -0.2650
     10  H         21.3040  -22.8660  -11.6250 H       1  UNL1        0.1690
     11  C         23.4100  -21.7870  -11.2540 C.2     1  UNL1        0.1440
     12  C         23.4030  -22.1800  -12.5780 C.2     1  UNL1        0.0580
     13  C         24.6150  -21.7150  -13.1620 C.2     1  UNL1        0.0120
     14  C         25.2880  -21.0590  -12.1390 C.2     1  UNL1        0.0870
     15  C         25.2270  -21.7720  -14.4440 C.2     1  UNL1       -0.0130
     16  C         26.5300  -20.4480  -12.2800 C.2     1  UNL1        0.0390
     17  O         24.5650  -21.0980  -10.9860 O.2     1  UNL1       -0.3040
     18  C         27.1210  -20.5110  -13.5470 C.2     1  UNL1        0.0150
     19  C         26.4950  -21.1580  -14.6240 C.2     1  UNL1       -0.0250
     20  C         27.0960  -21.2160  -15.8900 C.2     1  UNL1        0.0120
     21  C         26.4620  -21.8640  -16.9550 C.2     1  UNL1        0.0010
     22  C         25.2180  -22.4640  -16.7730 C.2     1  UNL1        0.0010
     23  C         24.5970  -22.4220  -15.5250 C.2     1  UNL1        0.0130
     24  S         16.5780  -24.2700   -7.3490 S.O2    1  UNL1        0.2630
     25  O         17.0410  -25.1750   -6.3190 O.2     1  UNL1       -0.2000
     26  O         15.5260  -24.6610   -8.2630 O.2     1  UNL1       -0.2000
     27  N         16.0710  -22.8180   -6.6490 N.pl3   1  UNL1       -0.2800
     28  H         15.0590  -22.7980   -6.5370 H       1  UNL1        0.1790
     29  C         16.8640  -22.2550   -5.6080 C.2     1  UNL1        0.0490
     30  C         16.5250  -22.4370   -4.2600 C.2     1  UNL1       -0.0350
     31  C         17.3710  -21.9000   -3.2790 C.2     1  UNL1        0.0090
     32  C         15.3060  -23.2080   -3.8390 C.3     1  UNL1        0.0500
     33  C         18.5240  -21.1960   -3.6330 C.2     1  UNL1        0.0070
     34  C         18.8650  -21.0250   -4.9780 C.2     1  UNL1       -0.0600
     35  C         20.0830  -20.2420   -5.3640 C.3     1  UNL1        0.0480
     36  C         18.0210  -21.5520   -5.9610 C.2     1  UNL1        0.0370
@<TRIPOS>BOND
     1    21    22    1
     2    21    20    2
     3    22    23    2
     4    20    19    1
     5    23    15    1
     6    19    15    1
     7    19    18    2
     8    15    13    2
     9    18    16    1
    10    13    12    1
    11    13    14    1
    12    12    11    2
    13    16    14    2
    14    14    17    1
    15    10     7    1
    16    11    17    1
    17    11     8    1
    18     7     8   am
    19     7     4    1
    20     5     4    2
    21     5     6    1
    22     8     9    2
    23     4     3    1
    24     6     1    2
    25     3     2    2
    26     1     2    1
    27     1    24    1
    28    26    24    2
    29    24    27    1
    30    24    25    2
    31    27    28    1
    32    27    29    1
    33    36    29    2
    34    36    34    1
    35    29    30    1
    36    35    34    1
    37    34    33    2
    38    30    32    1
    39    30    31    2
    40    33    31    1
