@<TRIPOS>MOLECULE
5022_out_ligand_01.pdbqt
 34 37 0 0 0
SMALL
GASTEIGER

@<TRIPOS>ATOM
      1  C         27.1210  -24.3810  -12.2390 C.3     1  UNL1        0.1630
      2  N         26.0690  -23.5710  -12.8190 N.ar    1  UNL1       -0.2860
      3  C         25.9930  -23.3750  -14.1940 C.ar    1  UNL1        0.3300
      4  O         26.7850  -23.8580  -15.0030 O.2     1  UNL1       -0.2460
      5  N         24.9530  -22.5940  -14.6610 N.ar    1  UNL1       -0.2730
      6  C         23.9470  -22.0110  -13.9240 C.ar    1  UNL1        0.2800
      7  O         23.0310  -21.3900  -14.4500 O.2     1  UNL1       -0.2650
      8  C         24.0960  -22.2370  -12.5280 C.ar    1  UNL1        0.1660
      9  C         25.1100  -22.9900  -12.0160 C.ar    1  UNL1        0.1860
     10  N         25.0300  -23.0960  -10.6670 N.ar    1  UNL1       -0.0420
     11  C         23.9590  -22.4010  -10.3200 C.ar    1  UNL1        0.7250
     12  N         23.3640  -21.8390  -11.4390 N.ar    1  UNL1       -0.1710
     13  H         24.9040  -22.4800  -15.6620 H       1  UNL1        0.1730
     14  N         23.4400  -22.2400   -9.0680 N.pl3   1  UNL1       -0.1070
     15  H         24.0950  -22.0600   -8.3110 H       1  UNL1        0.2080
     16  N         22.3090  -22.8620   -8.6060 N.2     1  UNL1       -0.1710
     17  C         21.4840  -22.1250   -7.9280 C.2     1  UNL1        0.1550
     18  C         20.1970  -22.6370   -7.4160 C.2     1  UNL1        0.0430
     19  C         19.4390  -21.8820   -6.5160 C.2     1  UNL1        0.1290
     20  F         19.8340  -20.6670   -6.1090 F       1  UNL1       -0.2050
     21  C         18.2210  -22.3530   -6.0250 C.2     1  UNL1        0.0430
     22  C         17.7410  -23.5950   -6.4290 C.2     1  UNL1        0.0050
     23  C         18.4840  -24.3600   -7.3270 C.2     1  UNL1        0.0250
     24  C         19.7080  -23.8870   -7.8220 C.2     1  UNL1        0.0480
     25 CL         20.5560  -24.9270   -8.9140 Cl      1  UNL1       -0.0830
     26  C         22.1780  -21.0000  -11.4820 C.3     1  UNL1        0.1480
     27  C         20.9110  -21.8140  -11.7410 C.3     1  UNL1        0.0250
     28  C         19.6670  -20.9390  -11.9240 C.3     1  UNL1        0.0400
     29  C         18.4140  -21.4580  -11.2610 C.2     1  UNL1       -0.0580
     30  C         17.3080  -20.6130  -11.0940 C.2     1  UNL1        0.0070
     31  C         16.1450  -21.0770  -10.4770 C.2     1  UNL1        0.0010
     32  C         16.0770  -22.3890  -10.0140 C.2     1  UNL1        0.0000
     33  C         17.1740  -23.2340  -10.1620 C.2     1  UNL1        0.0010
     34  C         18.3390  -22.7710  -10.7770 C.2     1  UNL1        0.0070
@<TRIPOS>BOND
     1    13     5    1
     2     4     3    2
     3     5     3   ar
     4     5     6   ar
     5     7     6    2
     6     3     2   ar
     7     6     8   ar
     8     2     1    1
     9     2     9   ar
    10     8     9   ar
    11     8    12   ar
    12     9    10   ar
    13    28    27    1
    14    28    29    1
    15    27    26    1
    16    26    12    1
    17    12    11   ar
    18    29    30    2
    19    29    34    1
    20    30    31    1
    21    34    33    2
    22    10    11   ar
    23    31    32    2
    24    11    14    1
    25    33    32    1
    26    14    16    1
    27    14    15    1
    28    25    24    1
    29    16    17    2
    30    17    18    1
    31    24    18    2
    32    24    23    1
    33    18    19    1
    34    23    22    2
    35    19    20    1
    36    19    21    2
    37    22    21    1
