@<TRIPOS>MOLECULE
50223_out_ligand_01.pdbqt
 32 35 0 0 0
SMALL
GASTEIGER

@<TRIPOS>ATOM
      1  C         18.0970  -23.7350   -8.3440 C.2     1  UNL1        0.0800
      2  C         17.9880  -22.8570   -9.4250 C.2     1  UNL1        0.0270
      3  C         19.1350  -22.4670  -10.1220 C.2     1  UNL1        0.0310
      4  C         20.3900  -22.9640   -9.7600 C.2     1  UNL1        0.0350
      5  C         20.4810  -23.8670   -8.6890 C.2     1  UNL1        0.0310
      6  C         19.3400  -24.2570   -7.9830 C.2     1  UNL1        0.0270
      7  S         16.6360  -24.2450   -7.4660 S.O2    1  UNL1        0.2630
      8  O         15.6370  -24.6270   -8.4400 O.2     1  UNL1       -0.2000
      9  O         17.0560  -25.1680   -6.4300 O.2     1  UNL1       -0.2000
     10  N         16.1510  -22.8450   -6.6600 N.pl3   1  UNL1       -0.2800
     11  H         15.1400  -22.7710   -6.5830 H       1  UNL1        0.1790
     12  C         16.9540  -22.3070   -5.6120 C.2     1  UNL1        0.0490
     13  C         16.6390  -22.5740   -4.2700 C.2     1  UNL1       -0.0350
     14  C         17.4660  -22.0450   -3.2670 C.2     1  UNL1        0.0090
     15  C         15.4460  -23.3950   -3.8750 C.3     1  UNL1        0.0500
     16  C         18.5820  -21.2690   -3.5920 C.2     1  UNL1        0.0070
     17  C         18.8960  -21.0090   -4.9280 C.2     1  UNL1       -0.0600
     18  C         20.0690  -20.1440   -5.2830 C.3     1  UNL1        0.0480
     19  C         18.0650  -21.5180   -5.9320 C.2     1  UNL1        0.0370
     20  N         21.5900  -22.6240  -10.4100 N.am    1  UNL1       -0.3210
     21  C         22.6750  -21.9260   -9.9080 C.2     1  UNL1        0.2800
     22  O         22.7720  -21.4820   -8.7680 O.2     1  UNL1       -0.2650
     23  H         21.6930  -22.9190  -11.3760 H       1  UNL1        0.1690
     24  C         23.7330  -21.7640  -10.8890 C.2     1  UNL1        0.1440
     25  C         25.0600  -21.4070  -10.7400 C.2     1  UNL1        0.0570
     26  C         25.6360  -21.4040  -12.0360 C.2     1  UNL1        0.0010
     27  C         26.9080  -21.1370  -12.5700 C.2     1  UNL1        0.0140
     28  C         24.6120  -21.7640  -12.9040 C.2     1  UNL1        0.0860
     29  C         27.0920  -21.2440  -13.9570 C.2     1  UNL1        0.0010
     30  C         26.0360  -21.6080  -14.7980 C.2     1  UNL1        0.0030
     31  C         24.7620  -21.8780  -14.2840 C.2     1  UNL1        0.0380
     32  O         23.4590  -21.9820  -12.2150 O.2     1  UNL1       -0.3040
@<TRIPOS>BOND
     1    30    31    2
     2    30    29    1
     3    31    28    1
     4    29    27    2
     5    28    32    1
     6    28    26    2
     7    27    26    1
     8    32    24    1
     9    26    25    1
    10    23    20    1
    11    24    25    2
    12    24    21    1
    13    20    21   am
    14    20     4    1
    15     3     4    2
    16     3     2    1
    17    21    22    2
    18     4     5    1
    19     2     1    2
    20     5     6    2
    21     8     7    2
    22     1     6    1
    23     1     7    1
    24     7    10    1
    25     7     9    2
    26    10    11    1
    27    10    12    1
    28    19    12    2
    29    19    17    1
    30    12    13    1
    31    18    17    1
    32    17    16    2
    33    13    15    1
    34    13    14    2
    35    16    14    1
