@<TRIPOS>MOLECULE
50239_out_ligand_01.pdbqt
 32 36 0 0 0
SMALL
GASTEIGER

@<TRIPOS>ATOM
      1  C         16.5680  -21.3980  -10.6390 C.3     1  UNL1        0.0500
      2  C         18.0370  -21.7150  -10.6860 C.2     1  UNL1       -0.0390
      3  C         18.8070  -21.1570  -11.7230 C.2     1  UNL1        0.0090
      4  C         20.1740  -21.4210  -11.8290 C.2     1  UNL1        0.0170
      5  C         20.7980  -22.2630  -10.9040 C.2     1  UNL1        0.0330
      6  C         20.0530  -22.8270   -9.8650 C.2     1  UNL1        0.0420
      7  C         18.6790  -22.5600   -9.7570 C.2     1  UNL1        0.0810
      8  C         22.2540  -22.5540  -10.9740 C.2     1  UNL1        0.2520
      9  O         22.7360  -23.3800  -10.2100 O.2     1  UNL1       -0.2680
     10  N         22.9550  -21.8700  -11.9470 N.am    1  UNL1       -0.3480
     11  H         22.4090  -21.4060  -12.6600 H       1  UNL1        0.1630
     12  C         24.3770  -22.0800  -12.2430 C.3     1  UNL1        0.0340
     13  C         25.2830  -21.6600  -11.0580 C.3     1  UNL1        0.0350
     14  C         26.7680  -21.8430  -11.4210 C.3     1  UNL1       -0.0120
     15  C         27.1070  -20.9660  -12.6350 C.3     1  UNL1        0.0090
     16  C         27.0250  -23.3180  -11.7730 C.3     1  UNL1        0.0090
     17  C         26.2360  -21.3730  -13.8340 C.3     1  UNL1       -0.0120
     18  C         26.4980  -22.8480  -14.1780 C.3     1  UNL1        0.0090
     19  C         24.7560  -21.1970  -13.4630 C.3     1  UNL1        0.0350
     20  C         26.1570  -23.7360  -12.9720 C.3     1  UNL1       -0.0120
     21  C         24.6720  -23.5550  -12.6100 C.3     1  UNL1        0.0350
     22  S         17.7880  -23.3430   -8.4170 S.O2    1  UNL1        0.2460
     23  O         18.6900  -24.2670   -7.7610 O.2     1  UNL1       -0.2060
     24  O         16.5050  -23.7730   -8.9280 O.2     1  UNL1       -0.2060
     25  N         17.5970  -22.0190   -7.3560 N.pl3   1  UNL1       -0.1810
     26  H         18.5290  -21.6370   -7.1800 H       1  UNL1        0.1460
     27  C         16.9480  -22.3570   -6.1220 C.2     1  UNL1        0.0220
     28  C         15.5560  -22.4420   -6.0640 C.2     1  UNL1        0.0240
     29  C         14.9290  -22.7310   -4.8510 C.2     1  UNL1        0.0020
     30  C         15.6920  -22.9210   -3.6970 C.2     1  UNL1        0.0000
     31  C         17.0820  -22.8170   -3.7540 C.2     1  UNL1        0.0020
     32  C         17.7100  -22.5270   -4.9660 C.2     1  UNL1        0.0240
@<TRIPOS>BOND
     1    18    17    1
     2    18    20    1
     3    17    19    1
     4    17    15    1
     5    19    12    1
     6    20    21    1
     7    20    16    1
     8    11    10    1
     9    15    14    1
    10    21    12    1
    11    12    10    1
    12    12    13    1
    13    10     8   am
    14     4     3    1
    15     4     5    2
    16    16    14    1
    17     3     2    2
    18    14    13    1
    19     8     5    1
    20     8     9    2
    21     5     6    1
    22     2     1    1
    23     2     7    1
    24     6     7    2
    25     7    22    1
    26    24    22    2
    27    22    23    2
    28    22    25    1
    29    25    26    1
    30    25    27    1
    31    27    28    2
    32    27    32    1
    33    28    29    1
    34    32    31    2
    35    29    30    2
    36    31    30    1
