@<TRIPOS>MOLECULE
50234_out_ligand_01.pdbqt
 34 36 0 0 0
SMALL
GASTEIGER

@<TRIPOS>ATOM
      1  C         19.5390  -22.8280  -10.0040 C.2     1  UNL1        0.0330
      2  C         18.9400  -22.0980  -11.0340 C.2     1  UNL1        0.0170
      3  C         17.5580  -21.8910  -11.0300 C.2     1  UNL1        0.0090
      4  C         16.7510  -22.3920   -9.9930 C.2     1  UNL1       -0.0390
      5  C         15.2690  -22.1430  -10.0600 C.3     1  UNL1        0.0500
      6  C         17.3690  -23.1190   -8.9550 C.2     1  UNL1        0.0810
      7  C         18.7560  -23.3310   -8.9600 C.2     1  UNL1        0.0420
      8  C         21.0090  -23.0540   -9.9630 C.2     1  UNL1        0.2560
      9  N         21.7260  -22.3850  -10.9390 N.am    1  UNL1       -0.3230
     10  H         21.1930  -21.8900  -11.6430 H       1  UNL1        0.1690
     11  O         21.4490  -23.8110   -9.1080 O.2     1  UNL1       -0.2670
     12  C         23.1250  -22.3830  -11.1230 C.2     1  UNL1        0.0370
     13  C         23.8600  -21.4200  -10.4230 C.2     1  UNL1        0.0290
     14  C         25.2470  -21.3610  -10.5480 C.2     1  UNL1        0.0040
     15  C         25.9160  -22.2630  -11.3770 C.2     1  UNL1        0.0290
     16  C         25.2030  -23.2300  -12.0840 C.2     1  UNL1        0.0360
     17  C         23.8060  -23.2830  -11.9480 C.2     1  UNL1        0.0590
     18  N         25.7990  -24.1790  -12.9420 N.am    1  UNL1       -0.3270
     19  C         26.1340  -24.0200  -14.2740 C.2     1  UNL1        0.2180
     20  C         26.7450  -25.2690  -14.8600 C.3     1  UNL1        0.1170
     21  O         25.9630  -23.0220  -14.9660 O.2     1  UNL1       -0.2740
     22  H         25.9910  -25.0830  -12.5280 H       1  UNL1        0.1690
     23  S         16.4310  -23.8180   -7.6000 S.O2    1  UNL1        0.2460
     24  O         15.8490  -25.0610   -8.0600 O.2     1  UNL1       -0.2060
     25  O         15.6180  -22.7650   -7.0350 O.2     1  UNL1       -0.2060
     26  N         17.6940  -24.2440   -6.5330 N.pl3   1  UNL1       -0.1810
     27  H         17.4560  -25.1550   -6.1360 H       1  UNL1        0.1460
     28  C         17.9120  -23.2840   -5.4890 C.2     1  UNL1        0.0230
     29  C         17.5650  -23.6060   -4.1780 C.2     1  UNL1        0.0240
     30  C         17.8050  -22.6920   -3.1530 C.2     1  UNL1        0.0020
     31  C         18.4100  -21.4660   -3.4380 C.2     1  UNL1        0.0070
     32  C         18.7960  -21.1510   -4.7470 C.2     1  UNL1       -0.0600
     33  C         19.4370  -19.8280   -5.0480 C.3     1  UNL1        0.0480
     34  C         18.5380  -22.0680   -5.7740 C.2     1  UNL1        0.0310
@<TRIPOS>BOND
     1    21    19    2
     2    20    19    1
     3    19    18   am
     4    18    22    1
     5    18    16    1
     6    16    17    1
     7    16    15    2
     8    17    12    2
     9    10     9    1
    10    15    14    1
    11    12     9    1
    12    12    13    1
    13     2     3    1
    14     2     1    2
    15     3     4    2
    16     9     8   am
    17    14    13    2
    18     5     4    1
    19     1     8    1
    20     1     7    1
    21     4     6    1
    22     8    11    2
    23     7     6    2
    24     6    23    1
    25    24    23    2
    26    23    25    2
    27    23    26    1
    28    26    27    1
    29    26    28    1
    30    34    28    2
    31    34    32    1
    32    28    29    1
    33    33    32    1
    34    32    31    2
    35    29    30    2
    36    31    30    1
