@<TRIPOS>MOLECULE
50237_out_ligand_01.pdbqt
 35 39 0 0 0
SMALL
GASTEIGER

@<TRIPOS>ATOM
      1  C         20.3380  -23.0140   -9.7430 C.2     1  UNL1        0.0350
      2  C         20.4110  -23.8480   -8.6250 C.2     1  UNL1        0.0310
      3  C         19.2540  -24.1920   -7.9170 C.2     1  UNL1        0.0270
      4  C         18.0140  -23.7100   -8.3430 C.2     1  UNL1        0.0800
      5  C         17.9270  -22.8560   -9.4430 C.2     1  UNL1        0.0270
      6  C         19.0890  -22.5160  -10.1420 C.2     1  UNL1        0.0310
      7  N         21.4520  -22.6260  -10.5090 N.am    1  UNL1       -0.3210
      8  C         22.6450  -22.0740  -10.0760 C.2     1  UNL1        0.2800
      9  O         22.9380  -21.8330   -8.9090 O.2     1  UNL1       -0.2650
     10  H         21.3950  -22.7650  -11.5120 H       1  UNL1        0.1690
     11  C         23.5600  -21.7990  -11.1690 C.2     1  UNL1        0.1440
     12  C         23.5010  -22.1330  -12.5090 C.2     1  UNL1        0.0580
     13  C         24.6690  -21.6070  -13.1270 C.2     1  UNL1        0.0120
     14  C         25.3730  -20.9780  -12.1070 C.2     1  UNL1        0.0870
     15  C         25.2200  -21.5870  -14.4370 C.2     1  UNL1       -0.0130
     16  C         26.5900  -20.3250  -12.2770 C.2     1  UNL1        0.0390
     17  O         24.7080  -21.0900  -10.9230 O.2     1  UNL1       -0.3040
     18  C         27.1210  -20.3130  -13.5710 C.2     1  UNL1        0.0150
     19  C         26.4610  -20.9290  -14.6480 C.2     1  UNL1       -0.0250
     20  C         27.0010  -20.9110  -15.9420 C.2     1  UNL1        0.0120
     21  C         26.3350  -21.5280  -17.0050 C.2     1  UNL1        0.0010
     22  C         25.1180  -22.1740  -16.7930 C.2     1  UNL1        0.0010
     23  C         24.5570  -22.2060  -15.5160 C.2     1  UNL1        0.0130
     24  S         16.5390  -24.1470   -7.4510 S.O2    1  UNL1        0.2630
     25  O         16.9250  -25.0570   -6.3930 O.2     1  UNL1       -0.2000
     26  O         15.5210  -24.5100   -8.4150 O.2     1  UNL1       -0.2000
     27  N         16.1010  -22.7000   -6.6900 N.pl3   1  UNL1       -0.2790
     28  H         15.0890  -22.6530   -6.5590 H       1  UNL1        0.1790
     29  C         16.8900  -22.2410   -5.5860 C.2     1  UNL1        0.0640
     30  C         18.0400  -21.4850   -5.8190 C.2     1  UNL1        0.0320
     31  C         18.8360  -21.0700   -4.7500 C.2     1  UNL1        0.0020
     32  C         18.4860  -21.4080   -3.4420 C.2     1  UNL1        0.0020
     33  C         17.3340  -22.1580   -3.2000 C.2     1  UNL1        0.0260
     34  C         16.5370  -22.5720   -4.2680 C.2     1  UNL1        0.0610
     35 CL         15.1170  -23.4990   -3.9320 Cl      1  UNL1       -0.0820
@<TRIPOS>BOND
     1    21    22    1
     2    21    20    2
     3    22    23    2
     4    20    19    1
     5    23    15    1
     6    19    15    1
     7    19    18    2
     8    15    13    2
     9    18    16    1
    10    13    12    1
    11    13    14    1
    12    12    11    2
    13    16    14    2
    14    14    17    1
    15    10     7    1
    16    11    17    1
    17    11     8    1
    18     7     8   am
    19     7     1    1
    20     6     1    2
    21     6     5    1
    22     8     9    2
    23     1     2    1
    24     5     4    2
    25     2     3    2
    26    26    24    2
    27     4     3    1
    28     4    24    1
    29    24    27    1
    30    24    25    2
    31    27    28    1
    32    27    29    1
    33    30    29    2
    34    30    31    1
    35    29    34    1
    36    31    32    2
    37    34    35    1
    38    34    33    2
    39    32    33    1
