@<TRIPOS>MOLECULE
50235_out_ligand_01.pdbqt
 35 37 0 0 0
SMALL
GASTEIGER

@<TRIPOS>ATOM
      1  C         20.6130  -22.1660  -10.7710 C.2     1  UNL1        0.0330
      2  C         20.2280  -21.2090  -11.7130 C.2     1  UNL1        0.0170
      3  C         18.8910  -20.8080  -11.7980 C.2     1  UNL1        0.0090
      4  C         17.9080  -21.3530  -10.9520 C.2     1  UNL1       -0.0390
      5  C         16.4920  -20.8790  -11.1280 C.3     1  UNL1        0.0500
      6  C         18.3000  -22.3330  -10.0190 C.2     1  UNL1        0.0860
      7  C         19.6450  -22.7410   -9.9410 C.2     1  UNL1        0.0420
      8  C         22.0280  -22.6220  -10.6440 C.2     1  UNL1        0.2560
      9  N         22.9320  -21.9630  -11.4600 N.am    1  UNL1       -0.3230
     10  H         22.5910  -21.1630  -11.9790 H       1  UNL1        0.1690
     11  O         22.2850  -23.4950   -9.8210 O.2     1  UNL1       -0.2670
     12  C         24.3140  -22.2240  -11.5940 C.2     1  UNL1        0.0370
     13  C         25.1940  -21.3540  -10.9380 C.2     1  UNL1        0.0290
     14  C         26.5720  -21.5440  -11.0300 C.2     1  UNL1        0.0040
     15  C         27.0880  -22.6000  -11.7830 C.2     1  UNL1        0.0290
     16  C         26.2280  -23.4750  -12.4480 C.2     1  UNL1        0.0360
     17  C         24.8410  -23.2770  -12.3490 C.2     1  UNL1        0.0590
     18  N         26.6660  -24.5590  -13.2390 N.am    1  UNL1       -0.3270
     19  C         26.5690  -24.6950  -14.6110 C.2     1  UNL1        0.2180
     20  C         27.1210  -26.0120  -15.0980 C.3     1  UNL1        0.1170
     21  O         26.1280  -23.8700  -15.4040 O.2     1  UNL1       -0.2740
     22  H         27.1370  -25.3020  -12.7380 H       1  UNL1        0.1690
     23  S         17.1590  -23.1670   -8.9170 S.O2    1  UNL1        0.2630
     24  O         16.0030  -23.6220   -9.6550 O.2     1  UNL1       -0.2000
     25  O         17.9360  -24.1060   -8.1330 O.2     1  UNL1       -0.2000
     26  N         16.7180  -21.9460   -7.8640 N.pl3   1  UNL1       -0.2800
     27  H         16.5920  -21.0080   -8.2550 H       1  UNL1        0.1790
     28  C         16.5280  -22.1710   -6.4780 C.2     1  UNL1        0.0490
     29  C         15.2870  -22.6460   -6.0410 C.2     1  UNL1        0.0310
     30  C         15.0670  -22.9040   -4.6910 C.2     1  UNL1        0.0030
     31  C         16.0930  -22.6920   -3.7720 C.2     1  UNL1        0.0070
     32  C         17.3540  -22.2280   -4.1910 C.2     1  UNL1       -0.0540
     33  C         18.4290  -22.0210   -3.1540 C.3     1  UNL1        0.0490
     34  C         17.5920  -21.9940   -5.5690 C.2     1  UNL1       -0.0290
     35  C         18.9420  -21.5000   -6.0290 C.3     1  UNL1        0.0510
@<TRIPOS>BOND
     1    21    19    2
     2    20    19    1
     3    19    18   am
     4    18    22    1
     5    18    16    1
     6    16    17    1
     7    16    15    2
     8    17    12    2
     9    10     9    1
    10     3     2    1
    11     3     4    2
    12    15    14    1
    13     2     1    2
    14    12     9    1
    15    12    13    1
    16     9     8   am
    17     5     4    1
    18    14    13    2
    19     4     6    1
    20     1     8    1
    21     1     7    1
    22     8    11    2
    23     6     7    2
    24     6    23    1
    25    24    23    2
    26    23    25    2
    27    23    26    1
    28    27    26    1
    29    26    28    1
    30    28    29    2
    31    28    34    1
    32    29    30    1
    33    35    34    1
    34    34    32    2
    35    30    31    2
    36    32    31    1
    37    32    33    1
