@<TRIPOS>MOLECULE
50245_out_ligand_01.pdbqt
 39 44 0 0 0
SMALL
GASTEIGER

@<TRIPOS>ATOM
      1  C         20.9540  -21.6800   -7.3060 C.2     1  UNL1        0.2560
      2  O         21.9140  -21.0230   -6.9210 O.2     1  UNL1       -0.2670
      3  N         20.8420  -22.3970   -8.4820 N.am    1  UNL1       -0.3230
      4  H         20.0340  -22.9990   -8.5770 H       1  UNL1        0.1690
      5  C         19.7690  -21.7710   -6.4110 C.2     1  UNL1        0.0330
      6  C         18.8790  -22.8350   -6.5840 C.2     1  UNL1        0.0420
      7  C         17.7600  -22.9580   -5.7450 C.2     1  UNL1        0.0810
      8  C         17.5290  -22.0240   -4.7150 C.2     1  UNL1       -0.0390
      9  C         18.4380  -20.9620   -4.5590 C.2     1  UNL1        0.0090
     10  C         16.3440  -22.0860   -3.7890 C.3     1  UNL1        0.0500
     11  C         19.5520  -20.8380   -5.3930 C.2     1  UNL1        0.0170
     12  S         16.6410  -24.3170   -6.0570 S.O2    1  UNL1        0.2460
     13  O         15.7660  -24.4540   -4.9110 O.2     1  UNL1       -0.2060
     14  O         17.4200  -25.4340   -6.5410 O.2     1  UNL1       -0.2060
     15  N         15.6840  -23.6590   -7.3010 N.pl3   1  UNL1       -0.1810
     16  H         15.0570  -24.4030   -7.6200 H       1  UNL1        0.1460
     17  C         16.3950  -23.1210   -8.4230 C.2     1  UNL1        0.0220
     18  C         17.3160  -23.8710   -9.1570 C.2     1  UNL1        0.0250
     19  C         17.9130  -23.3220  -10.2960 C.2     1  UNL1        0.0080
     20  C         17.5760  -22.0330  -10.7250 C.2     1  UNL1       -0.0620
     21  C         18.2010  -21.4580  -11.9620 C.3     1  UNL1        0.0480
     22  C         16.6050  -21.3130  -10.0170 C.2     1  UNL1        0.0080
     23  C         16.0120  -21.8590   -8.8760 C.2     1  UNL1        0.0250
     24  C         21.7810  -22.4680   -9.5310 C.2     1  UNL1        0.0350
     25  C         23.0820  -22.9390   -9.3830 C.2     1  UNL1        0.0300
     26  C         23.9550  -22.9690  -10.4790 C.2     1  UNL1        0.0100
     27  C         23.5610  -22.5290  -11.7570 C.2     1  UNL1       -0.0490
     28  C         22.2490  -22.0550  -11.8850 C.2     1  UNL1        0.0100
     29  C         21.3730  -22.0230  -10.7910 C.2     1  UNL1        0.0300
     30  C         24.5530  -22.5790  -12.9310 C.3     1  UNL1       -0.0120
     31  C         24.8160  -24.0570  -13.3460 C.3     1  UNL1        0.0190
     32  C         25.7650  -24.1360  -14.5560 C.3     1  UNL1       -0.0130
     33  C         25.1400  -23.3810  -15.7410 C.3     1  UNL1        0.0090
     34  C         27.1080  -23.4870  -14.1920 C.3     1  UNL1        0.0090
     35  C         24.9200  -21.9040  -15.3700 C.3     1  UNL1       -0.0130
     36  C         26.2680  -21.2670  -15.0030 C.3     1  UNL1        0.0090
     37  C         23.9700  -21.8190  -14.1610 C.3     1  UNL1        0.0190
     38  C         26.8910  -22.0150  -13.8150 C.3     1  UNL1       -0.0130
     39  C         25.9380  -21.9380  -12.6090 C.3     1  UNL1        0.0190
@<TRIPOS>BOND
     1    33    35    1
     2    33    32    1
     3    35    36    1
     4    35    37    1
     5    36    38    1
     6    32    34    1
     7    32    31    1
     8    34    38    1
     9    37    30    1
    10    38    39    1
    11    31    30    1
    12    30    39    1
    13    30    27    1
    14    21    20    1
    15    28    27    2
    16    28    29    1
    17    27    26    1
    18    29    24    2
    19    20    19    2
    20    20    22    1
    21    26    25    2
    22    19    18    1
    23    22    23    2
    24    24    25    1
    25    24     3    1
    26    18    17    2
    27    23    17    1
    28     4     3    1
    29     3     1   am
    30    17    15    1
    31    16    15    1
    32     1     2    2
    33     1     5    1
    34    15    12    1
    35     6     5    2
    36     6     7    1
    37    14    12    2
    38     5    11    1
    39    12     7    1
    40    12    13    2
    41     7     8    2
    42    11     9    2
    43     8     9    1
    44     8    10    1
