@<TRIPOS>MOLECULE
50242_out_ligand_01.pdbqt
 37 41 0 0 0
SMALL
GASTEIGER

@<TRIPOS>ATOM
      1  N         22.7810  -22.7470  -10.6770 N.am    1  UNL1       -0.3230
      2  C         23.9540  -22.0560  -10.9070 C.2     1  UNL1        0.2560
      3  O         24.3890  -21.0940  -10.2850 O.2     1  UNL1       -0.2670
      4  H         22.5120  -23.4400  -11.3620 H       1  UNL1        0.1690
      5  C         24.7480  -22.5420  -12.0680 C.2     1  UNL1        0.0330
      6  C         25.8510  -23.3820  -11.9060 C.2     1  UNL1        0.0170
      7  C         26.5930  -23.7800  -13.0220 C.2     1  UNL1        0.0090
      8  C         26.2660  -23.3340  -14.3180 C.2     1  UNL1       -0.0390
      9  C         27.1210  -23.8060  -15.4590 C.3     1  UNL1        0.0500
     10  C         25.1710  -22.4610  -14.4630 C.2     1  UNL1        0.0860
     11  C         24.4080  -22.0850  -13.3430 C.2     1  UNL1        0.0420
     12  S         24.6580  -21.7440  -16.0220 S.O2    1  UNL1        0.2630
     13  O         23.7400  -20.6700  -15.7030 O.2     1  UNL1       -0.2000
     14  O         24.2820  -22.7850  -16.9510 O.2     1  UNL1       -0.2000
     15  N         26.0740  -21.0070  -16.5810 N.pl3   1  UNL1       -0.2810
     16  H         26.3190  -21.3120  -17.5230 H       1  UNL1        0.1790
     17  C         26.3350  -19.6530  -16.2330 C.2     1  UNL1        0.0420
     18  C         26.2360  -18.6360  -17.1820 C.2     1  UNL1        0.0300
     19  C         26.5370  -17.3190  -16.8290 C.2     1  UNL1        0.0020
     20  C         26.9360  -17.0210  -15.5260 C.2     1  UNL1        0.0000
     21  C         27.0310  -18.0360  -14.5750 C.2     1  UNL1        0.0020
     22  C         26.7280  -19.3520  -14.9270 C.2     1  UNL1        0.0300
     23  C         21.8580  -22.5470   -9.6260 C.2     1  UNL1        0.0350
     24  C         20.5040  -22.7760   -9.9190 C.2     1  UNL1        0.0440
     25  C         19.5170  -22.6090   -8.9220 C.ar    1  UNL1        0.0050
     26  C         18.0950  -22.7550   -8.9090 C.ar    1  UNL1        0.0030
     27  C         19.9130  -22.2160   -7.6450 C.ar    1  UNL1        0.0460
     28  C         17.1450  -23.1200   -9.8880 C.2     1  UNL1        0.0140
     29  C         17.6500  -22.4460   -7.6220 C.ar    1  UNL1        0.0460
     30  C         15.7880  -23.1630   -9.5550 C.2     1  UNL1        0.0010
     31  C         15.3670  -22.8480   -8.2680 C.2     1  UNL1        0.0020
     32  C         16.2870  -22.4830   -7.2800 C.2     1  UNL1        0.0300
     33  N         18.7690  -22.1310   -6.8750 N.ar    1  UNL1       -0.3460
     34  C         21.2600  -21.9800   -7.3320 C.2     1  UNL1        0.0330
     35  C         22.2190  -22.1540   -8.3400 C.2     1  UNL1        0.0320
     36  C         18.7460  -21.7660   -5.4660 C.3     1  UNL1        0.1250
     37  C         19.2480  -20.3520   -5.2310 C.3     1  UNL1        0.0270
@<TRIPOS>BOND
     1    16    15    1
     2    18    19    1
     3    18    17    2
     4    14    12    2
     5    19    20    2
     6    15    17    1
     7    15    12    1
     8    17    22    1
     9    12    13    2
    10    12    10    1
    11    20    21    1
    12     9     8    1
    13    22    21    2
    14    10     8    2
    15    10    11    1
    16     8     7    1
    17    11     5    2
    18     7     6    2
    19     5     6    1
    20     5     2    1
    21     4     1    1
    22     2     1   am
    23     2     3    2
    24     1    23    1
    25    24    23    2
    26    24    25    1
    27    28    30    1
    28    28    26    2
    29    23    35    1
    30    30    31    2
    31    25    26   ar
    32    25    27   ar
    33    26    29   ar
    34    35    34    2
    35    31    32    1
    36    27    34    1
    37    27    33   ar
    38    29    32    2
    39    29    33   ar
    40    33    36    1
    41    36    37    1
