@<TRIPOS>MOLECULE
50248_out_ligand_01.pdbqt
 35 37 0 0 0
SMALL
GASTEIGER

@<TRIPOS>ATOM
      1  C         21.5100  -21.7900  -11.8380 C.2     1  UNL1        0.0330
      2  C         20.4920  -21.0380  -12.4270 C.2     1  UNL1        0.0170
      3  C         19.2140  -21.0370  -11.8610 C.2     1  UNL1        0.0090
      4  C         18.9280  -21.7680  -10.6920 C.2     1  UNL1       -0.0390
      5  C         17.5280  -21.7080  -10.1510 C.3     1  UNL1        0.0500
      6  C         19.9710  -22.5000  -10.0940 C.2     1  UNL1        0.0860
      7  C         21.2510  -22.5190  -10.6770 C.2     1  UNL1        0.0420
      8  C         22.8930  -21.7940  -12.3820 C.2     1  UNL1        0.2560
      9  N         22.9730  -21.6500  -13.7540 N.am    1  UNL1       -0.3230
     10  H         22.1010  -21.6680  -14.2670 H       1  UNL1        0.1690
     11  O         23.8140  -21.9460  -11.5910 O.2     1  UNL1       -0.2670
     12  C         24.1450  -21.5770  -14.5390 C.2     1  UNL1        0.0370
     13  C         24.8820  -22.6900  -14.9380 C.2     1  UNL1        0.0290
     14  C         26.0370  -22.5290  -15.7060 C.2     1  UNL1        0.0040
     15  C         26.4650  -21.2550  -16.0840 C.2     1  UNL1        0.0290
     16  C         25.7430  -20.1280  -15.6970 C.2     1  UNL1        0.0360
     17  C         24.5850  -20.3000  -14.9220 C.2     1  UNL1        0.0590
     18  N         26.1020  -18.8060  -16.0390 N.am    1  UNL1       -0.3270
     19  C         26.7430  -17.8740  -15.2400 C.2     1  UNL1        0.2180
     20  C         26.9720  -16.5740  -15.9690 C.3     1  UNL1        0.1170
     21  O         27.1160  -18.0210  -14.0830 O.2     1  UNL1       -0.2740
     22  H         25.8710  -18.5090  -16.9770 H       1  UNL1        0.1690
     23  S         19.7970  -23.4450   -8.5820 S.O2    1  UNL1        0.2630
     24  O         20.4350  -24.7340   -8.7220 O.2     1  UNL1       -0.2000
     25  O         20.1590  -22.5560   -7.4960 O.2     1  UNL1       -0.2000
     26  N         18.1260  -23.6740   -8.4660 N.pl3   1  UNL1       -0.2810
     27  H         17.7900  -24.3850   -9.1130 H       1  UNL1        0.1790
     28  C         17.5010  -23.5930   -7.1900 C.2     1  UNL1        0.0430
     29  C         18.0390  -24.2450   -6.0860 C.2     1  UNL1        0.0300
     30  C         17.3840  -24.1820   -4.8550 C.2     1  UNL1        0.0090
     31  C         16.1840  -23.4690   -4.7150 C.2     1  UNL1       -0.0560
     32  C         15.5060  -23.4240   -3.3710 C.3     1  UNL1        0.0490
     33  C         15.6410  -22.8050   -5.8330 C.2     1  UNL1       -0.0540
     34  C         14.3560  -22.0270   -5.7380 C.3     1  UNL1        0.0490
     35  C         16.3120  -22.8730   -7.0660 C.2     1  UNL1        0.0370
@<TRIPOS>BOND
     1    22    18    1
     2    15    14    2
     3    15    16    1
     4    18    16    1
     5    18    19   am
     6    20    19    1
     7    14    13    1
     8    16    17    2
     9    19    21    2
    10    13    12    2
    11    17    12    1
    12    12     9    1
    13    10     9    1
    14     9     8   am
    15     2     3    1
    16     2     1    2
    17     8     1    1
    18     8    11    2
    19     3     4    2
    20     1     7    1
    21     4     5    1
    22     4     6    1
    23     7     6    2
    24     6    23    1
    25    27    26    1
    26    24    23    2
    27    23    26    1
    28    23    25    2
    29    26    28    1
    30    28    35    2
    31    28    29    1
    32    35    33    1
    33    29    30    2
    34    33    34    1
    35    33    31    2
    36    30    31    1
    37    31    32    1
