@<TRIPOS>MOLECULE
50256_out_ligand_01.pdbqt
 27 29 0 0 0
SMALL
GASTEIGER

@<TRIPOS>ATOM
      1  N         20.6200  -22.8390   -9.8110 N.am    1  UNL1       -0.3230
      2  C         20.8090  -22.6280   -8.4580 C.2     1  UNL1        0.2570
      3  O         21.7830  -22.1400   -7.9010 O.2     1  UNL1       -0.2670
      4  H         19.7230  -23.2220  -10.0860 H       1  UNL1        0.1690
      5  C         21.5240  -22.5610  -10.8550 C.2     1  UNL1        0.0350
      6  C         22.8200  -23.0810  -10.9230 C.2     1  UNL1        0.0310
      7  C         23.6620  -22.7570  -11.9920 C.2     1  UNL1        0.0270
      8  C         23.1980  -21.9160  -13.0050 C.2     1  UNL1        0.0740
      9  C         21.9120  -21.3800  -12.9490 C.2     1  UNL1        0.0270
     10  C         21.0800  -21.7060  -11.8750 C.2     1  UNL1        0.0310
     11  S         24.2750  -21.5120  -14.3540 S.O2    1  UNL1        0.2390
     12  O         25.6420  -21.7110  -13.9250 O.2     1  UNL1       -0.2060
     13  O         23.7420  -22.1040  -15.5560 O.2     1  UNL1       -0.2060
     14  N         24.0780  -19.8430  -14.4570 N.3     1  UNL1       -0.2250
     15  H         23.8140  -19.5990  -15.4130 H       1  UNL1        0.1360
     16  H         24.8920  -19.3180  -14.1370 H       1  UNL1        0.1360
     17  C         19.6430  -23.0180   -7.6290 C.2     1  UNL1        0.0430
     18  C         18.9870  -24.1900   -8.0160 C.2     1  UNL1        0.0180
     19  C         17.9240  -24.6590   -7.2600 C.2     1  UNL1        0.0020
     20  C         17.5190  -23.9540   -6.1260 C.2     1  UNL1        0.0130
     21  C         18.1480  -22.7490   -5.7170 C.2     1  UNL1       -0.0070
     22  C         17.7480  -22.0020   -4.5770 C.2     1  UNL1        0.0220
     23  C         19.2300  -22.2630   -6.4990 C.2     1  UNL1       -0.0090
     24 BR         16.3250  -22.5550   -3.4330 Br      1  UNL1       -0.0500
     25  C         18.3840  -20.8070   -4.2270 C.2     1  UNL1        0.0200
     26  C         19.4230  -20.3210   -5.0060 C.2     1  UNL1        0.0020
     27  C         19.8370  -21.0370   -6.1270 C.2     1  UNL1        0.0130
@<TRIPOS>BOND
     1    13    11    2
     2    15    14    1
     3    14    11    1
     4    14    16    1
     5    11    12    2
     6    11     8    1
     7     8     9    2
     8     8     7    1
     9     9    10    1
    10     7     6    2
    11    10     5    2
    12     6     5    1
    13     5     1    1
    14     4     1    1
    15     1     2   am
    16     2     3    2
    17     2    17    1
    18    18    17    2
    19    18    19    1
    20    17    23    1
    21    19    20    2
    22    23    27    1
    23    23    21    2
    24    27    26    2
    25    20    21    1
    26    21    22    1
    27    26    25    1
    28    22    25    2
    29    22    24    1
