@<TRIPOS>MOLECULE
50261_out_ligand_01.pdbqt
 39 44 0 0 0
SMALL
GASTEIGER

@<TRIPOS>ATOM
      1  C         22.1410  -21.4700  -12.8180 C.2     1  UNL1        0.2560
      2  O         21.2610  -20.6420  -13.0080 O.2     1  UNL1       -0.2670
      3  N         22.2210  -22.3810  -11.7810 N.am    1  UNL1       -0.3230
      4  H         22.9480  -23.0810  -11.8370 H       1  UNL1        0.1690
      5  C         23.2450  -21.5650  -13.8160 C.2     1  UNL1        0.0330
      6  C         24.0550  -22.7040  -13.8190 C.2     1  UNL1        0.0420
      7  C         25.1120  -22.8160  -14.7370 C.2     1  UNL1        0.0810
      8  C         25.3590  -21.7910  -15.6740 C.2     1  UNL1       -0.0390
      9  C         24.5090  -20.6720  -15.6770 C.2     1  UNL1        0.0090
     10  C         26.4520  -21.8530  -16.7040 C.3     1  UNL1        0.0500
     11  C         23.4620  -20.5560  -14.7590 C.2     1  UNL1        0.0170
     12  S         26.0980  -24.3070  -14.6920 S.O2    1  UNL1        0.2460
     13  O         25.2460  -25.4040  -14.2820 O.2     1  UNL1       -0.2060
     14  O         26.8720  -24.3680  -15.9120 O.2     1  UNL1       -0.2060
     15  N         27.0960  -23.9870  -13.3490 N.pl3   1  UNL1       -0.1810
     16  H         28.0200  -23.7570  -13.7260 H       1  UNL1        0.1460
     17  C         26.6650  -22.9260  -12.4820 C.2     1  UNL1        0.0230
     18  C         25.9500  -23.2860  -11.3420 C.2     1  UNL1        0.0240
     19  C         25.5870  -22.3120  -10.4110 C.2     1  UNL1        0.0020
     20  C         25.9570  -20.9820  -10.6100 C.2     1  UNL1        0.0070
     21  C         26.6940  -20.6130  -11.7430 C.2     1  UNL1       -0.0600
     22  C         27.1210  -19.1870  -11.9380 C.3     1  UNL1        0.0480
     23  C         27.0720  -21.6010  -12.6640 C.2     1  UNL1        0.0310
     24  C         21.3500  -22.5040  -10.6780 C.2     1  UNL1        0.0350
     25  C         21.7680  -22.5610   -9.3530 C.2     1  UNL1        0.0300
     26  C         20.8330  -22.6890   -8.3130 C.2     1  UNL1        0.0100
     27  C         19.4560  -22.7660   -8.5640 C.2     1  UNL1       -0.0490
     28  C         19.0530  -22.7170   -9.9090 C.2     1  UNL1        0.0100
     29  C         19.9820  -22.5850  -10.9480 C.2     1  UNL1        0.0300
     30  C         18.4090  -22.9040   -7.4440 C.3     1  UNL1       -0.0120
     31  C         18.7460  -22.0810   -6.1630 C.3     1  UNL1        0.0190
     32  C         17.6690  -22.2560   -5.0780 C.3     1  UNL1       -0.0130
     33  C         17.5750  -23.7410   -4.6970 C.3     1  UNL1        0.0090
     34  C         16.3160  -21.7800   -5.6240 C.3     1  UNL1        0.0090
     35  C         17.2030  -24.5730   -5.9330 C.3     1  UNL1       -0.0130
     36  C         15.8510  -24.0890   -6.4820 C.3     1  UNL1        0.0090
     37  C         18.2850  -24.3960   -7.0140 C.3     1  UNL1        0.0190
     38  C         15.9380  -22.6020   -6.8630 C.3     1  UNL1       -0.0130
     39  C         17.0160  -22.4180   -7.9470 C.3     1  UNL1        0.0190
@<TRIPOS>BOND
     1    10     8    1
     2    14    12    2
     3     9     8    2
     4     9    11    1
     5     8     7    1
     6    11     5    2
     7     7    12    1
     8     7     6    2
     9    12    13    2
    10    12    15    1
    11     6     5    1
    12     5     1    1
    13    16    15    1
    14    15    17    1
    15     2     1    2
    16     1     3   am
    17    23    17    2
    18    23    21    1
    19    17    18    1
    20    22    21    1
    21     4     3    1
    22     3    24    1
    23    21    20    2
    24    18    19    2
    25    29    24    2
    26    29    28    1
    27    24    25    1
    28    20    19    1
    29    28    27    2
    30    25    26    2
    31    27    26    1
    32    27    30    1
    33    39    30    1
    34    39    38    1
    35    30    37    1
    36    30    31    1
    37    37    35    1
    38    38    36    1
    39    38    34    1
    40    36    35    1
    41    31    32    1
    42    35    33    1
    43    34    32    1
    44    32    33    1
