@<TRIPOS>MOLECULE
50276_out_ligand_01.pdbqt
 32 36 0 0 0
SMALL
GASTEIGER

@<TRIPOS>ATOM
      1  N         26.5980  -24.5840  -12.3990 N.1     1  UNL1       -0.1910
      2  C         25.8870  -23.8280  -12.9210 C.1     1  UNL1        0.1030
      3  C         25.1420  -22.8480  -13.6600 C.ar    1  UNL1        0.0850
      4  C         23.9990  -22.1930  -13.2440 C.ar    1  UNL1        0.0980
      5  S         23.5020  -20.9850  -14.3470 S.2     1  UNL1       -0.0750
      6  C         24.7410  -21.3790  -15.4350 C.ar    1  UNL1       -0.0070
      7  C         25.5690  -22.3750  -14.9540 C.ar    1  UNL1       -0.0210
      8  C         26.7490  -22.8710  -15.7480 C.3     1  UNL1        0.0410
      9  C         27.1200  -21.9090  -16.8870 C.3     1  UNL1        0.0050
     10  C         25.8790  -21.4270  -17.6520 C.3     1  UNL1        0.0050
     11  C         24.9140  -20.6600  -16.7380 C.3     1  UNL1        0.0470
     12  N         23.1540  -22.2390  -12.1550 N.am    1  UNL1       -0.3160
     13  C         23.4860  -21.8150  -10.8870 C.2     1  UNL1        0.2560
     14  O         24.5920  -21.4370  -10.5260 O.2     1  UNL1       -0.2670
     15  H         22.3240  -22.8040  -12.2800 H       1  UNL1        0.1690
     16  C         22.3920  -21.9220   -9.8770 C.2     1  UNL1        0.0320
     17  C         22.6480  -21.9070   -8.4990 C.2     1  UNL1        0.0180
     18  C         21.5890  -22.0050   -7.5880 C.2     1  UNL1        0.0130
     19  C         20.2650  -22.1280   -8.0390 C.2     1  UNL1       -0.0200
     20  C         20.0210  -22.1680   -9.4180 C.2     1  UNL1        0.0130
     21  C         21.0760  -22.0680  -10.3300 C.2     1  UNL1        0.0180
     22  C         19.1470  -22.2230   -7.0780 C.2     1  UNL1        0.0510
     23  C         18.1700  -23.1130   -7.3140 C.2     1  UNL1        0.0320
     24  C         17.0540  -23.2520   -6.3940 C.2     1  UNL1       -0.0010
     25  C         16.0170  -24.1620   -6.6130 C.2     1  UNL1        0.0140
     26  C         17.0160  -22.4520   -5.2570 C.2     1  UNL1        0.0890
     27  C         14.9640  -24.2580   -5.6970 C.2     1  UNL1        0.0010
     28  C         14.9430  -23.4460   -4.5610 C.2     1  UNL1        0.0030
     29  C         15.9740  -22.5360   -4.3370 C.2     1  UNL1        0.0380
     30  O         18.0390  -21.5250   -4.9960 O.3     1  UNL1       -0.2740
     31  C         19.1220  -21.3660   -5.8550 C.2     1  UNL1        0.2990
     32  O         20.0060  -20.5530   -5.6080 O.2     1  UNL1       -0.2590
@<TRIPOS>BOND
     1    10     9    1
     2    10    11    1
     3     9     8    1
     4    11     6    1
     5     8     7    1
     6     6     7   ar
     7     6     5   ar
     8     7     3   ar
     9     5     4   ar
    10     3     4   ar
    11     3     2    1
    12     4    12    1
    13     2     1    3
    14    15    12    1
    15    12    13   am
    16    13    14    2
    17    13    16    1
    18    21    16    2
    19    21    20    1
    20    16    17    1
    21    20    19    2
    22    17    18    2
    23    19    18    1
    24    19    22    1
    25    23    22    2
    26    23    24    1
    27    22    31    1
    28    25    24    2
    29    25    27    1
    30    24    26    1
    31    31    32    2
    32    31    30    1
    33    27    28    2
    34    26    30    1
    35    26    29    2
    36    28    29    1
