@<TRIPOS>MOLECULE
5027_out_ligand_01.pdbqt
 37 40 0 0 0
SMALL
GASTEIGER

@<TRIPOS>ATOM
      1  C         19.9260  -23.3580   -9.3380 C.2     1  UNL1       -0.0340
      2  C         20.0960  -22.6420  -10.5310 C.2     1  UNL1        0.0100
      3  C         21.3720  -22.4450  -11.0650 C.2     1  UNL1        0.0170
      4  C         22.4960  -22.9780  -10.4250 C.2     1  UNL1        0.0320
      5  C         22.3340  -23.6930   -9.2330 C.2     1  UNL1        0.0170
      6  C         21.0560  -23.8890   -8.6990 C.2     1  UNL1        0.0100
      7  C         23.8330  -22.7540  -11.0420 C.2     1  UNL1        0.2510
      8  O         24.1830  -23.4070  -12.0190 O.2     1  UNL1       -0.2680
      9  N         24.6490  -21.8310  -10.4200 N.am    1  UNL1       -0.3570
     10  H         24.4110  -21.5290   -9.4840 H       1  UNL1        0.1620
     11  C         26.0350  -21.6680  -10.8230 C.3     1  UNL1        0.1270
     12  C         26.2370  -20.5250  -11.8260 C.3     1  UNL1        0.0580
     13  C         25.9260  -20.9390  -13.2480 C.2     1  UNL1       -0.0570
     14  C         26.7110  -21.9060  -13.8950 C.2     1  UNL1        0.0090
     15  C         26.4020  -22.3160  -15.1930 C.2     1  UNL1        0.0250
     16  C         25.3040  -21.7540  -15.8470 C.2     1  UNL1        0.0740
     17  C         24.5060  -20.7980  -15.2140 C.2     1  UNL1        0.0250
     18  C         24.8220  -20.3900  -13.9170 C.2     1  UNL1        0.0090
     19  S         24.8840  -22.2780  -17.4870 S.O2    1  UNL1        0.2390
     20  O         26.0350  -22.9300  -18.0630 O.2     1  UNL1       -0.2060
     21  O         24.1880  -21.1990  -18.1520 O.2     1  UNL1       -0.2060
     22  N         23.7140  -23.4500  -17.1810 N.3     1  UNL1       -0.2250
     23  H         23.7320  -24.1390  -17.9360 H       1  UNL1        0.1360
     24  H         22.7820  -23.0610  -17.0420 H       1  UNL1        0.1360
     25  C         18.5450  -23.6030   -8.7650 C.3     1  UNL1        0.2140
     26  O         17.9220  -22.4150   -8.2760 O.2     1  UNL1       -0.3440
     27  C         18.1010  -22.0680   -6.9690 C.2     1  UNL1        0.1030
     28  C         19.2220  -21.4350   -6.4240 C.2     1  UNL1        0.0400
     29  C         19.2780  -21.1240   -5.0510 C.2     1  UNL1        0.0030
     30  C         18.2160  -21.4370   -4.2020 C.2     1  UNL1        0.0100
     31  C         17.1040  -22.0470   -4.7510 C.2     1  UNL1       -0.0190
     32  C         15.8670  -22.5130   -4.0820 C.3     1  UNL1        0.0790
     33  C         17.0520  -22.3530   -6.1030 C.2     1  UNL1        0.1090
     34  C         15.0050  -22.8500   -5.3170 C.3     1  UNL1        0.0650
     35  C         13.9790  -21.7480   -5.6120 C.3     1  UNL1        0.0460
     36  C         14.2910  -24.1910   -5.1430 C.3     1  UNL1        0.0460
     37  O         15.8780  -22.9630   -6.4750 O.2     1  UNL1       -0.3370
@<TRIPOS>BOND
     1    21    19    2
     2    20    19    2
     3    23    22    1
     4    19    22    1
     5    19    16    1
     6    22    24    1
     7    16    17    2
     8    16    15    1
     9    17    18    1
    10    15    14    2
    11    18    13    2
    12    14    13    1
    13    13    12    1
    14     8     7    2
    15    12    11    1
    16     3     2    1
    17     3     4    2
    18     7     4    1
    19     7     9   am
    20    11     9    1
    21     2     1    2
    22     4     5    1
    23     9    10    1
    24     1    25    1
    25     1     6    1
    26     5     6    2
    27    25    26    1
    28    26    27    1
    29    27    28    2
    30    27    33    1
    31    37    33    1
    32    37    34    1
    33    28    29    1
    34    33    31    2
    35    35    34    1
    36    34    36    1
    37    34    32    1
    38    29    30    2
    39    31    30    1
    40    31    32    1
