@<TRIPOS>MOLECULE
50280_out_ligand_01.pdbqt
 36 40 0 0 0
SMALL
GASTEIGER

@<TRIPOS>ATOM
      1  C         23.7930  -22.3360  -13.8310 C.2     1  UNL1        0.0800
      2  C         22.7240  -21.4420  -13.7510 C.2     1  UNL1        0.0270
      3  C         21.9270  -21.4150  -12.6020 C.2     1  UNL1        0.0310
      4  C         22.1990  -22.2670  -11.5280 C.2     1  UNL1        0.0350
      5  C         23.2940  -23.1400  -11.6120 C.2     1  UNL1        0.0310
      6  C         24.0960  -23.1730  -12.7560 C.2     1  UNL1        0.0270
      7  N         21.4420  -22.3060  -10.3440 N.am    1  UNL1       -0.3210
      8  C         21.4820  -23.2440   -9.3260 C.2     1  UNL1        0.2800
      9  O         22.2170  -24.2250   -9.2910 O.2     1  UNL1       -0.2650
     10  H         20.7790  -21.5530  -10.1930 H       1  UNL1        0.1690
     11  C         20.5410  -22.9490   -8.2600 C.2     1  UNL1        0.1440
     12  C         19.3640  -23.5710   -7.8920 C.2     1  UNL1        0.0580
     13  C         18.8460  -22.8620   -6.7720 C.2     1  UNL1        0.0120
     14  C         19.7580  -21.8410   -6.5300 C.2     1  UNL1        0.0870
     15  C         17.7070  -22.9620   -5.9270 C.2     1  UNL1       -0.0130
     16  C         19.6350  -20.9010   -5.5110 C.2     1  UNL1        0.0390
     17  O         20.7830  -21.8900   -7.4250 O.2     1  UNL1       -0.3040
     18  C         18.5090  -21.0110   -4.6880 C.2     1  UNL1        0.0150
     19  C         17.5490  -22.0190   -4.8770 C.2     1  UNL1       -0.0250
     20  C         16.4230  -22.1200   -4.0480 C.2     1  UNL1        0.0120
     21  C         15.4740  -23.1270   -4.2470 C.2     1  UNL1        0.0010
     22  C         15.6340  -24.0500   -5.2780 C.2     1  UNL1        0.0010
     23  C         16.7440  -23.9730   -6.1190 C.2     1  UNL1        0.0130
     24  S         24.8020  -22.3760  -15.2950 S.O2    1  UNL1        0.2630
     25  O         24.8780  -23.7530  -15.7370 O.2     1  UNL1       -0.2000
     26  O         24.3430  -21.3290  -16.1820 O.2     1  UNL1       -0.2000
     27  N         26.3380  -21.9880  -14.7130 N.pl3   1  UNL1       -0.2800
     28  H         26.7800  -22.7600  -14.2170 H       1  UNL1        0.1790
     29  C         26.6280  -20.6500  -14.3180 C.2     1  UNL1        0.0500
     30  C         26.7640  -19.6870  -15.3250 C.2     1  UNL1        0.0310
     31  C         27.0100  -18.3540  -15.0050 C.2     1  UNL1        0.0040
     32  C         27.1170  -17.9780  -13.6720 C.2     1  UNL1        0.0240
     33  C         26.9800  -18.9340  -12.6610 C.2     1  UNL1        0.0420
     34  C         26.7330  -20.2900  -12.9610 C.2     1  UNL1       -0.0130
     35 CL         27.1180  -18.3790  -11.0280 Cl      1  UNL1       -0.0840
     36  C         26.5830  -21.2870  -11.8440 C.3     1  UNL1        0.0520
@<TRIPOS>BOND
     1    26    24    2
     2    25    24    2
     3    30    31    1
     4    30    29    2
     5    24    27    1
     6    24     1    1
     7    31    32    2
     8    27    29    1
     9    27    28    1
    10    29    34    1
    11     1     2    2
    12     1     6    1
    13     2     3    1
    14    32    33    1
    15    34    33    2
    16    34    36    1
    17     6     5    2
    18    33    35    1
    19     3     4    2
    20     5     4    1
    21     4     7    1
    22     7    10    1
    23     7     8   am
    24     8     9    2
    25     8    11    1
    26    11    12    2
    27    11    17    1
    28    12    13    1
    29    17    14    1
    30    13    14    2
    31    13    15    1
    32    14    16    1
    33    23    15    2
    34    23    22    1
    35    15    19    1
    36    16    18    2
    37    22    21    2
    38    19    18    1
    39    19    20    2
    40    21    20    1
