@<TRIPOS>MOLECULE
50284_out_ligand_01.pdbqt
 38 41 0 0 0
SMALL
GASTEIGER

@<TRIPOS>ATOM
      1  C         17.0420  -20.7560  -11.4090 C.3     1  UNL1        0.0500
      2  C         18.3060  -21.4500  -10.9790 C.2     1  UNL1       -0.0390
      3  C         19.4820  -21.1850  -11.7020 C.2     1  UNL1        0.0090
      4  C         20.6920  -21.8060  -11.3750 C.2     1  UNL1        0.0170
      5  C         20.7450  -22.7230  -10.3220 C.2     1  UNL1        0.0330
      6  C         19.5850  -23.0030   -9.5940 C.2     1  UNL1        0.0420
      7  C         18.3710  -22.3720   -9.9160 C.2     1  UNL1        0.0860
      8  C         22.0110  -23.4070   -9.9260 C.2     1  UNL1        0.2560
      9  O         21.9270  -24.4230   -9.2460 O.2     1  UNL1       -0.2670
     10  N         23.1690  -22.8200  -10.3950 N.am    1  UNL1       -0.3220
     11  H         23.0680  -22.0460  -11.0520 H       1  UNL1        0.1690
     12  C         24.5040  -23.2800  -10.2580 C.2     1  UNL1        0.0500
     13  C         24.9750  -23.8970   -9.0920 C.2     1  UNL1        0.0300
     14  C         26.2740  -24.4150   -9.0280 C.2     1  UNL1        0.0020
     15  C         27.1210  -24.3350  -10.1300 C.2     1  UNL1        0.0010
     16  C         26.6800  -23.7060  -11.2910 C.2     1  UNL1        0.0190
     17  C         25.3940  -23.1420  -11.3450 C.2     1  UNL1        0.0590
     18  C         24.9670  -22.4440  -12.5900 C.2     1  UNL1        0.2560
     19  O         24.1780  -23.0280  -13.3370 O.2     1  UNL1       -0.2670
     20  N         25.4560  -21.1670  -12.8710 N.am    1  UNL1       -0.3480
     21  C         25.1670  -20.6220  -14.1960 C.3     1  UNL1        0.1260
     22  C         25.8320  -20.1900  -11.8500 C.3     1  UNL1        0.1260
     23  C         25.7490  -19.2220  -14.4130 C.3     1  UNL1        0.0200
     24  C         27.1210  -19.0910  -13.7630 C.3     1  UNL1        0.0030
     25  C         27.0880  -19.4270  -12.2680 C.3     1  UNL1        0.0200
     26  S         16.9320  -22.8440   -8.9570 S.O2    1  UNL1        0.2630
     27  O         16.3500  -21.6470   -8.3880 O.2     1  UNL1       -0.2000
     28  O         16.1200  -23.7280   -9.7640 O.2     1  UNL1       -0.2000
     29  N         17.5910  -23.7040   -7.6680 N.pl3   1  UNL1       -0.2800
     30  H         17.8460  -24.6570   -7.9160 H       1  UNL1        0.1790
     31  C         17.2340  -23.4110   -6.3160 C.2     1  UNL1        0.0490
     32  C         16.0740  -23.9700   -5.7730 C.2     1  UNL1        0.0310
     33  C         15.7090  -23.7010   -4.4570 C.2     1  UNL1        0.0030
     34  C         16.4950  -22.8580   -3.6780 C.2     1  UNL1        0.0070
     35  C         17.6540  -22.2640   -4.2050 C.2     1  UNL1       -0.0540
     36  C         18.4460  -21.3410   -3.3150 C.3     1  UNL1        0.0490
     37  C         18.0310  -22.5330   -5.5450 C.2     1  UNL1       -0.0290
     38  C         19.2630  -21.9050   -6.1460 C.3     1  UNL1        0.0510
@<TRIPOS>BOND
     1    23    21    1
     2    23    24    1
     3    21    20    1
     4    24    25    1
     5    19    18    2
     6    20    18   am
     7    20    22    1
     8    18    17    1
     9    25    22    1
    10     3     4    1
    11     3     2    2
    12     1     2    1
    13     4     5    2
    14    17    16    1
    15    17    12    2
    16    16    15    2
    17    11    10    1
    18     2     7    1
    19    10    12    1
    20    10     8   am
    21     5     8    1
    22     5     6    1
    23    12    13    1
    24    15    14    1
    25     8     9    2
    26     7     6    2
    27     7    26    1
    28    28    26    2
    29    13    14    2
    30    26    27    2
    31    26    29    1
    32    30    29    1
    33    29    31    1
    34    31    32    2
    35    31    37    1
    36    38    37    1
    37    32    33    1
    38    37    35    2
    39    33    34    2
    40    35    34    1
    41    35    36    1
