@<TRIPOS>MOLECULE
50281_out_ligand_01.pdbqt
 38 42 0 0 0
SMALL
GASTEIGER

@<TRIPOS>ATOM
      1  C         24.6610  -22.6290  -12.1700 C.2     1  UNL1        0.0330
      2  C         25.6650  -23.5890  -12.0140 C.2     1  UNL1        0.0170
      3  C         26.4460  -23.9650  -13.1110 C.2     1  UNL1        0.0090
      4  C         26.2520  -23.3820  -14.3780 C.2     1  UNL1       -0.0390
      5  C         27.1200  -23.8570  -15.5100 C.3     1  UNL1        0.0500
      6  C         25.2410  -22.4100  -14.5190 C.2     1  UNL1        0.0860
      7  C         24.4520  -22.0390  -13.4180 C.2     1  UNL1        0.0420
      8  C         23.8190  -22.1900  -11.0250 C.2     1  UNL1        0.2560
      9  N         22.6430  -22.9000  -10.8730 N.am    1  UNL1       -0.3230
     10  H         22.4190  -23.5750  -11.5930 H       1  UNL1        0.1690
     11  O         24.2140  -21.2480  -10.3520 O.2     1  UNL1       -0.2670
     12  C         21.6640  -22.7280   -9.8690 C.2     1  UNL1        0.0350
     13  C         20.2910  -22.8650  -10.0950 C.2     1  UNL1        0.0440
     14  C         19.3720  -22.6710   -9.0370 C.ar    1  UNL1        0.0050
     15  C         17.9460  -22.7310   -8.9530 C.ar    1  UNL1        0.0030
     16  C         19.8570  -22.3420   -7.7710 C.ar    1  UNL1        0.0460
     17  C         16.9300  -23.0100   -9.8930 C.2     1  UNL1        0.0140
     18  C         17.5850  -22.4320   -7.6390 C.ar    1  UNL1        0.0460
     19  C         15.5890  -22.9730   -9.4950 C.2     1  UNL1        0.0010
     20  C         15.2520  -22.6650   -8.1820 C.2     1  UNL1        0.0020
     21  C         16.2400  -22.3910   -7.2310 C.2     1  UNL1        0.0300
     22  N         18.7600  -22.2180   -6.9410 N.ar    1  UNL1       -0.3460
     23  C         21.2300  -22.1940   -7.5250 C.2     1  UNL1        0.0330
     24  C         22.1170  -22.3910   -8.5910 C.2     1  UNL1        0.0320
     25  C         18.8290  -21.9170   -5.5190 C.3     1  UNL1        0.1250
     26  C         19.1750  -20.4630   -5.2550 C.3     1  UNL1        0.0270
     27  S         24.8630  -21.6320  -16.0860 S.O2    1  UNL1        0.2630
     28  O         23.8100  -20.6620  -15.8640 O.2     1  UNL1       -0.2000
     29  O         24.6880  -22.6720  -17.0790 O.2     1  UNL1       -0.2000
     30  N         26.2910  -20.8320  -16.4810 N.pl3   1  UNL1       -0.2800
     31  H         27.1180  -21.3150  -16.1410 H       1  UNL1        0.1790
     32  C         26.3270  -19.4120  -16.6170 C.2     1  UNL1        0.0480
     33  C         26.0380  -18.8140  -17.8480 C.2     1  UNL1        0.0300
     34  C         26.0400  -17.4240  -17.9810 C.2     1  UNL1        0.0020
     35  C         26.3500  -16.6230  -16.8890 C.2     1  UNL1        0.0010
     36  C         26.6690  -17.2100  -15.6640 C.2     1  UNL1        0.0090
     37  C         26.6720  -18.6080  -15.5140 C.2     1  UNL1       -0.0350
     38  C         27.0070  -19.1880  -14.1670 C.3     1  UNL1        0.0500
@<TRIPOS>BOND
     1    34    33    1
     2    34    35    2
     3    33    32    2
     4    29    27    2
     5    35    36    1
     6    32    30    1
     7    32    37    1
     8    30    31    1
     9    30    27    1
    10    27    28    2
    11    27     6    1
    12    36    37    2
    13    37    38    1
    14     5     4    1
    15     6     4    2
    16     6     7    1
    17     4     3    1
    18     7     1    2
    19     3     2    2
    20     1     2    1
    21     1     8    1
    22    10     9    1
    23     8     9   am
    24     8    11    2
    25     9    12    1
    26    13    12    2
    27    13    14    1
    28    17    19    1
    29    17    15    2
    30    12    24    1
    31    19    20    2
    32    14    15   ar
    33    14    16   ar
    34    15    18   ar
    35    24    23    2
    36    20    21    1
    37    16    23    1
    38    16    22   ar
    39    18    21    2
    40    18    22   ar
    41    22    25    1
    42    25    26    1
