@<TRIPOS>MOLECULE
50299_out_ligand_01.pdbqt
 34 38 0 0 0
SMALL
GASTEIGER

@<TRIPOS>ATOM
      1  C         22.3280  -22.3840  -11.8050 C.2     1  UNL1        0.0350
      2  C         22.1700  -21.4030  -12.7960 C.2     1  UNL1        0.0310
      3  C         23.0940  -21.2820  -13.8380 C.2     1  UNL1        0.0270
      4  C         24.1820  -22.1530  -13.8950 C.2     1  UNL1        0.0800
      5  C         24.3680  -23.1180  -12.9030 C.2     1  UNL1        0.0270
      6  C         23.4370  -23.2340  -11.8650 C.2     1  UNL1        0.0310
      7  N         21.3430  -22.4340  -10.7950 N.am    1  UNL1       -0.3210
      8  C         21.5020  -22.1830   -9.4380 C.2     1  UNL1        0.2800
      9  O         22.5770  -21.9170   -8.9100 O.2     1  UNL1       -0.2650
     10  H         20.4260  -22.7240  -11.0990 H       1  UNL1        0.1690
     11  C         20.2680  -22.2830   -8.6680 C.2     1  UNL1        0.1440
     12  C         19.9670  -22.1750   -7.3190 C.2     1  UNL1        0.0580
     13  C         18.5620  -22.3740   -7.1760 C.2     1  UNL1        0.0120
     14  C         18.0920  -22.5950   -8.4620 C.2     1  UNL1        0.0870
     15  C         17.6280  -22.3950   -6.1030 C.2     1  UNL1       -0.0130
     16  C         16.7610  -22.8370   -8.7840 C.2     1  UNL1        0.0390
     17  O         19.1120  -22.5440   -9.3580 O.2     1  UNL1       -0.3040
     18  C         15.8510  -22.8530   -7.7220 C.2     1  UNL1        0.0150
     19  C         16.2590  -22.6380   -6.3960 C.2     1  UNL1       -0.0250
     20  C         15.3400  -22.6570   -5.3370 C.2     1  UNL1        0.0120
     21  C         15.7570  -22.4440   -4.0200 C.2     1  UNL1        0.0010
     22  C         17.1010  -22.2060   -3.7380 C.2     1  UNL1        0.0010
     23  C         18.0380  -22.1800   -4.7720 C.2     1  UNL1        0.0130
     24  S         25.3660  -22.0130  -15.2150 S.O2    1  UNL1        0.2630
     25  O         25.4060  -23.2780  -15.9180 O.2     1  UNL1       -0.2000
     26  O         25.0890  -20.7760  -15.9150 O.2     1  UNL1       -0.2000
     27  N         26.8220  -21.7750  -14.3940 N.pl3   1  UNL1       -0.2810
     28  H         27.6270  -21.8880  -15.0090 H       1  UNL1        0.1790
     29  C         26.8960  -20.7790  -13.3830 C.2     1  UNL1        0.0420
     30  C         26.7490  -21.1130  -12.0360 C.2     1  UNL1        0.0300
     31  C         26.7900  -20.1160  -11.0620 C.2     1  UNL1        0.0020
     32  C         26.9740  -18.7840  -11.4330 C.2     1  UNL1        0.0000
     33  C         27.1210  -18.4490  -12.7790 C.2     1  UNL1        0.0020
     34  C         27.0830  -19.4460  -13.7550 C.2     1  UNL1        0.0300
@<TRIPOS>BOND
     1    25    24    2
     2    26    24    2
     3    24    27    1
     4    24     4    1
     5    28    27    1
     6    27    29    1
     7     4     3    2
     8     4     5    1
     9     3     2    1
    10    34    29    2
    11    34    33    1
    12    29    30    1
    13     5     6    2
    14     2     1    2
    15    33    32    2
    16    30    31    2
    17     6     1    1
    18     1     7    1
    19    32    31    1
    20    10     7    1
    21     7     8   am
    22     8     9    2
    23     8    11    1
    24    17    11    1
    25    17    14    1
    26    16    14    1
    27    16    18    2
    28    11    12    2
    29    14    13    2
    30    18    19    1
    31    12    13    1
    32    13    15    1
    33    19    15    2
    34    19    20    1
    35    15    23    1
    36    20    21    2
    37    23    22    2
    38    21    22    1
