@<TRIPOS>MOLECULE
50297_out_ligand_01.pdbqt
 35 39 0 0 0
SMALL
GASTEIGER

@<TRIPOS>ATOM
      1  C         24.7910  -21.5110  -12.1010 C.2     1  UNL1        0.0800
      2  C         23.6450  -21.8360  -12.8320 C.2     1  UNL1        0.0270
      3  C         22.4400  -22.0790  -12.1630 C.2     1  UNL1        0.0310
      4  C         22.3770  -22.0150  -10.7700 C.2     1  UNL1        0.0350
      5  C         23.5380  -21.6950  -10.0500 C.2     1  UNL1        0.0310
      6  C         24.7440  -21.4410  -10.7100 C.2     1  UNL1        0.0270
      7  N         21.2130  -22.2770  -10.0230 N.am    1  UNL1       -0.3210
      8  C         20.9210  -23.3830   -9.2440 C.2     1  UNL1        0.2800
      9  O         21.6220  -24.3840   -9.1310 O.2     1  UNL1       -0.2650
     10  H         20.4890  -21.5670  -10.0350 H       1  UNL1        0.1690
     11  C         19.6590  -23.2450   -8.5390 C.2     1  UNL1        0.1440
     12  C         19.3810  -23.0800   -7.1980 C.2     1  UNL1        0.0580
     13  C         17.9700  -22.9480   -7.0710 C.2     1  UNL1        0.0120
     14  C         17.4750  -23.0500   -8.3640 C.2     1  UNL1        0.0870
     15  C         17.0470  -22.7450   -6.0100 C.2     1  UNL1       -0.0130
     16  C         16.1290  -22.9630   -8.6990 C.2     1  UNL1        0.0390
     17  O         18.4870  -23.2390   -9.2550 O.2     1  UNL1       -0.3040
     18  C         15.2320  -22.7540   -7.6460 C.2     1  UNL1        0.0150
     19  C         15.6640  -22.6460   -6.3160 C.2     1  UNL1       -0.0250
     20  C         14.7580  -22.4380   -5.2660 C.2     1  UNL1        0.0120
     21  C         15.2020  -22.3350   -3.9430 C.2     1  UNL1        0.0010
     22  C         16.5580  -22.4310   -3.6480 C.2     1  UNL1        0.0010
     23  C         17.4820  -22.6310   -4.6760 C.2     1  UNL1        0.0130
     24  S         26.3240  -21.2160  -12.9500 S.O2    1  UNL1        0.2630
     25  O         27.0780  -20.2340  -12.1990 O.2     1  UNL1       -0.2000
     26  O         26.8890  -22.5110  -13.2590 O.2     1  UNL1       -0.2000
     27  N         25.8600  -20.5500  -14.4130 N.pl3   1  UNL1       -0.2810
     28  H         25.9380  -19.5340  -14.4300 H       1  UNL1        0.1790
     29  C         25.8640  -21.2580  -15.6540 C.2     1  UNL1        0.0430
     30  C         26.9590  -21.0610  -16.4940 C.2     1  UNL1        0.0300
     31  C         27.0240  -21.6920  -17.7370 C.2     1  UNL1        0.0030
     32  C         25.9790  -22.5130  -18.1520 C.2     1  UNL1        0.0070
     33  C         24.8590  -22.6940  -17.3390 C.2     1  UNL1       -0.0600
     34  C         23.7420  -23.5850  -17.7960 C.3     1  UNL1        0.0480
     35  C         24.8030  -22.0510  -16.0930 C.2     1  UNL1        0.0370
@<TRIPOS>BOND
     1    32    31    2
     2    32    33    1
     3    34    33    1
     4    31    30    1
     5    33    35    2
     6    30    29    2
     7    35    29    1
     8    29    27    1
     9    28    27    1
    10    27    24    1
    11    26    24    2
    12    24    25    2
    13    24     1    1
    14     2     3    1
    15     2     1    2
    16     3     4    2
    17     1     6    1
    18     4     5    1
    19     4     7    1
    20     6     5    2
    21    10     7    1
    22     7     8   am
    23    17    11    1
    24    17    14    1
    25     8     9    2
    26     8    11    1
    27    16    14    1
    28    16    18    2
    29    11    12    2
    30    14    13    2
    31    18    19    1
    32    12    13    1
    33    13    15    1
    34    19    15    2
    35    19    20    1
    36    15    23    1
    37    20    21    2
    38    23    22    2
    39    21    22    1
