@<TRIPOS>MOLECULE
50295_out_ligand_01.pdbqt
 37 40 0 0 0
SMALL
GASTEIGER

@<TRIPOS>ATOM
      1  C         19.6480  -21.7160  -11.2060 C.2     1  UNL1        0.0540
      2  C         18.7980  -20.6220  -11.4270 C.2     1  UNL1        0.0190
      3  C         17.4840  -20.6460  -10.9530 C.2     1  UNL1        0.0010
      4  C         17.0160  -21.7530  -10.2460 C.2     1  UNL1        0.0020
      5  C         17.8580  -22.8390  -10.0080 C.2     1  UNL1        0.0250
      6  C         19.1750  -22.8240  -10.4770 C.2     1  UNL1        0.0380
      7  C         21.0590  -21.6880  -11.6800 C.2     1  UNL1        0.2530
      8  N         22.0370  -21.5890  -10.7130 N.am    1  UNL1       -0.3570
      9  H         21.7690  -21.2800   -9.7860 H       1  UNL1        0.1620
     10  O         21.2990  -21.7300  -12.8840 O.2     1  UNL1       -0.2680
     11  C         23.4340  -21.4180  -11.0730 C.3     1  UNL1        0.1270
     12  C         24.1500  -22.7490  -11.3280 C.3     1  UNL1        0.0580
     13  C         24.4840  -22.9550  -12.7880 C.2     1  UNL1       -0.0540
     14  C         24.3610  -21.8990  -13.6950 C.2     1  UNL1        0.0100
     15  C         24.7010  -22.0720  -15.0380 C.2     1  UNL1        0.0400
     16  C         25.1690  -23.3070  -15.4980 C.2     1  UNL1        0.1010
     17  C         25.2930  -24.3800  -14.5930 C.2     1  UNL1        0.1020
     18  C         24.9510  -24.1960  -13.2470 C.2     1  UNL1        0.0460
     19  O         25.5330  -23.5640  -16.7970 O.2     1  UNL1       -0.3530
     20  C         24.6680  -23.1020  -17.8230 C.3     1  UNL1        0.2100
     21  O         25.7650  -25.5590  -15.1170 O.2     1  UNL1       -0.3530
     22  C         27.1210  -25.8960  -14.8640 C.3     1  UNL1        0.2100
     23  N         19.9860  -23.9930  -10.2780 N.pl3   1  UNL1       -0.1800
     24  H         19.4970  -24.8720  -10.5050 H       1  UNL1        0.1460
     25  S         20.6890  -24.1690   -8.7420 S.O2    1  UNL1        0.2450
     26  O         21.8110  -23.2590   -8.6810 O.2     1  UNL1       -0.2060
     27  O         20.8480  -25.5780   -8.4470 O.2     1  UNL1       -0.2060
     28  C         19.4320  -23.5050   -7.6780 C.2     1  UNL1        0.0750
     29  C         19.6550  -22.2840   -7.0410 C.2     1  UNL1        0.0260
     30  C         18.6700  -21.7570   -6.2060 C.2     1  UNL1        0.0140
     31  C         17.4620  -22.4430   -5.9980 C.2     1  UNL1       -0.0260
     32  C         16.4610  -21.9220   -5.1630 C.2     1  UNL1        0.0120
     33  C         17.2480  -23.6890   -6.6390 C.2     1  UNL1       -0.0250
     34  C         15.2660  -22.6160   -4.9630 C.2     1  UNL1        0.0010
     35  C         15.0570  -23.8380   -5.5930 C.2     1  UNL1        0.0010
     36  C         16.0410  -24.3730   -6.4260 C.2     1  UNL1        0.0120
     37  C         18.2440  -24.2150   -7.4750 C.2     1  UNL1        0.0370
@<TRIPOS>BOND
     1    20    19    1
     2    19    16    1
     3    16    15    2
     4    16    17    1
     5    21    22    1
     6    21    17    1
     7    15    14    1
     8    17    18    2
     9    14    13    2
    10    18    13    1
    11    10     7    2
    12    13    12    1
    13     7     1    1
    14     7     8   am
    15     2     1    2
    16     2     3    1
    17    12    11    1
    18     1     6    1
    19    11     8    1
    20     3     4    2
    21     8     9    1
    22    24    23    1
    23     6    23    1
    24     6     5    2
    25    23    25    1
    26     4     5    1
    27    25    26    2
    28    25    27    2
    29    25    28    1
    30    28    37    2
    31    28    29    1
    32    37    33    1
    33    29    30    2
    34    33    36    1
    35    33    31    2
    36    36    35    2
    37    30    31    1
    38    31    32    1
    39    35    34    1
    40    32    34    2
