@<TRIPOS>MOLECULE
502_out_ligand_01.pdbqt
 38 40 0 0 0
SMALL
GASTEIGER

@<TRIPOS>ATOM
      1  N         21.2920  -21.8820  -12.1590 N.am    1  UNL1       -0.3230
      2  C         20.8340  -22.3710  -10.9490 C.2     1  UNL1        0.2560
      3  O         21.4910  -22.9780  -10.1110 O.2     1  UNL1       -0.2670
      4  H         20.5980  -21.5540  -12.8200 H       1  UNL1        0.1690
      5  C         19.3810  -22.1620  -10.6900 C.2     1  UNL1        0.0330
      6  C         18.6560  -21.3480  -11.5730 C.2     1  UNL1        0.0170
      7  C         17.2940  -21.1200  -11.3680 C.2     1  UNL1        0.0030
      8  C         16.6420  -21.7170  -10.2900 C.2     1  UNL1        0.0250
      9  C         17.3590  -22.5570   -9.4330 C.2     1  UNL1        0.0800
     10  C         18.7280  -22.7790   -9.6180 C.2     1  UNL1        0.0420
     11  S         16.5360  -23.3290   -8.0560 S.O2    1  UNL1        0.2630
     12  O         15.9090  -24.5420   -8.5340 O.2     1  UNL1       -0.2000
     13  O         15.7680  -22.2930   -7.3950 O.2     1  UNL1       -0.2000
     14  N         17.8040  -23.7250   -7.0140 N.pl3   1  UNL1       -0.2780
     15  H         17.7820  -24.7140   -6.7610 H       1  UNL1        0.1790
     16  C         18.1140  -22.8220   -5.9510 C.2     1  UNL1        0.0810
     17  C         18.9180  -21.7050   -6.1670 C.2     1  UNL1        0.0330
     18  C         19.1650  -20.8150   -5.1180 C.2     1  UNL1        0.0020
     19  C         18.6050  -21.0390   -3.8570 C.2     1  UNL1        0.0030
     20  C         17.7980  -22.1550   -3.6400 C.2     1  UNL1        0.0440
     21  C         17.5580  -23.0370   -4.6870 C.2     1  UNL1        0.1430
     22  F         16.7680  -24.1030   -4.4840 F       1  UNL1       -0.2040
     23  C         22.6240  -21.8970  -12.6320 C.2     1  UNL1        0.0360
     24  C         23.5380  -22.7030  -11.9440 C.2     1  UNL1        0.0460
     25  C         24.8800  -22.7780  -12.3470 C.2     1  UNL1        0.0350
     26  C         25.3050  -22.0460  -13.4590 C.2     1  UNL1        0.0340
     27  C         24.4000  -21.2310  -14.1520 C.2     1  UNL1        0.0350
     28  C         23.0600  -21.1720  -13.7430 C.2     1  UNL1        0.0460
     29  C         25.7910  -23.6600  -11.5700 C.2     1  UNL1        0.2490
     30  N         25.7230  -23.6190  -10.2060 N.am    1  UNL1       -0.3660
     31  H         26.2980  -24.2850   -9.7050 H       1  UNL1        0.1590
     32  H         24.9920  -23.1550   -9.6870 H       1  UNL1        0.1590
     33  O         26.5650  -24.4250  -12.1320 O.2     1  UNL1       -0.2680
     34  C         24.9110  -20.4690  -15.3250 C.2     1  UNL1        0.2490
     35  N         24.2970  -20.6500  -16.5320 N.am    1  UNL1       -0.3660
     36  H         23.4280  -21.1460  -16.6580 H       1  UNL1        0.1590
     37  H         24.6130  -20.0630  -17.2940 H       1  UNL1        0.1590
     38  O         25.8370  -19.6760  -15.2100 O.2     1  UNL1       -0.2680
@<TRIPOS>BOND
     1    37    35    1
     2    36    35    1
     3    35    34   am
     4    34    38    2
     5    34    27    1
     6    27    28    1
     7    27    26    2
     8    28    23    2
     9    26    25    1
    10     4     1    1
    11    23     1    1
    12    23    24    1
    13    25    24    2
    14    25    29    1
    15     1     2   am
    16    33    29    2
    17     6     7    1
    18     6     5    2
    19    29    30   am
    20     7     8    2
    21     2     5    1
    22     2     3    2
    23     5    10    1
    24     8     9    1
    25    30    31    1
    26    30    32    1
    27    10     9    2
    28     9    11    1
    29    12    11    2
    30    11    13    2
    31    11    14    1
    32    14    15    1
    33    14    16    1
    34    17    16    2
    35    17    18    1
    36    16    21    1
    37    18    19    2
    38    21    22    1
    39    21    20    2
    40    19    20    1
