@<TRIPOS>MOLECULE
50314_out_ligand_01.pdbqt
 38 41 0 0 0
SMALL
GASTEIGER

@<TRIPOS>ATOM
      1  C         18.2470  -22.6540   -9.7500 C.2     1  UNL1        0.0860
      2  C         19.4930  -23.2340   -9.4440 C.2     1  UNL1        0.0420
      3  C         20.6580  -22.8590  -10.1260 C.2     1  UNL1        0.0330
      4  C         20.5700  -21.8570  -11.0980 C.2     1  UNL1        0.0170
      5  C         19.3360  -21.2650  -11.3920 C.2     1  UNL1        0.0090
      6  C         18.1560  -21.6500  -10.7280 C.2     1  UNL1       -0.0390
      7  C         16.8860  -20.9330  -11.0900 C.3     1  UNL1        0.0500
      8  C         21.9410  -23.5380   -9.7480 C.2     1  UNL1        0.2560
      9  O         21.8760  -24.5470   -9.0530 O.2     1  UNL1       -0.2670
     10  N         23.1010  -22.9650  -10.2300 N.am    1  UNL1       -0.3220
     11  H         23.0130  -22.2080  -10.9020 H       1  UNL1        0.1690
     12  C         24.4410  -23.3770  -10.0120 C.2     1  UNL1        0.0500
     13  C         24.8340  -24.1550   -8.9200 C.2     1  UNL1        0.0300
     14  C         26.1630  -24.5760   -8.7840 C.2     1  UNL1        0.0020
     15  C         27.1180  -24.2320   -9.7390 C.2     1  UNL1        0.0010
     16  C         26.7520  -23.4410  -10.8230 C.2     1  UNL1        0.0190
     17  C         25.4290  -22.9880  -10.9400 C.2     1  UNL1        0.0590
     18  C         25.0750  -22.1060  -12.0770 C.2     1  UNL1        0.2560
     19  O         25.1880  -20.8940  -11.8910 O.2     1  UNL1       -0.2670
     20  N         24.7090  -22.6670  -13.3050 N.am    1  UNL1       -0.3480
     21  C         24.9760  -24.0600  -13.6760 C.3     1  UNL1        0.1260
     22  C         24.2530  -21.7610  -14.3580 C.3     1  UNL1        0.1260
     23  C         26.4230  -24.2530  -14.1270 C.3     1  UNL1        0.0200
     24  C         26.7400  -23.6890  -15.5100 C.3     1  UNL1        0.0020
     25  C         26.3860  -22.2150  -15.7150 C.3     1  UNL1        0.0020
     26  C         24.8780  -21.9730  -15.7380 C.3     1  UNL1        0.0200
     27  S         16.8610  -23.2380   -8.7780 S.O2    1  UNL1        0.2630
     28  O         17.2440  -24.4070   -8.0180 O.2     1  UNL1       -0.2000
     29  O         15.7170  -23.2880   -9.6660 O.2     1  UNL1       -0.2000
     30  N         16.5610  -21.9560   -7.7260 N.pl3   1  UNL1       -0.2800
     31  H         16.9270  -21.0710   -8.0690 H       1  UNL1        0.1790
     32  C         16.4470  -22.1540   -6.3200 C.2     1  UNL1        0.0480
     33  C         15.1950  -22.4110   -5.7530 C.2     1  UNL1        0.0300
     34  C         15.0610  -22.5930   -4.3770 C.2     1  UNL1        0.0020
     35  C         16.1790  -22.5080   -3.5540 C.2     1  UNL1        0.0010
     36  C         17.4300  -22.2340   -4.1090 C.2     1  UNL1        0.0090
     37  C         17.5810  -22.0500   -5.4950 C.2     1  UNL1       -0.0350
     38  C         18.9430  -21.7250   -6.0410 C.3     1  UNL1        0.0500
@<TRIPOS>BOND
     1    26    25    1
     2    26    22    1
     3    25    24    1
     4    24    23    1
     5    22    20    1
     6    23    21    1
     7    21    20    1
     8    20    18   am
     9    18    19    2
    10    18    17    1
    11     5     4    2
    12     5     6    1
    13     4     3    1
    14     7     6    1
    15    17    16    1
    16    17    12    2
    17    11    10    1
    18    16    15    2
    19     6     1    2
    20    10    12    1
    21    10     8   am
    22     3     8    1
    23     3     2    2
    24    12    13    1
    25     1     2    1
    26     1    27    1
    27     8     9    2
    28    15    14    1
    29    29    27    2
    30    13    14    2
    31    27    28    2
    32    27    30    1
    33    31    30    1
    34    30    32    1
    35    32    33    2
    36    32    37    1
    37    38    37    1
    38    33    34    1
    39    37    36    2
    40    34    35    2
    41    36    35    1
