@<TRIPOS>MOLECULE
50315_out_ligand_01.pdbqt
 35 39 0 0 0
SMALL
GASTEIGER

@<TRIPOS>ATOM
      1  C         22.2720  -22.2680  -11.4340 C.2     1  UNL1        0.0350
      2  C         23.5030  -22.9260  -11.5250 C.2     1  UNL1        0.0310
      3  C         24.2870  -22.8150  -12.6790 C.2     1  UNL1        0.0270
      4  C         23.8340  -22.0480  -13.7520 C.2     1  UNL1        0.0800
      5  C         22.6210  -21.3650  -13.6690 C.2     1  UNL1        0.0270
      6  C         21.8440  -21.4790  -12.5130 C.2     1  UNL1        0.0310
      7  N         21.4210  -22.3300  -10.3110 N.am    1  UNL1       -0.3210
      8  C         21.3660  -23.3200   -9.3370 C.2     1  UNL1        0.2800
      9  O         22.0540  -24.3370   -9.3520 O.2     1  UNL1       -0.2650
     10  H         20.7500  -21.5810  -10.2340 H       1  UNL1        0.1690
     11  C         20.3920  -23.0630   -8.2830 C.2     1  UNL1        0.1440
     12  C         19.2040  -23.6700   -7.9050 C.2     1  UNL1        0.0580
     13  C         18.6950  -22.9520   -6.7830 C.2     1  UNL1        0.0120
     14  C         19.6140  -21.9400   -6.5490 C.2     1  UNL1        0.0870
     15  C         17.5560  -23.0380   -5.9350 C.2     1  UNL1       -0.0130
     16  C         19.5050  -20.9940   -5.5350 C.2     1  UNL1        0.0390
     17  O         20.6300  -22.0030   -7.4480 O.2     1  UNL1       -0.3040
     18  C         18.3820  -21.0890   -4.7050 C.2     1  UNL1        0.0150
     19  C         17.4120  -22.0890   -4.8870 C.2     1  UNL1       -0.0250
     20  C         16.2890  -22.1760   -4.0510 C.2     1  UNL1        0.0120
     21  C         15.3290  -23.1740   -4.2410 C.2     1  UNL1        0.0010
     22  C         15.4750  -24.1030   -5.2700 C.2     1  UNL1        0.0010
     23  C         16.5810  -24.0410   -6.1160 C.2     1  UNL1        0.0130
     24  S         24.8280  -21.9220  -15.2220 S.O2    1  UNL1        0.2630
     25  O         24.0560  -21.1970  -16.2090 O.2     1  UNL1       -0.2000
     26  O         25.3740  -23.2320  -15.5080 O.2     1  UNL1       -0.2000
     27  N         26.0750  -20.8860  -14.7430 N.pl3   1  UNL1       -0.2810
     28  H         26.8760  -21.4010  -14.3800 H       1  UNL1        0.1790
     29  C         26.3240  -19.7050  -15.4950 C.2     1  UNL1        0.0420
     30  C         26.4530  -19.7990  -16.8820 C.2     1  UNL1        0.0320
     31  C         26.6530  -18.6440  -17.6420 C.2     1  UNL1        0.0260
     32  C         26.7260  -17.4030  -17.0120 C.2     1  UNL1        0.0340
     33 CL         26.9650  -15.9820  -17.9490 Cl      1  UNL1       -0.0840
     34  C         26.6040  -17.3070  -15.6270 C.2     1  UNL1        0.0260
     35  C         26.4010  -18.4610  -14.8670 C.2     1  UNL1        0.0320
@<TRIPOS>BOND
     1    33    32    1
     2    31    32    2
     3    31    30    1
     4    32    34    1
     5    30    29    2
     6    25    24    2
     7    34    35    2
     8    26    24    2
     9    29    35    1
    10    29    27    1
    11    24    27    1
    12    24     4    1
    13    27    28    1
    14     4     5    2
    15     4     3    1
    16     5     6    1
    17     3     2    2
    18     6     1    2
    19     2     1    1
    20     1     7    1
    21     7    10    1
    22     7     8   am
    23     9     8    2
    24     8    11    1
    25    11    12    2
    26    11    17    1
    27    12    13    1
    28    17    14    1
    29    13    14    2
    30    13    15    1
    31    14    16    1
    32    23    15    2
    33    23    22    1
    34    15    19    1
    35    16    18    2
    36    22    21    2
    37    19    18    1
    38    19    20    2
    39    21    20    1
