@<TRIPOS>MOLECULE
50325_out_ligand_01.pdbqt
 36 40 0 0 0
SMALL
GASTEIGER

@<TRIPOS>ATOM
      1  C         22.5890  -22.3430  -11.6720 C.2     1  UNL1        0.0350
      2  C         23.8090  -23.0140  -11.7910 C.2     1  UNL1        0.0310
      3  C         24.5510  -22.9370  -12.9750 C.2     1  UNL1        0.0270
      4  C         24.0610  -22.1940  -14.0500 C.2     1  UNL1        0.0800
      5  C         22.8520  -21.5070  -13.9430 C.2     1  UNL1        0.0270
      6  C         22.1190  -21.5870  -12.7560 C.2     1  UNL1        0.0310
      7  N         21.7860  -22.3700  -10.5170 N.am    1  UNL1       -0.3210
      8  C         21.8630  -23.2280   -9.4340 C.2     1  UNL1        0.2800
      9  O         22.6730  -24.1400   -9.3030 O.2     1  UNL1       -0.2650
     10  H         21.0470  -21.6770  -10.4510 H       1  UNL1        0.1690
     11  C         20.8580  -22.9420   -8.4260 C.2     1  UNL1        0.1440
     12  C         19.6570  -23.5610   -8.1420 C.2     1  UNL1        0.0580
     13  C         19.0710  -22.8640   -7.0480 C.2     1  UNL1        0.0120
     14  C         19.9700  -21.8510   -6.7350 C.2     1  UNL1        0.0870
     15  C         17.8790  -22.9690   -6.2800 C.2     1  UNL1       -0.0130
     16  C         19.7860  -20.9240   -5.7130 C.2     1  UNL1        0.0390
     17  O         21.0500  -21.8930   -7.5640 O.2     1  UNL1       -0.3040
     18  C         18.6090  -21.0390   -4.9650 C.2     1  UNL1        0.0150
     19  C         17.6590  -22.0400   -5.2290 C.2     1  UNL1       -0.0250
     20  C         16.4820  -22.1470   -4.4740 C.2     1  UNL1        0.0120
     21  C         15.5440  -23.1470   -4.7470 C.2     1  UNL1        0.0010
     22  C         15.7650  -24.0570   -5.7780 C.2     1  UNL1        0.0010
     23  C         16.9270  -23.9730   -6.5460 C.2     1  UNL1        0.0130
     24  S         24.9950  -22.0880  -15.5540 S.O2    1  UNL1        0.2630
     25  O         25.0970  -23.4280  -16.0940 O.2     1  UNL1       -0.2000
     26  O         24.4870  -20.9940  -16.3520 O.2     1  UNL1       -0.2000
     27  N         26.5470  -21.6950  -14.9960 N.pl3   1  UNL1       -0.2810
     28  H         27.2520  -22.1050  -15.6100 H       1  UNL1        0.1790
     29  C         26.7670  -20.3670  -14.5320 C.2     1  UNL1        0.0450
     30  C         26.8390  -20.1160  -13.1640 C.2     1  UNL1        0.0540
     31  C         27.0070  -18.8060  -12.7150 C.2     1  UNL1        0.0370
     32 CL         27.1050  -18.4950  -11.0250 Cl      1  UNL1       -0.0840
     33  C         27.0980  -17.7510  -13.6180 C.2     1  UNL1        0.0480
     34  C         27.0140  -18.0150  -14.9830 C.2     1  UNL1        0.0370
     35 CL         27.1200  -16.7170  -16.1090 Cl      1  UNL1       -0.0840
     36  C         26.8460  -19.3180  -15.4480 C.2     1  UNL1        0.0540
@<TRIPOS>BOND
     1    26    24    2
     2    35    34    1
     3    25    24    2
     4    28    27    1
     5    24    27    1
     6    24     4    1
     7    36    34    1
     8    36    29    2
     9    27    29    1
    10    34    33    2
    11    29    30    1
    12     4     5    2
    13     4     3    1
    14     5     6    1
    15    33    31    1
    16    30    31    2
    17     3     2    2
    18     6     1    2
    19    31    32    1
    20     2     1    1
    21     1     7    1
    22     7    10    1
    23     7     8   am
    24     8     9    2
    25     8    11    1
    26    11    12    2
    27    11    17    1
    28    12    13    1
    29    17    14    1
    30    13    14    2
    31    13    15    1
    32    14    16    1
    33    23    15    2
    34    23    22    1
    35    15    19    1
    36    22    21    2
    37    16    18    2
    38    19    18    1
    39    19    20    2
    40    21    20    1
