@<TRIPOS>MOLECULE
50329_out_ligand_01.pdbqt
 35 38 0 0 0
SMALL
GASTEIGER

@<TRIPOS>ATOM
      1  C         18.2850  -22.8120   -6.5030 C.2     1  UNL1        0.0810
      2  C         19.4860  -22.7180   -7.2240 C.2     1  UNL1        0.0420
      3  C         20.4430  -21.7630   -6.8700 C.2     1  UNL1        0.0330
      4  C         20.1860  -20.8770   -5.8200 C.2     1  UNL1        0.0170
      5  C         18.9850  -20.9660   -5.1090 C.2     1  UNL1        0.0090
      6  C         18.0220  -21.9390   -5.4280 C.2     1  UNL1       -0.0390
      7  C         16.7450  -21.9630   -4.6320 C.3     1  UNL1        0.0500
      8  C         21.7090  -21.6940   -7.6530 C.2     1  UNL1        0.2560
      9  O         22.5800  -20.9210   -7.2760 O.2     1  UNL1       -0.2670
     10  N         21.7440  -22.5070   -8.7720 N.am    1  UNL1       -0.3230
     11  H         20.8870  -22.9860   -9.0140 H       1  UNL1        0.1690
     12  C         22.8170  -22.6760   -9.6750 C.2     1  UNL1        0.0370
     13  C         24.0080  -23.3640   -9.3500 C.2     1  UNL1        0.0320
     14  C         25.0460  -23.5120  -10.2800 C.2     1  UNL1        0.0340
     15  C         24.8620  -22.9600  -11.5270 C.ar    1  UNL1        0.0650
     16  C         23.6900  -22.2840  -11.8600 C.ar    1  UNL1        0.0670
     17  N         25.7040  -22.9430  -12.6440 N.ar    1  UNL1       -0.3020
     18  C         22.6550  -22.1290  -10.9590 C.2     1  UNL1        0.0610
     19  N         23.8080  -21.8480  -13.1860 N.ar    1  UNL1       -0.3020
     20  C         22.8170  -21.1070  -13.9110 C.3     1  UNL1        0.1610
     21  C         25.0640  -22.2500  -13.6940 C.ar    1  UNL1        0.3290
     22  O         25.5020  -22.0400  -14.8130 O.2     1  UNL1       -0.2460
     23  C         27.0080  -23.5370  -12.7090 C.3     1  UNL1        0.1610
     24  S         17.1160  -24.0610   -7.0190 S.O2    1  UNL1        0.2460
     25  O         17.4510  -25.2940   -6.3360 O.2     1  UNL1       -0.2060
     26  O         15.7770  -23.5220   -6.9350 O.2     1  UNL1       -0.2060
     27  N         17.5120  -24.2940   -8.6490 N.pl3   1  UNL1       -0.1810
     28  H         17.0970  -25.1620   -8.9880 H       1  UNL1        0.1460
     29  C         17.4350  -23.1660   -9.5120 C.2     1  UNL1        0.0230
     30  C         16.2350  -22.4640   -9.6110 C.2     1  UNL1        0.0240
     31  C         16.1410  -21.3730  -10.4740 C.2     1  UNL1        0.0020
     32  C         17.2430  -20.9940  -11.2440 C.2     1  UNL1        0.0070
     33  C         18.4440  -21.7110  -11.1660 C.2     1  UNL1       -0.0600
     34  C         19.6330  -21.2930  -11.9810 C.3     1  UNL1        0.0480
     35  C         18.5370  -22.7950  -10.2830 C.2     1  UNL1        0.0310
@<TRIPOS>BOND
     1    22    21    2
     2    20    19    1
     3    21    19   ar
     4    21    17   ar
     5    19    16   ar
     6    23    17    1
     7    17    15   ar
     8    34    33    1
     9    16    15   ar
    10    16    18    1
    11    15    14    1
    12    32    33    2
    13    32    31    1
    14    33    35    1
    15    18    12    2
    16    31    30    2
    17    35    29    2
    18    14    13    2
    19    12    13    1
    20    12    10    1
    21    30    29    1
    22    29    27    1
    23    11    10    1
    24    28    27    1
    25    10     8   am
    26    27    24    1
    27     8     9    2
    28     8     3    1
    29     2     3    1
    30     2     1    2
    31    24    26    2
    32    24     1    1
    33    24    25    2
    34     3     4    2
    35     1     6    1
    36     4     5    1
    37     6     5    2
    38     6     7    1
