@<TRIPOS>MOLECULE
50323_out_ligand_01.pdbqt
 37 40 0 0 0
SMALL
GASTEIGER

@<TRIPOS>ATOM
      1  C         18.3230  -22.6520   -9.7570 C.2     1  UNL1        0.0860
      2  C         19.5410  -23.2850   -9.4520 C.2     1  UNL1        0.0420
      3  C         20.7190  -22.9210  -10.1090 C.2     1  UNL1        0.0330
      4  C         20.6820  -21.9230  -11.0850 C.2     1  UNL1        0.0170
      5  C         19.4670  -21.3110  -11.4070 C.2     1  UNL1        0.0090
      6  C         18.2690  -21.6630  -10.7550 C.2     1  UNL1       -0.0390
      7  C         17.0090  -20.9610  -11.1740 C.3     1  UNL1        0.0500
      8  C         21.9870  -23.5820   -9.6970 C.2     1  UNL1        0.2560
      9  O         21.9050  -24.5890   -9.0020 O.2     1  UNL1       -0.2670
     10  N         23.1390  -22.9800  -10.1590 N.am    1  UNL1       -0.3220
     11  H         23.0300  -22.2090  -10.8200 H       1  UNL1        0.1690
     12  C         24.4790  -23.4140   -9.9960 C.2     1  UNL1        0.0500
     13  C         24.9150  -24.1120   -8.8640 C.2     1  UNL1        0.0300
     14  C         26.2260  -24.5930   -8.7770 C.2     1  UNL1        0.0020
     15  C         27.1210  -24.3940   -9.8230 C.2     1  UNL1        0.0010
     16  C         26.7150  -23.6860  -10.9500 C.2     1  UNL1        0.0190
     17  C         25.4140  -23.1620  -11.0270 C.2     1  UNL1        0.0590
     18  C         25.0160  -22.3810  -12.2320 C.2     1  UNL1        0.2560
     19  O         23.9760  -22.7030  -12.8080 O.2     1  UNL1       -0.2670
     20  N         25.8050  -21.3100  -12.6570 N.am    1  UNL1       -0.3480
     21  C         26.7260  -20.5730  -11.7830 C.3     1  UNL1        0.1260
     22  C         25.4650  -20.6910  -13.9370 C.3     1  UNL1        0.1260
     23  C         26.6970  -19.0730  -12.0660 C.3     1  UNL1        0.0200
     24  C         27.0440  -18.7570  -13.5220 C.3     1  UNL1        0.0030
     25  C         26.6210  -19.8660  -14.4870 C.3     1  UNL1        0.0200
     26  S         16.9080  -23.2130   -8.8160 S.O2    1  UNL1        0.2630
     27  O         15.7690  -23.3960   -9.6850 O.2     1  UNL1       -0.2000
     28  O         17.3700  -24.3010   -7.9770 O.2     1  UNL1       -0.2000
     29  N         16.6090  -21.9210   -7.7720 N.pl3   1  UNL1       -0.2800
     30  H         16.0460  -21.1940   -8.2040 H       1  UNL1        0.1790
     31  C         16.5090  -22.1280   -6.3640 C.2     1  UNL1        0.0480
     32  C         15.2670  -22.4510   -5.8060 C.2     1  UNL1        0.0300
     33  C         15.1310  -22.6400   -4.4310 C.2     1  UNL1        0.0020
     34  C         16.2380  -22.5110   -3.6020 C.2     1  UNL1        0.0010
     35  C         17.4850  -22.2080   -4.1520 C.2     1  UNL1        0.0090
     36  C         17.6430  -22.0330   -5.5390 C.2     1  UNL1       -0.0350
     37  C         19.0140  -21.6920   -6.0560 C.3     1  UNL1        0.0500
@<TRIPOS>BOND
     1    25    22    1
     2    25    24    1
     3    22    20    1
     4    24    23    1
     5    19    18    2
     6    20    18   am
     7    20    21    1
     8    18    17    1
     9    23    21    1
    10     5     4    2
    11     5     6    1
    12     7     6    1
    13     4     3    1
    14    17    16    1
    15    17    12    2
    16    16    15    2
    17    11    10    1
    18     6     1    2
    19    10    12    1
    20    10     8   am
    21     3     8    1
    22     3     2    2
    23    12    13    1
    24    15    14    1
    25     1     2    1
    26     1    26    1
    27     8     9    2
    28    27    26    2
    29    13    14    2
    30    26    28    2
    31    26    29    1
    32    30    29    1
    33    29    31    1
    34    31    32    2
    35    31    36    1
    36    37    36    1
    37    32    33    1
    38    36    35    2
    39    33    34    2
    40    35    34    1
