@<TRIPOS>MOLECULE
5038_out_ligand_01.pdbqt
 34 37 0 0 0
SMALL
GASTEIGER

@<TRIPOS>ATOM
      1  N         20.3550  -23.5010   -9.2740 N.pl3   1  UNL1       -0.3460
      2  C         19.7470  -23.9270   -8.1240 C.2     1  UNL1        0.1160
      3  C         18.4530  -23.4470   -8.1290 C.2     1  UNL1        0.0920
      4  C         18.2720  -22.6810   -9.3160 C.2     1  UNL1        0.0140
      5  C         17.1970  -21.9550   -9.8730 C.2     1  UNL1        0.0150
      6  C         17.3560  -21.3080  -11.1030 C.2     1  UNL1        0.0010
      7  C         18.5670  -21.3710  -11.7810 C.2     1  UNL1        0.0020
      8  C         19.6510  -22.0780  -11.2530 C.2     1  UNL1        0.0300
      9  C         19.4840  -22.7260  -10.0180 C.2     1  UNL1        0.0460
     10  C         21.7100  -23.8720   -9.6610 C.3     1  UNL1        0.2310
     11  C         22.5240  -22.7050  -10.2000 C.2     1  UNL1        0.2400
     12  N         23.0200  -22.8810  -11.4820 N.am    1  UNL1       -0.3260
     13  H         22.8430  -23.7740  -11.9290 H       1  UNL1        0.1690
     14  O         22.6470  -21.6870   -9.5200 O.2     1  UNL1       -0.2710
     15  C         23.8030  -21.9830  -12.2360 C.2     1  UNL1        0.0340
     16  C         25.0730  -21.5410  -11.8610 C.2     1  UNL1        0.0300
     17  C         25.7870  -20.6480  -12.6720 C.2     1  UNL1        0.0190
     18  C         25.2390  -20.1950  -13.8760 C.2     1  UNL1        0.0320
     19  C         23.9610  -20.6250  -14.2480 C.2     1  UNL1        0.0190
     20  C         23.2510  -21.5140  -13.4350 C.2     1  UNL1        0.0300
     21  C         25.9540  -19.2500  -14.7750 C.2     1  UNL1        0.2490
     22  N         25.6050  -19.2400  -16.0970 N.am    1  UNL1       -0.3660
     23  H         26.0210  -18.5080  -16.6580 H       1  UNL1        0.1590
     24  H         24.7460  -19.6500  -16.4340 H       1  UNL1        0.1590
     25  O         26.8050  -18.4800  -14.3490 O.2     1  UNL1       -0.2680
     26  S         17.2480  -23.7690   -6.9320 S.O2    1  UNL1        0.2090
     27  O         16.0160  -23.2270   -7.4700 O.2     1  UNL1       -0.2170
     28  O         17.4080  -25.1740   -6.6150 O.2     1  UNL1       -0.2170
     29  C         17.7170  -22.7920   -5.5330 C.2     1  UNL1        0.0640
     30  C         17.3240  -23.1760   -4.2480 C.2     1  UNL1        0.0240
     31  C         17.7100  -22.4020   -3.1540 C.2     1  UNL1        0.0020
     32  C         18.4770  -21.2510   -3.3470 C.2     1  UNL1        0.0000
     33  C         18.8560  -20.8640   -4.6330 C.2     1  UNL1        0.0020
     34  C         18.4750  -21.6320   -5.7330 C.2     1  UNL1        0.0240
@<TRIPOS>BOND
     1    23    22    1
     2    24    22    1
     3    22    21   am
     4    21    25    2
     5    21    18    1
     6    19    18    2
     7    19    20    1
     8    18    17    1
     9    20    15    2
    10    17    16    2
    11    15    16    1
    12    15    12    1
    13    13    12    1
    14     7     8    2
    15     7     6    1
    16    12    11   am
    17     8     9    1
    18     6     5    2
    19    11    10    1
    20    11    14    2
    21     9     4    2
    22     9     1    1
    23     5     4    1
    24    10     1    1
    25     4     3    1
    26     1     2    1
    27     3     2    2
    28     3    26    1
    29    27    26    2
    30    26    28    2
    31    26    29    1
    32    34    29    2
    33    34    33    1
    34    29    30    1
    35    33    32    2
    36    30    31    2
    37    32    31    1
