@<TRIPOS>MOLECULE
50414_out_ligand_01.pdbqt
 39 43 0 0 0
SMALL
GASTEIGER

@<TRIPOS>ATOM
      1  N         23.7830  -23.5900  -11.4270 N.pl3   1  UNL1       -0.1480
      2  H         22.9120  -24.0010  -11.0880 H       1  UNL1        0.1580
      3  N         24.6550  -23.2380  -10.4290 N.2     1  UNL1       -0.2050
      4  C         24.1700  -23.0710   -9.2300 C.2     1  UNL1        0.1440
      5  C         22.7650  -23.0690   -8.7720 C.2     1  UNL1       -0.0170
      6  C         22.0060  -24.2220   -8.9820 C.2     1  UNL1        0.0150
      7  C         20.6930  -24.2780   -8.5120 C.2     1  UNL1        0.0370
      8  C         20.1320  -23.1980   -7.8250 C.2     1  UNL1        0.0690
      9  C         20.8980  -22.0510   -7.6100 C.2     1  UNL1        0.0370
     10  C         22.2160  -21.9900   -8.0770 C.2     1  UNL1        0.0150
     11  O         18.8420  -23.3950   -7.4160 O.2     1  UNL1       -0.3470
     12  C         18.0820  -22.2350   -7.0700 C.3     1  UNL1        0.2190
     13  C         17.0480  -22.6360   -6.0520 C.2     1  UNL1        0.0260
     14  C         17.1600  -22.3210   -4.6900 C.2     1  UNL1        0.0450
     15  C         16.1810  -22.7340   -3.7760 C.2     1  UNL1        0.0240
     16 CL         18.4890  -21.4030   -4.0740 Cl      1  UNL1       -0.0840
     17  C         15.0790  -23.4710   -4.2080 C.2     1  UNL1        0.0050
     18  C         14.9560  -23.7910   -5.5570 C.2     1  UNL1        0.0430
     19  C         15.9330  -23.3770   -6.4590 C.2     1  UNL1        0.1260
     20  F         15.7800  -23.6950   -7.7540 F       1  UNL1       -0.2050
     21  C         23.3240  -22.5520  -12.2830 C.cat   1  UNL1        0.2580
     22  N         22.1050  -22.0880  -12.0260 N.2     1  UNL1       -0.0280
     23  C         21.6820  -21.1140  -12.8210 C.cat   1  UNL1        0.7450
     24  N         22.4010  -20.6090  -13.8130 N.2     1  UNL1        0.1300
     25  C         23.6070  -21.1250  -14.0100 C.cat   1  UNL1        0.7430
     26  N         24.0970  -22.1050  -13.2660 N.pl3   1  UNL1       -0.0290
     27  N         20.4060  -20.6310  -12.5280 N.pl3   1  UNL1       -0.1880
     28  H         20.3210  -19.6860  -12.8680 H       1  UNL1        0.1840
     29  C         19.3040  -21.1540  -11.8420 C.2     1  UNL1        0.0490
     30  C         18.1690  -20.3390  -11.6770 C.2     1  UNL1        0.0300
     31  C         17.0260  -20.8030  -11.0150 C.2     1  UNL1        0.0020
     32  C         16.9950  -22.0970  -10.5080 C.2     1  UNL1        0.0000
     33  C         18.1060  -22.9230  -10.6650 C.2     1  UNL1        0.0020
     34  C         19.2450  -22.4540  -11.3270 C.2     1  UNL1        0.0300
     35  N         24.3710  -20.6320  -15.0400 N.pl3   1  UNL1       -0.2130
     36  C         25.3980  -19.6410  -14.7680 C.3     1  UNL1        0.1410
     37  C         26.1440  -19.5540  -16.0980 C.3     1  UNL1        0.0220
     38  C         26.1010  -20.9920  -16.5950 C.3     1  UNL1        0.0220
     39  C         24.7070  -21.4730  -16.1790 C.3     1  UNL1        0.1410
@<TRIPOS>BOND
     1    38    39    1
     2    38    37    1
     3    39    35    1
     4    37    36    1
     5    35    36    1
     6    35    25    1
     7    25    24    2
     8    25    26    1
     9    24    23    1
    10    26    21    1
    11    28    27    1
    12    23    27    1
    13    23    22    2
    14    27    29    1
    15    21    22    2
    16    21     1    1
    17    29    30    2
    18    29    34    1
    19    30    31    1
    20     1     2    1
    21     1     3    1
    22    34    33    2
    23    31    32    2
    24    33    32    1
    25     3     4    2
    26     4     5    1
    27     6     5    2
    28     6     7    1
    29     5    10    1
    30     7     8    2
    31    10     9    2
    32     8     9    1
    33     8    11    1
    34    20    19    1
    35    11    12    1
    36    12    13    1
    37    19    13    2
    38    19    18    1
    39    13    14    1
    40    18    17    2
    41    14    16    1
    42    14    15    2
    43    17    15    1
