@<TRIPOS>MOLECULE
50412_out_ligand_01.pdbqt
 40 44 0 0 0
SMALL
GASTEIGER

@<TRIPOS>ATOM
      1  C         23.2670  -22.5240  -12.1410 C.cat   1  UNL1        0.2580
      2  N         22.0450  -22.0470  -11.9320 N.2     1  UNL1       -0.0280
      3  C         21.6320  -21.1330  -12.7940 C.cat   1  UNL1        0.7450
      4  N         22.3810  -20.6720  -13.7880 N.2     1  UNL1        0.1300
      5  C         23.5990  -21.1850  -13.9280 C.cat   1  UNL1        0.7430
      6  N         24.0610  -22.1420  -13.1330 N.pl3   1  UNL1       -0.0290
      7  N         23.7730  -23.5490  -11.3020 N.pl3   1  UNL1       -0.1480
      8  H         24.2490  -24.1450  -11.9810 H       1  UNL1        0.1580
      9  N         24.5950  -23.1340  -10.2870 N.2     1  UNL1       -0.2050
     10  C         24.0450  -22.9770   -9.1190 C.2     1  UNL1        0.1440
     11  C         22.6260  -23.0980   -8.7440 C.2     1  UNL1       -0.0170
     12  C         21.9770  -22.0890   -8.0340 C.2     1  UNL1        0.0150
     13  C         20.6590  -22.2770   -7.6190 C.2     1  UNL1        0.0370
     14  C         19.9840  -23.4690   -7.8990 C.2     1  UNL1        0.0690
     15  C         20.6420  -24.4780   -8.6040 C.2     1  UNL1        0.0370
     16  C         21.9670  -24.2980   -9.0170 C.2     1  UNL1        0.0150
     17  O         18.7100  -23.5310   -7.4030 O.2     1  UNL1       -0.3470
     18  C         18.1180  -22.3090   -6.9670 C.3     1  UNL1        0.2190
     19  C         17.0730  -22.6360   -5.9350 C.2     1  UNL1        0.0260
     20  C         17.1730  -22.2300   -4.5950 C.2     1  UNL1        0.0450
     21  C         16.1810  -22.5710   -3.6660 C.2     1  UNL1        0.0240
     22 CL         18.4970  -21.2700   -4.0350 Cl      1  UNL1       -0.0840
     23  C         15.0710  -23.3170   -4.0660 C.2     1  UNL1        0.0050
     24  C         14.9610  -23.7330   -5.3900 C.2     1  UNL1        0.0430
     25  C         15.9580  -23.3980   -6.3040 C.2     1  UNL1        0.1260
     26  F         15.8210  -23.8180   -7.5720 F       1  UNL1       -0.2050
     27  N         20.3330  -20.6760  -12.5750 N.pl3   1  UNL1       -0.1880
     28  H         20.2520  -19.7410  -12.9480 H       1  UNL1        0.1840
     29  C         19.2390  -21.1660  -11.8550 C.2     1  UNL1        0.0490
     30  C         18.1440  -20.3100  -11.6370 C.2     1  UNL1        0.0300
     31  C         17.0120  -20.7370  -10.9360 C.2     1  UNL1        0.0020
     32  C         16.9500  -22.0350  -10.4420 C.2     1  UNL1        0.0000
     33  C         18.0180  -22.9010  -10.6540 C.2     1  UNL1        0.0020
     34  C         19.1470  -22.4690  -11.3590 C.2     1  UNL1        0.0300
     35  N         24.4030  -20.7160  -14.9600 N.pl3   1  UNL1       -0.2130
     36  C         25.3350  -19.6450  -14.6140 C.3     1  UNL1        0.1410
     37  C         26.2620  -19.3290  -15.7860 C.3     1  UNL1        0.0200
     38  C         27.0400  -20.5620  -16.2500 C.3     1  UNL1        0.0030
     39  C         26.2450  -21.8610  -16.0900 C.3     1  UNL1        0.0200
     40  C         24.7400  -21.6110  -16.0620 C.3     1  UNL1        0.1410
@<TRIPOS>BOND
     1    38    39    1
     2    38    37    1
     3    39    40    1
     4    40    35    1
     5    37    36    1
     6    35    36    1
     7    35     5    1
     8     5     4    2
     9     5     6    1
    10     4     3    1
    11     6     1    1
    12    28    27    1
    13     3    27    1
    14     3     2    2
    15    27    29    1
    16     1     2    2
    17     1     7    1
    18     8     7    1
    19    29    30    2
    20    29    34    1
    21    30    31    1
    22    34    33    2
    23     7     9    1
    24    31    32    2
    25    33    32    1
    26     9    10    2
    27    10    11    1
    28    16    11    2
    29    16    15    1
    30    11    12    1
    31    15    14    2
    32    12    13    2
    33    14    13    1
    34    14    17    1
    35    26    25    1
    36    17    18    1
    37    18    19    1
    38    25    19    2
    39    25    24    1
    40    19    20    1
    41    24    23    2
    42    20    22    1
    43    20    21    2
    44    23    21    1
