@<TRIPOS>MOLECULE
5041_out_ligand_01.pdbqt
 30 33 0 0 0
SMALL
GASTEIGER

@<TRIPOS>ATOM
      1  C         19.9830  -23.3810   -7.8960 C.2     1  UNL1        0.0320
      2  C         20.7390  -22.2420   -7.5830 C.2     1  UNL1        0.0180
      3  C         21.9300  -21.9740   -8.2640 C.2     1  UNL1        0.0260
      4  C         22.3610  -22.8560   -9.2580 C.2     1  UNL1        0.0750
      5  C         21.6310  -24.0110   -9.5610 C.2     1  UNL1        0.0260
      6  C         20.4410  -24.2750   -8.8770 C.2     1  UNL1        0.0180
      7  S         23.8850  -22.5470  -10.1380 S.O2    1  UNL1        0.2480
      8  O         24.2920  -21.1880   -9.8430 O.2     1  UNL1       -0.2050
      9  O         24.7400  -23.6700   -9.8200 O.2     1  UNL1       -0.2050
     10  N         23.3640  -22.6020  -11.8040 N.pl3   1  UNL1       -0.1720
     11  C         22.3150  -21.5640  -12.0820 C.3     1  UNL1        0.1140
     12  C         22.0410  -21.4250  -13.5660 C.3     1  UNL1        0.0200
     13  C         23.3110  -20.9640  -14.2530 C.3     1  UNL1        0.0420
     14  C         24.4290  -21.9260  -13.9640 C.2     1  UNL1       -0.0360
     15  C         25.4720  -22.0340  -14.9020 C.2     1  UNL1        0.0090
     16  C         24.4510  -22.6970  -12.7850 C.2     1  UNL1        0.0310
     17  C         26.5000  -22.9530  -14.7160 C.2     1  UNL1        0.0010
     18  C         26.4820  -23.7810  -13.6030 C.2     1  UNL1        0.0020
     19  C         25.4560  -23.6650  -12.6580 C.2     1  UNL1        0.0250
     20  C         18.7200  -23.6210   -7.1370 C.2     1  UNL1        0.2560
     21  O         18.2570  -24.7550   -7.1230 O.2     1  UNL1       -0.2670
     22  N         18.2100  -22.5180   -6.4810 N.am    1  UNL1       -0.3200
     23  H         18.7600  -21.6660   -6.4740 H       1  UNL1        0.1690
     24  C         17.0220  -22.4440   -5.7200 C.2     1  UNL1        0.0730
     25  C         16.9750  -22.4460   -4.3250 C.2     1  UNL1        0.0330
     26  C         15.7440  -22.3740   -3.6610 C.2     1  UNL1        0.0020
     27  C         14.5520  -22.3020   -4.3830 C.2     1  UNL1        0.0030
     28  C         14.5860  -22.3030   -5.7760 C.2     1  UNL1        0.0440
     29  C         15.8140  -22.3760   -6.4270 C.2     1  UNL1        0.1430
     30  F         15.8370  -22.3780   -7.7700 F       1  UNL1       -0.2040
@<TRIPOS>BOND
     1    15    17    1
     2    15    14    2
     3    17    18    2
     4    13    14    1
     5    13    12    1
     6    14    16    1
     7    18    19    1
     8    12    11    1
     9    16    19    2
    10    16    10    1
    11    11    10    1
    12    10     7    1
    13     7     8    2
    14     7     9    2
    15     7     4    1
    16     5     4    2
    17     5     6    1
    18     4     3    1
    19     6     1    2
    20     3     2    2
    21     1     2    1
    22     1    20    1
    23    30    29    1
    24    20    21    2
    25    20    22   am
    26    22    23    1
    27    22    24    1
    28    29    28    1
    29    29    24    2
    30    28    27    2
    31    24    25    1
    32    27    26    1
    33    25    26    2
