@<TRIPOS>MOLECULE
50454_out_ligand_01.pdbqt
 37 40 0 0 0
SMALL
GASTEIGER

@<TRIPOS>ATOM
      1  C         16.7400  -21.0300  -11.0660 C.3     1  UNL1        0.0500
      2  C         18.1130  -21.6000  -10.8490 C.2     1  UNL1       -0.0390
      3  C         19.1690  -21.1060  -11.6360 C.2     1  UNL1        0.0090
      4  C         20.4730  -21.5850  -11.4800 C.2     1  UNL1        0.0170
      5  C         20.7500  -22.5590  -10.5160 C.2     1  UNL1        0.0330
      6  C         19.7140  -23.0620   -9.7220 C.2     1  UNL1        0.0420
      7  C         18.4040  -22.5860   -9.8850 C.2     1  UNL1        0.0860
      8  C         22.1210  -23.1130  -10.3360 C.2     1  UNL1        0.2560
      9  O         22.2990  -23.9440   -9.4540 O.2     1  UNL1       -0.2670
     10  N         23.0670  -22.6060  -11.2010 N.am    1  UNL1       -0.3200
     11  H         22.7920  -21.8500  -11.8190 H       1  UNL1        0.1690
     12  C         24.4260  -22.9710  -11.3120 C.2     1  UNL1        0.0690
     13  C         25.2320  -23.3280  -10.2290 C.2     1  UNL1        0.0320
     14  C         26.5710  -23.6830  -10.4330 C.2     1  UNL1        0.0020
     15  C         27.1180  -23.6850  -11.7160 C.2     1  UNL1        0.0030
     16  C         26.3260  -23.3340  -12.8060 C.2     1  UNL1        0.0390
     17  C         24.9860  -22.9980  -12.6010 C.2     1  UNL1        0.1020
     18  O         24.2180  -22.6170  -13.6790 O.2     1  UNL1       -0.3090
     19  C         24.7840  -21.7600  -14.5990 C.2     1  UNL1        0.0760
     20  C         25.0210  -22.0630  -15.9430 C.2     1  UNL1        0.0370
     21  C         25.5720  -21.0990  -16.7900 C.2     1  UNL1        0.0030
     22  C         25.8820  -19.8310  -16.3000 C.2     1  UNL1        0.0000
     23  C         25.6370  -19.5220  -14.9630 C.2     1  UNL1        0.0030
     24  C         25.0850  -20.4840  -14.1160 C.2     1  UNL1        0.0370
     25  S         17.1460  -23.2720   -8.8160 S.O2    1  UNL1        0.2630
     26  O         16.0190  -23.6810   -9.6230 O.2     1  UNL1       -0.2000
     27  O         17.7910  -24.2210   -7.9320 O.2     1  UNL1       -0.2000
     28  N         16.7030  -21.9540   -7.8530 N.pl3   1  UNL1       -0.2800
     29  H         17.1950  -21.1110   -8.1440 H       1  UNL1        0.1790
     30  C         16.5430  -22.1680   -6.4510 C.2     1  UNL1        0.0490
     31  C         15.3050  -22.6270   -5.9960 C.2     1  UNL1        0.0310
     32  C         15.1100  -22.8860   -4.6440 C.2     1  UNL1        0.0030
     33  C         16.1490  -22.6810   -3.7430 C.2     1  UNL1        0.0070
     34  C         17.4010  -22.2120   -4.1790 C.2     1  UNL1       -0.0540
     35  C         18.4840  -22.0110   -3.1530 C.3     1  UNL1        0.0490
     36  C         17.6140  -21.9650   -5.5560 C.2     1  UNL1       -0.0290
     37  C         18.9380  -21.4550   -6.0640 C.3     1  UNL1        0.0510
@<TRIPOS>BOND
     1    21    22    2
     2    21    20    1
     3    22    23    1
     4    20    19    2
     5    23    24    2
     6    19    24    1
     7    19    18    1
     8    18    17    1
     9    16    17    1
    10    16    15    2
    11    17    12    2
    12    11    10    1
    13    15    14    1
    14     3     4    1
    15     3     2    2
    16     4     5    2
    17    12    10    1
    18    12    13    1
    19    10     8   am
    20     1     2    1
    21     2     7    1
    22     5     8    1
    23     5     6    1
    24    14    13    2
    25     8     9    2
    26     7     6    2
    27     7    25    1
    28    26    25    2
    29    25    27    2
    30    25    28    1
    31    29    28    1
    32    28    30    1
    33    30    31    2
    34    30    36    1
    35    37    36    1
    36    31    32    1
    37    36    34    2
    38    32    33    2
    39    34    33    1
    40    34    35    1
