@<TRIPOS>MOLECULE
50466_out_ligand_01.pdbqt
 31 34 0 0 0
SMALL
GASTEIGER

@<TRIPOS>ATOM
      1  C         18.6600  -22.5640   -9.4930 C.2     1  UNL1        0.0340
      2  C         17.8000  -21.8060  -10.2940 C.2     1  UNL1        0.0170
      3  C         18.2760  -21.2500  -11.4800 C.2     1  UNL1        0.0030
      4  C         19.6070  -21.4410  -11.8650 C.2     1  UNL1        0.0290
      5  C         20.4800  -22.1810  -11.0630 C.2     1  UNL1        0.0350
      6  C         19.9980  -22.7360   -9.8730 C.2     1  UNL1        0.0460
      7  N         21.8370  -22.4000  -11.3740 N.am    1  UNL1       -0.3230
      8  C         22.9420  -21.8570  -10.7460 C.2     1  UNL1        0.2570
      9  O         22.9570  -21.0540   -9.8240 O.2     1  UNL1       -0.2670
     10  H         22.0190  -23.0040  -12.1690 H       1  UNL1        0.1690
     11  C         24.2310  -22.3370  -11.3050 C.2     1  UNL1        0.0430
     12  C         25.0960  -23.0170  -10.4330 C.2     1  UNL1        0.0180
     13  C         26.3100  -23.5020  -10.9020 C.2     1  UNL1        0.0020
     14  C         26.6610  -23.3110  -12.2380 C.2     1  UNL1        0.0120
     15  C         25.8100  -22.6280  -13.1250 C.2     1  UNL1       -0.0250
     16  C         26.1840  -22.4470  -14.4670 C.2     1  UNL1        0.0120
     17  C         24.5690  -22.1210  -12.6650 C.2     1  UNL1       -0.0100
     18  C         25.3520  -21.7750  -15.3610 C.2     1  UNL1        0.0010
     19  C         24.1320  -21.2750  -14.9250 C.2     1  UNL1        0.0010
     20  C         23.7450  -21.4440  -13.5950 C.2     1  UNL1        0.0130
     21  C         18.2040  -23.1800   -8.2150 C.2     1  UNL1        0.2560
     22  N         17.2780  -22.4320   -7.5100 N.am    1  UNL1       -0.3220
     23  H         16.9170  -21.6130   -7.9760 H       1  UNL1        0.1690
     24  O         18.6450  -24.2850   -7.9220 O.2     1  UNL1       -0.2670
     25  C         16.6990  -22.7290   -6.2520 C.2     1  UNL1        0.0410
     26  C         15.5290  -23.4860   -6.1260 C.2     1  UNL1        0.0300
     27  C         14.9860  -23.7700   -4.8690 C.2     1  UNL1        0.0020
     28  C         15.6080  -23.3010   -3.7190 C.2     1  UNL1        0.0010
     29  C         16.7760  -22.5500   -3.8250 C.2     1  UNL1        0.0090
     30  C         17.3360  -22.2570   -5.0810 C.2     1  UNL1       -0.0350
     31  C         18.6000  -21.4400   -5.1220 C.3     1  UNL1        0.0500
@<TRIPOS>BOND
     1    18    19    1
     2    18    16    2
     3    19    20    2
     4    16    15    1
     5    20    17    1
     6    15    17    1
     7    15    14    2
     8    17    11    2
     9    14    13    1
    10    10     7    1
    11     4     3    2
    12     4     5    1
    13     3     2    1
    14     7     5    1
    15     7     8   am
    16    11     8    1
    17    11    12    1
    18     5     6    2
    19    13    12    2
    20     8     9    2
    21     2     1    2
    22     6     1    1
    23     1    21    1
    24    21    24    2
    25    21    22   am
    26    23    22    1
    27    22    25    1
    28    25    26    2
    29    25    30    1
    30    26    27    1
    31    31    30    1
    32    30    29    2
    33    27    28    2
    34    29    28    1
