@<TRIPOS>MOLECULE
50462_out_ligand_01.pdbqt
 35 37 0 0 0
SMALL
GASTEIGER

@<TRIPOS>ATOM
      1  C         17.6150  -23.2150   -8.9500 C.2     1  UNL1        0.0860
      2  C         19.0050  -23.3780   -9.0800 C.2     1  UNL1        0.0420
      3  C         19.6960  -22.7280  -10.1050 C.2     1  UNL1        0.0330
      4  C         18.9950  -21.9550  -11.0330 C.2     1  UNL1        0.0170
      5  C         17.6100  -21.8110  -10.9170 C.2     1  UNL1        0.0090
      6  C         16.8970  -22.4250   -9.8710 C.2     1  UNL1       -0.0390
      7  C         15.4060  -22.2370   -9.8280 C.3     1  UNL1        0.0500
      8  C         21.1700  -22.9110  -10.1970 C.2     1  UNL1        0.2560
      9  O         21.7000  -23.7320   -9.4600 O.2     1  UNL1       -0.2670
     10  N         21.7980  -22.0890  -11.1140 N.am    1  UNL1       -0.3230
     11  H         21.2300  -21.3860  -11.5700 H       1  UNL1        0.1690
     12  C         23.1730  -22.0670  -11.4390 C.2     1  UNL1        0.0370
     13  C         24.0460  -21.5160  -10.4930 C.2     1  UNL1        0.0290
     14  C         25.4150  -21.4330  -10.7510 C.2     1  UNL1        0.0040
     15  C         25.9240  -21.9040  -11.9580 C.2     1  UNL1        0.0300
     16  C         25.0680  -22.4730  -12.9010 C.2     1  UNL1        0.0460
     17  C         23.6940  -22.5410  -12.6450 C.2     1  UNL1        0.0590
     18  N         25.6140  -22.9090  -14.1570 N.pl3   1  UNL1       -0.2810
     19  C         25.7100  -24.3610  -14.3920 C.3     1  UNL1        0.1690
     20  S         25.3170  -21.9220  -15.5100 S.O2    1  UNL1        0.2280
     21  C         26.5940  -22.4270  -16.6490 C.3     1  UNL1        0.1860
     22  O         24.0390  -22.2720  -16.0930 O.2     1  UNL1       -0.2060
     23  O         25.6010  -20.5530  -15.1310 O.2     1  UNL1       -0.2060
     24  S         16.8210  -24.0700   -7.5890 S.O2    1  UNL1        0.2630
     25  O         17.8350  -24.8110   -6.8700 O.2     1  UNL1       -0.2000
     26  O         15.6450  -24.7460   -8.0970 O.2     1  UNL1       -0.2000
     27  N         16.2630  -22.8050   -6.6230 N.pl3   1  UNL1       -0.2800
     28  H         15.6690  -22.1550   -7.1310 H       1  UNL1        0.1790
     29  C         17.0440  -22.3220   -5.5320 C.2     1  UNL1        0.0480
     30  C         18.1610  -21.5160   -5.7770 C.2     1  UNL1        0.0300
     31  C         18.9170  -21.0080   -4.7210 C.2     1  UNL1        0.0020
     32  C         18.5670  -21.3120   -3.4100 C.2     1  UNL1        0.0010
     33  C         17.4690  -22.1330   -3.1560 C.2     1  UNL1        0.0090
     34  C         16.7000  -22.6570   -4.2110 C.2     1  UNL1       -0.0350
     35  C         15.5250  -23.5320   -3.8810 C.3     1  UNL1        0.0500
@<TRIPOS>BOND
     1    21    20    1
     2    22    20    2
     3    20    23    2
     4    20    18    1
     5    19    18    1
     6    18    16    1
     7    16    17    1
     8    16    15    2
     9    17    12    2
    10    15    14    1
    11    11    10    1
    12    12    10    1
    13    12    13    1
    14    10     8   am
    15     4     5    2
    16     4     3    1
    17     5     6    1
    18    14    13    2
    19     8     3    1
    20     8     9    2
    21     3     2    2
    22     6     7    1
    23     6     1    2
    24     2     1    1
    25     1    24    1
    26    26    24    2
    27    24    25    2
    28    24    27    1
    29    28    27    1
    30    27    29    1
    31    30    29    2
    32    30    31    1
    33    29    34    1
    34    31    32    2
    35    34    35    1
    36    34    33    2
    37    32    33    1
