@<TRIPOS>MOLECULE
5047_out_ligand_01.pdbqt
 32 35 0 0 0
SMALL
GASTEIGER

@<TRIPOS>ATOM
      1  N         17.9320  -23.6320   -8.0860 N.am    1  UNL1       -0.3030
      2  C         19.2130  -23.7760   -8.6130 C.2     1  UNL1        0.2150
      3  N         19.6600  -23.2240   -9.7030 N.2     1  UNL1       -0.2230
      4  C         18.7300  -22.4590  -10.3200 C.2     1  UNL1        0.1640
      5  C         17.4360  -22.2390   -9.9220 C.2     1  UNL1        0.0990
      6  C         16.8790  -21.3950  -10.8890 C.2     1  UNL1        0.1600
      7  N         17.7550  -21.0940  -11.8580 N.2     1  UNL1       -0.1820
      8  N         18.8900  -21.7460  -11.4770 N.pl3   1  UNL1       -0.2500
      9  C         16.9550  -22.8550   -8.7170 C.2     1  UNL1        0.2640
     10  O         15.8110  -22.6940   -8.3080 O.2     1  UNL1       -0.2670
     11  C         20.0900  -21.6610  -12.2940 C.3     1  UNL1        0.1720
     12  C         21.2630  -21.0770  -11.5100 C.3     1  UNL1        0.1440
     13  N         22.3060  -22.0610  -11.2660 N.am    1  UNL1       -0.3560
     14  C         23.1980  -21.8900  -10.2310 C.2     1  UNL1        0.2410
     15  O         23.0600  -21.0520   -9.3520 O.2     1  UNL1       -0.2690
     16  H         22.6300  -22.5630  -12.0880 H       1  UNL1        0.1620
     17  C         24.3420  -22.8340  -10.3170 C.2     1  UNL1        0.0750
     18  C         25.5100  -22.6200  -10.9430 C.2     1  UNL1        0.0170
     19  C         25.9150  -21.4340  -11.7010 C.2     1  UNL1       -0.0360
     20  C         25.8680  -21.4650  -13.1000 C.2     1  UNL1        0.0110
     21  C         26.2850  -20.3600  -13.8440 C.2     1  UNL1        0.0010
     22  C         26.7560  -19.2200  -13.1960 C.2     1  UNL1        0.0000
     23  C         26.8100  -19.1840  -11.8030 C.2     1  UNL1        0.0010
     24  C         26.3960  -20.2900  -11.0580 C.2     1  UNL1        0.0110
     25  C         17.5850  -24.3250   -6.8560 C.3     1  UNL1        0.1710
     26  C         17.8180  -23.4640   -5.6360 C.2     1  UNL1       -0.0390
     27  C         17.4480  -23.9110   -4.3610 C.2     1  UNL1        0.0090
     28  C         17.6410  -23.0980   -3.2440 C.2     1  UNL1        0.0010
     29  C         18.2070  -21.8320   -3.3880 C.2     1  UNL1        0.0070
     30  C         18.5950  -21.3710   -4.6500 C.2     1  UNL1       -0.0610
     31  C         19.1710  -19.9940   -4.8090 C.3     1  UNL1        0.0480
     32  C         18.3840  -22.1850   -5.7700 C.2     1  UNL1        0.0150
@<TRIPOS>BOND
     1    21    22    2
     2    21    20    1
     3    22    23    1
     4    20    19    2
     5    11    12    1
     6    11     8    1
     7    16    13    1
     8     7     8    1
     9     7     6    2
    10    23    24    2
    11    19    24    1
    12    19    18    1
    13    12    13    1
    14     8     4    1
    15    13    14   am
    16    18    17    2
    17     6     5    1
    18     4     5    2
    19     4     3    1
    20    17    14    1
    21    14    15    2
    22     5     9    1
    23     3     2    2
    24     9    10    2
    25     9     1   am
    26     2     1    1
    27     1    25    1
    28    25    26    1
    29    32    26    2
    30    32    30    1
    31    26    27    1
    32    31    30    1
    33    30    29    2
    34    27    28    2
    35    29    28    1
