@<TRIPOS>MOLECULE
50470_out_ligand_01.pdbqt
 31 34 0 0 0
SMALL
GASTEIGER

@<TRIPOS>ATOM
      1  C         19.8490  -21.8450  -11.2800 C.2     1  UNL1        0.0330
      2  C         18.6690  -21.2380  -11.7830 C.2     1  UNL1        0.0180
      3  C         17.4130  -21.5240  -11.2340 C.2     1  UNL1        0.0190
      4  C         17.3780  -22.4130  -10.1790 C.2     1  UNL1        0.0480
      5  C         18.5270  -22.9970   -9.6770 C.2     1  UNL1        0.0490
      6  C         19.7810  -22.7350  -10.1970 C.2     1  UNL1        0.0350
      7  C         18.1300  -23.8660   -8.5710 C.2     1  UNL1        0.2620
      8  O         18.9060  -24.5390   -7.9200 O.2     1  UNL1       -0.2670
      9  N         16.7730  -23.7610   -8.4610 N.am    1  UNL1       -0.2760
     10  C         16.2480  -22.9070   -9.3920 C.2     1  UNL1        0.2620
     11  O         15.0900  -22.5890   -9.5770 O.2     1  UNL1       -0.2670
     12  C         21.1500  -21.4770  -11.9150 C.2     1  UNL1        0.2560
     13  N         22.2400  -22.2030  -11.4840 N.am    1  UNL1       -0.3210
     14  H         22.0990  -22.9830  -10.8520 H       1  UNL1        0.1690
     15  O         21.1430  -20.5980  -12.7680 O.2     1  UNL1       -0.2670
     16  C         23.5920  -22.0640  -11.8770 C.2     1  UNL1        0.0680
     17  C         24.0740  -22.4240  -13.1360 C.2     1  UNL1        0.0320
     18  C         25.4250  -22.2540  -13.4450 C.2     1  UNL1        0.0020
     19  C         26.2980  -21.7250  -12.4970 C.2     1  UNL1        0.0030
     20  C         25.8270  -21.3570  -11.2360 C.2     1  UNL1        0.0390
     21  C         24.4740  -21.5150  -10.9190 C.2     1  UNL1        0.0950
     22  O         23.8990  -21.1910   -9.7120 O.2     1  UNL1       -0.3490
     23  C         23.3920  -22.2400   -8.8870 C.3     1  UNL1        0.1710
     24  C         22.3510  -21.7030   -7.9190 C.3     1  UNL1        0.0340
     25  C         15.9910  -24.4400   -7.4530 C.3     1  UNL1        0.1750
     26  C         15.9600  -23.6680   -6.1630 C.2     1  UNL1       -0.0220
     27  C         14.8760  -22.8540   -5.8240 C.2     1  UNL1        0.0120
     28  C         14.8960  -22.1390   -4.6310 C.2     1  UNL1        0.0200
     29  C         16.0090  -22.2570   -3.8150 C.2     1  UNL1        0.1160
     30  N         17.0790  -23.0220   -4.1120 N.2     1  UNL1       -0.2730
     31  C         17.0350  -23.7040   -5.2790 C.2     1  UNL1        0.1240
@<TRIPOS>BOND
     1    18    17    1
     2    18    19    2
     3    17    16    2
     4    15    12    2
     5    19    20    1
     6    12    13   am
     7    12     1    1
     8    16    13    1
     9    16    21    1
    10     2     1    2
    11     2     3    1
    12    13    14    1
    13     1     6    1
    14    20    21    2
    15     3     4    2
    16    21    22    1
    17     6     5    2
    18     4     5    1
    19     4    10    1
    20    22    23    1
    21     5     7    1
    22    11    10    2
    23    10     9   am
    24    23    24    1
    25     7     9   am
    26     7     8    2
    27     9    25    1
    28    25    26    1
    29    26    27    2
    30    26    31    1
    31    27    28    1
    32    31    30    2
    33    28    29    2
    34    30    29    1
