@<TRIPOS>MOLECULE
50489_out_ligand_01.pdbqt
 28 32 0 0 0
SMALL
GASTEIGER

@<TRIPOS>ATOM
      1  C         24.4440  -21.6690  -12.2190 C.2     1  UNL1        0.1240
      2  N         24.2100  -21.3110  -13.4990 N.2     1  UNL1       -0.2290
      3  C         22.9440  -21.1460  -13.9070 C.2     1  UNL1        0.2350
      4  N         21.8330  -21.3030  -13.1860 N.2     1  UNL1       -0.2400
      5  C         22.0520  -21.6640  -11.8950 C.ar    1  UNL1        0.0920
      6  C         23.3330  -21.8530  -11.3850 C.ar    1  UNL1        0.0770
      7  S         23.2790  -22.3060   -9.7270 S.2     1  UNL1       -0.0640
      8  C         21.5810  -22.2560   -9.6940 C.ar    1  UNL1        0.1120
      9  N         20.9170  -22.5580   -8.5560 N.ar    1  UNL1       -0.2390
     10  C         19.5650  -22.5070   -8.6300 C.ar    1  UNL1        0.0750
     11  C         18.9030  -22.1330   -9.7890 C.ar    1  UNL1       -0.0210
     12  C         19.6290  -21.8230  -10.9480 C.ar    1  UNL1       -0.0340
     13  C         21.0300  -21.8930  -10.9150 C.ar    1  UNL1        0.0370
     14  C         18.7020  -21.4740  -12.0800 C.3     1  UNL1        0.0400
     15  C         17.4180  -21.1390  -11.3160 C.3     1  UNL1        0.0090
     16  C         17.4330  -22.0010  -10.0460 C.3     1  UNL1        0.0420
     17  N         25.7520  -21.8250  -11.7570 N.pl3   1  UNL1       -0.2740
     18  H         26.3790  -22.1070  -12.5070 H       1  UNL1        0.1290
     19  C         26.2780  -20.7510  -10.9080 C.3     1  UNL1        0.1200
     20  C         26.6030  -19.5080  -11.7450 C.3     1  UNL1        0.1780
     21  O         26.6390  -18.3550  -10.9020 O.3     1  UNL1       -0.4000
     22  H         26.4910  -17.6070  -11.5150 H       1  UNL1        0.2090
     23  C         18.8700  -22.8610   -7.3810 C.2     1  UNL1       -0.0070
     24  C         18.2800  -24.1230   -7.1940 C.2     1  UNL1        0.0140
     25  C         17.6200  -24.4420   -6.0040 C.2     1  UNL1        0.0010
     26  C         17.5470  -23.5060   -4.9740 C.2     1  UNL1        0.0000
     27  C         18.1390  -22.2560   -5.1320 C.2     1  UNL1        0.0010
     28  C         18.7980  -21.9400   -6.3220 C.2     1  UNL1        0.0140
@<TRIPOS>BOND
     1     3     2    1
     2     3     4    2
     3     2     1    2
     4     4     5    1
     5    18    17    1
     6     1    17    1
     7     1     6    1
     8    14    15    1
     9    14    12    1
    10     5     6   ar
    11     5    13   ar
    12    17    19    1
    13    20    19    1
    14    20    21    1
    15    22    21    1
    16     6     7   ar
    17    15    16    1
    18    12    13   ar
    19    12    11   ar
    20    13     8   ar
    21    16    11    1
    22    11    10   ar
    23     7     8   ar
    24     8     9   ar
    25    10     9   ar
    26    10    23    1
    27    23    24    2
    28    23    28    1
    29    24    25    1
    30    28    27    2
    31    25    26    2
    32    27    26    1
