@<TRIPOS>MOLECULE
50491_out_ligand_01.pdbqt
 28 31 0 0 0
SMALL
GASTEIGER

@<TRIPOS>ATOM
      1  C         20.4310  -22.2530   -7.3170 C.2     1  UNL1        0.0320
      2  C         21.5990  -21.4860   -7.4030 C.2     1  UNL1        0.0170
      3  C         22.6620  -21.9200   -8.2000 C.2     1  UNL1        0.0100
      4  C         22.5720  -23.1230   -8.9160 C.2     1  UNL1       -0.0400
      5  C         21.4090  -23.9000   -8.8000 C.2     1  UNL1        0.0100
      6  C         20.3470  -23.4680   -8.0040 C.2     1  UNL1        0.0170
      7  C         23.7350  -23.6080   -9.7500 C.3     1  UNL1        0.1740
      8  N         23.9390  -22.7690  -10.9090 N.am    1  UNL1       -0.2760
      9  C         22.9490  -22.4270  -11.7880 C.2     1  UNL1        0.2620
     10  O         21.7640  -22.7030  -11.7580 O.2     1  UNL1       -0.2670
     11  C         23.5820  -21.6210  -12.8290 C.2     1  UNL1        0.0480
     12  C         23.0420  -21.0250  -13.9530 C.2     1  UNL1        0.0180
     13  C         24.9270  -21.5180  -12.5200 C.2     1  UNL1        0.0480
     14  C         23.9150  -20.3050  -14.7740 C.2     1  UNL1        0.0010
     15  C         25.2860  -20.2000  -14.4590 C.2     1  UNL1        0.0010
     16  C         25.8090  -20.8140  -13.3150 C.2     1  UNL1        0.0180
     17  C         25.1530  -22.2600  -11.2810 C.2     1  UNL1        0.2620
     18  O         26.2320  -22.3670  -10.7310 O.2     1  UNL1       -0.2670
     19  C         19.2750  -21.8280   -6.4750 C.2     1  UNL1        0.2560
     20  O         19.3700  -20.7810   -5.8480 O.2     1  UNL1       -0.2670
     21  N         18.2090  -22.7100   -6.4690 N.am    1  UNL1       -0.3230
     22  H         18.3440  -23.5960   -6.9380 H       1  UNL1        0.1690
     23  C         16.9750  -22.5580   -5.8040 C.2     1  UNL1        0.0350
     24  C         15.8400  -22.3560   -6.6000 C.2     1  UNL1        0.0290
     25  C         14.5790  -22.1910   -6.0180 C.2     1  UNL1        0.0020
     26  C         14.4420  -22.2220   -4.6340 C.2     1  UNL1        0.0000
     27  C         15.5660  -22.4180   -3.8330 C.2     1  UNL1        0.0020
     28  C         16.8270  -22.5840   -4.4160 C.2     1  UNL1        0.0290
@<TRIPOS>BOND
     1    14    15    2
     2    14    12    1
     3    15    16    1
     4    12    11    2
     5    16    13    2
     6    11    13    1
     7    11     9    1
     8    13    17    1
     9     9    10    2
    10     9     8   am
    11    17     8   am
    12    17    18    2
    13     8     7    1
    14     7     4    1
    15     4     5    2
    16     4     3    1
    17     5     6    1
    18     3     2    2
    19     6     1    2
    20     2     1    1
    21     1    19    1
    22    22    21    1
    23    24    25    1
    24    24    23    2
    25    19    21   am
    26    19    20    2
    27    21    23    1
    28    25    26    2
    29    23    28    1
    30    26    27    1
    31    28    27    2
