@<TRIPOS>MOLECULE
50499_out_ligand_01.pdbqt
 28 31 0 0 0
SMALL
GASTEIGER

@<TRIPOS>ATOM
      1  C         20.1760  -21.9820  -11.2570 C.2     1  UNL1        0.0330
      2  C         19.0210  -21.3350  -11.7630 C.2     1  UNL1        0.0180
      3  C         17.7630  -21.5690  -11.1960 C.2     1  UNL1        0.0190
      4  C         17.7050  -22.4420  -10.1260 C.2     1  UNL1        0.0480
      5  C         18.8330  -23.0620   -9.6210 C.2     1  UNL1        0.0490
      6  C         20.0870  -22.8520  -10.1580 C.2     1  UNL1        0.0350
      7  C         18.4090  -23.9050   -8.5020 C.2     1  UNL1        0.2620
      8  O         19.1590  -24.5980   -7.8430 O.2     1  UNL1       -0.2670
      9  N         17.0570  -23.7420   -8.3880 N.am    1  UNL1       -0.2760
     10  C         16.5620  -22.8840   -9.3280 C.2     1  UNL1        0.2620
     11  O         15.4160  -22.5240   -9.5150 O.2     1  UNL1       -0.2670
     12  C         21.5230  -21.7300  -11.8440 C.2     1  UNL1        0.2560
     13  O         21.5850  -21.0170  -12.8370 O.2     1  UNL1       -0.2670
     14  N         22.5720  -22.3170  -11.1630 N.am    1  UNL1       -0.3230
     15  H         22.3620  -22.7700  -10.2830 H       1  UNL1        0.1690
     16  C         23.9400  -22.2820  -11.5100 C.2     1  UNL1        0.0350
     17  C         24.5030  -23.0310  -12.5440 C.2     1  UNL1        0.0290
     18  C         25.8710  -22.9430  -12.8200 C.2     1  UNL1        0.0020
     19  C         26.6890  -22.1090  -12.0630 C.2     1  UNL1        0.0000
     20  C         26.1400  -21.3600  -11.0270 C.2     1  UNL1        0.0020
     21  C         24.7720  -21.4460  -10.7510 C.2     1  UNL1        0.0290
     22  C         16.2360  -24.4420   -7.4260 C.3     1  UNL1        0.1750
     23  C         16.1140  -23.6740   -6.1390 C.2     1  UNL1       -0.0220
     24  C         14.9680  -22.9320   -5.8380 C.2     1  UNL1        0.0120
     25  C         14.9040  -22.2150   -4.6470 C.2     1  UNL1        0.0200
     26  C         15.9960  -22.2570   -3.7970 C.2     1  UNL1        0.1160
     27  N         17.1250  -22.9500   -4.0600 N.2     1  UNL1       -0.2730
     28  C         17.1610  -23.6370   -5.2240 C.2     1  UNL1        0.1240
@<TRIPOS>BOND
     1    13    12    2
     2    18    17    1
     3    18    19    2
     4    17    16    2
     5    19    20    1
     6    12     1    1
     7    12    14   am
     8     2     1    2
     9     2     3    1
    10    16    14    1
    11    16    21    1
    12     1     6    1
    13     3     4    2
    14    14    15    1
    15    20    21    2
    16     6     5    2
    17     4     5    1
    18     4    10    1
    19     5     7    1
    20    11    10    2
    21    10     9   am
    22     7     9   am
    23     7     8    2
    24     9    22    1
    25    22    23    1
    26    23    24    2
    27    23    28    1
    28    24    25    1
    29    28    27    2
    30    25    26    2
    31    27    26    1
