@<TRIPOS>MOLECULE
50501_out_ligand_01.pdbqt
 28 31 0 0 0
SMALL
GASTEIGER

@<TRIPOS>ATOM
      1  C         19.3930  -22.2650  -10.4030 C.2     1  UNL1        0.0330
      2  C         19.0520  -21.3680  -11.4460 C.2     1  UNL1        0.0180
      3  C         19.9970  -20.9970  -12.4110 C.2     1  UNL1        0.0190
      4  C         21.2640  -21.5330  -12.2940 C.2     1  UNL1        0.0480
      5  C         21.6030  -22.3990  -11.2700 C.2     1  UNL1        0.0490
      6  C         20.6940  -22.7820  -10.3040 C.2     1  UNL1        0.0350
      7  C         23.0080  -22.7630  -11.4490 C.2     1  UNL1        0.2620
      8  O         23.6130  -23.5300  -10.7250 O.2     1  UNL1       -0.2670
      9  N         23.4440  -22.0920  -12.5560 N.am    1  UNL1       -0.2740
     10  C         22.4530  -21.3450  -13.1270 C.2     1  UNL1        0.2620
     11  O         22.4680  -20.6620  -14.1330 O.2     1  UNL1       -0.2670
     12  C         18.4040  -22.6630   -9.3640 C.2     1  UNL1        0.2510
     13  O         17.2470  -22.2660   -9.4430 O.2     1  UNL1       -0.2680
     14  N         18.8780  -23.4480   -8.3360 N.am    1  UNL1       -0.3530
     15  H         19.8760  -23.5410   -8.2100 H       1  UNL1        0.1630
     16  C         18.0440  -23.7870   -7.2020 C.3     1  UNL1        0.1620
     17  C         18.2190  -22.8000   -6.0860 C.2     1  UNL1       -0.0230
     18  C         19.0370  -21.6740   -6.2300 C.2     1  UNL1        0.0120
     19  C         19.1910  -20.7910   -5.1660 C.2     1  UNL1        0.0200
     20  C         18.5230  -21.0650   -3.9850 C.2     1  UNL1        0.1160
     21  N         17.7290  -22.1430   -3.8040 N.2     1  UNL1       -0.2730
     22  C         17.5960  -22.9820   -4.8560 C.2     1  UNL1        0.1240
     23  C         24.7980  -22.1590  -13.0580 C.3     1  UNL1        0.2000
     24  C         25.5760  -21.0110  -12.5250 C.2     1  UNL1        0.0700
     25  C         26.0260  -20.6760  -11.2640 C.2     1  UNL1        0.0360
     26  C         26.7130  -19.4450  -11.3970 C.2     1  UNL1        0.0270
     27  C         26.6410  -19.1100  -12.7280 C.2     1  UNL1        0.1420
     28  O         25.9540  -20.0540  -13.4210 O.2     1  UNL1       -0.3250
@<TRIPOS>BOND
     1    11    10    2
     2    28    27    1
     3    28    24    1
     4    10     9   am
     5    10     4    1
     6    23     9    1
     7    23    24    1
     8    27    26    2
     9     9     7   am
    10    24    25    2
    11     3     4    2
    12     3     2    1
    13     4     5    1
    14     7     5    1
    15     7     8    2
    16     2     1    2
    17    26    25    1
    18     5     6    2
    19     1     6    1
    20     1    12    1
    21    13    12    2
    22    12    14   am
    23    14    15    1
    24    14    16    1
    25    16    17    1
    26    18    17    2
    27    18    19    1
    28    17    22    1
    29    19    20    2
    30    22    21    2
    31    20    21    1
