@<TRIPOS>MOLECULE
50517_out_ligand_01.pdbqt
 26 27 0 0 0
SMALL
GASTEIGER

@<TRIPOS>ATOM
      1  S         18.0270  -23.4760   -7.2710 S.O2    1  UNL1        0.2450
      2  O         17.6850  -22.1650   -6.7640 O.2     1  UNL1       -0.2060
      3  O         17.8770  -24.6770   -6.4780 O.2     1  UNL1       -0.2060
      4  C         19.7110  -23.4290   -7.8380 C.2     1  UNL1        0.0740
      5  C         20.2450  -24.5080   -8.5460 C.2     1  UNL1        0.0260
      6  C         21.5670  -24.4480   -8.9910 C.2     1  UNL1        0.0180
      7  C         22.3480  -23.3090   -8.7440 C.2     1  UNL1        0.0310
      8  C         21.8030  -22.2320   -8.0320 C.2     1  UNL1        0.0180
      9  C         20.4800  -22.2880   -7.5830 C.2     1  UNL1        0.0260
     10  C         23.7520  -23.3000   -9.2370 C.2     1  UNL1        0.2490
     11  N         24.5870  -24.2820   -8.7800 N.am    1  UNL1       -0.3660
     12  H         24.3800  -24.8210   -7.9530 H       1  UNL1        0.1590
     13  H         25.5640  -24.1740   -9.0270 H       1  UNL1        0.1590
     14  O         24.1600  -22.4300   -9.9940 O.2     1  UNL1       -0.2680
     15  N         17.2060  -23.6490   -8.7600 N.pl3   1  UNL1       -0.1810
     16  H         17.4580  -24.5700   -9.1260 H       1  UNL1        0.1460
     17  C         17.5270  -22.6270   -9.7120 C.2     1  UNL1        0.0230
     18  C         16.5370  -21.7660  -10.1840 C.2     1  UNL1        0.0240
     19  C         16.8530  -20.8070  -11.1470 C.2     1  UNL1        0.0030
     20  C         18.1540  -20.7240  -11.6470 C.2     1  UNL1        0.0160
     21  C         19.1500  -21.6070  -11.2000 C.2     1  UNL1        0.0490
     22  C         18.8220  -22.5610  -10.2250 C.2     1  UNL1        0.0400
     23  C         20.5540  -21.5090  -11.7400 C.3     1  UNL1        0.4170
     24  F         21.3510  -20.7280  -10.9580 F       1  UNL1       -0.1660
     25  F         20.6070  -20.9640  -12.9860 F       1  UNL1       -0.1660
     26  F         21.1870  -22.7120  -11.8310 F       1  UNL1       -0.1660
@<TRIPOS>BOND
     1    25    23    1
     2    26    23    1
     3    23    21    1
     4    23    24    1
     5    20    21    2
     6    20    19    1
     7    21    22    1
     8    19    18    2
     9    22    17    2
    10    18    17    1
    11    14    10    2
    12    17    15    1
    13    10    11   am
    14    10     7    1
    15    16    15    1
    16    13    11    1
    17     6     7    2
    18     6     5    1
    19    11    12    1
    20    15     1    1
    21     7     8    1
    22     5     4    2
    23     8     9    2
    24     4     9    1
    25     4     1    1
    26     1     2    2
    27     1     3    2
