@<TRIPOS>MOLECULE
50527_out_ligand_01.pdbqt
 27 30 0 0 0
SMALL
GASTEIGER

@<TRIPOS>ATOM
      1  C         17.7680  -22.2970  -10.3140 C.2     1  UNL1       -0.0400
      2  C         18.0440  -21.4060  -11.3580 C.2     1  UNL1        0.0100
      3  C         19.3430  -21.2890  -11.8630 C.2     1  UNL1        0.0160
      4  C         20.3920  -22.0620  -11.3450 C.2     1  UNL1        0.0170
      5  C         20.1070  -22.9610  -10.3070 C.2     1  UNL1        0.0160
      6  C         18.8080  -23.0810   -9.8000 C.2     1  UNL1        0.0100
      7  C         16.3660  -22.4500   -9.7870 C.3     1  UNL1        0.1610
      8  N         16.3420  -22.3280   -8.3500 N.am    1  UNL1       -0.3530
      9  C         16.0500  -23.4070   -7.5500 C.2     1  UNL1        0.2550
     10  O         15.7330  -24.4990   -8.0100 O.2     1  UNL1       -0.2680
     11  H         16.6780  -21.4650   -7.9350 H       1  UNL1        0.1630
     12  C         16.1320  -23.2150   -6.0750 C.2     1  UNL1        0.0700
     13  C         17.2370  -23.7500   -5.3940 C.2     1  UNL1        0.0200
     14  C         17.3630  -23.5980   -4.0110 C.2     1  UNL1        0.0010
     15  C         16.3870  -22.9090   -3.2920 C.2     1  UNL1        0.0030
     16  C         15.2860  -22.3730   -3.9570 C.2     1  UNL1        0.0430
     17  C         15.1640  -22.5280   -5.3390 C.2     1  UNL1        0.1320
     18  F         14.0880  -21.9900   -5.9360 F       1  UNL1       -0.2050
     19  C         21.7370  -21.9150  -11.8980 C.2     1  UNL1        0.1820
     20  N         22.8930  -22.2730  -11.3660 N.2     1  UNL1       -0.2010
     21  C         23.8060  -21.9030  -12.3090 C.2     1  UNL1        0.1860
     22  N         25.1480  -22.0570  -12.2360 N.2     1  UNL1       -0.2390
     23  C         23.1670  -21.3270  -13.3940 C.2     1  UNL1        0.1250
     24  C         25.8090  -21.5970  -13.3260 C.2     1  UNL1        0.1190
     25  C         25.2230  -21.0080  -14.4490 C.3     1  UNL1        0.0220
     26  C         23.8370  -20.8550  -14.5100 C.2     1  UNL1        0.0430
     27  O         21.8290  -21.3290  -13.1410 O.2     1  UNL1       -0.2870
@<TRIPOS>BOND
     1    26    25    1
     2    26    23    2
     3    25    24    1
     4    23    27    1
     5    23    21    1
     6    24    22    2
     7    27    19    1
     8    21    22    1
     9    21    20    2
    10    19    20    2
    11    19     4    1
    12     3     2    1
    13     3     4    2
    14     2     1    2
    15     4     5    1
    16     1     6    1
    17     1     7    1
    18     5     6    2
    19     7     8    1
    20     8    11    1
    21     8     9   am
    22    10     9    2
    23     9    12    1
    24    12    13    2
    25    12    17    1
    26    18    17    1
    27    13    14    1
    28    17    16    2
    29    14    15    2
    30    16    15    1
