@<TRIPOS>MOLECULE
50535_out_ligand_01.pdbqt
 27 30 0 0 0
SMALL
GASTEIGER

@<TRIPOS>ATOM
      1  C         20.0560  -22.0140  -11.0400 C.2     1  UNL1        0.0330
      2  C         18.9410  -21.4140  -11.6810 C.2     1  UNL1        0.0180
      3  C         17.6350  -21.6350  -11.2260 C.2     1  UNL1        0.0190
      4  C         17.4830  -22.4650  -10.1350 C.2     1  UNL1        0.0480
      5  C         18.5670  -23.0620   -9.5140 C.2     1  UNL1        0.0490
      6  C         19.8670  -22.8650   -9.9410 C.2     1  UNL1        0.0350
      7  C         18.0540  -23.8680   -8.4100 C.2     1  UNL1        0.2620
      8  O         18.7680  -24.4830   -7.6410 O.2     1  UNL1       -0.2670
      9  N         16.6950  -23.7350   -8.4330 N.am    1  UNL1       -0.2740
     10  C         16.2780  -22.8980   -9.4290 C.2     1  UNL1        0.2620
     11  O         15.1520  -22.5410   -9.7150 O.2     1  UNL1       -0.2670
     12  C         21.4130  -21.7380  -11.5960 C.2     1  UNL1        0.2560
     13  O         21.4900  -21.0000  -12.5700 O.2     1  UNL1       -0.2670
     14  N         22.4610  -22.3330  -10.9170 N.am    1  UNL1       -0.3230
     15  H         22.2480  -22.8190  -10.0570 H       1  UNL1        0.1690
     16  C         23.8340  -22.2740  -11.2430 C.2     1  UNL1        0.0350
     17  C         24.7460  -21.4050  -10.6400 C.2     1  UNL1        0.0290
     18  C         26.0890  -21.4060  -11.0270 C.2     1  UNL1        0.0020
     19  C         26.5340  -22.2750  -12.0210 C.2     1  UNL1        0.0000
     20  C         25.6340  -23.1420  -12.6320 C.2     1  UNL1        0.0020
     21  C         24.2910  -23.1420  -12.2460 C.2     1  UNL1        0.0290
     22  C         15.7990  -24.4070   -7.5180 C.3     1  UNL1        0.2000
     23  C         15.7400  -23.6430   -6.2440 C.2     1  UNL1        0.0700
     24  C         15.1010  -22.4790   -5.8650 C.2     1  UNL1        0.0360
     25  C         15.4290  -22.2680   -4.5050 C.2     1  UNL1        0.0270
     26  C         16.2440  -23.3120   -4.1410 C.2     1  UNL1        0.1420
     27  O         16.4400  -24.1520   -5.1890 O.2     1  UNL1       -0.3250
@<TRIPOS>BOND
     1    20    21    1
     2    20    19    2
     3    13    12    2
     4    21    16    2
     5    19    18    1
     6     2     3    1
     7     2     1    2
     8    12     1    1
     9    12    14   am
    10    16    14    1
    11    16    17    1
    12     3     4    2
    13     1     6    1
    14    18    17    2
    15    14    15    1
    16     4     5    1
    17     4    10    1
    18     6     5    2
    19    11    10    2
    20     5     7    1
    21    10     9   am
    22     9     7   am
    23     9    22    1
    24     7     8    2
    25    22    23    1
    26    23    24    2
    27    23    27    1
    28    24    25    1
    29    27    26    1
    30    25    26    2
