@<TRIPOS>MOLECULE
50589_out_ligand_01.pdbqt
 31 33 0 0 0
SMALL
GASTEIGER

@<TRIPOS>ATOM
      1  C         17.6290  -23.6010   -8.4660 C.2     1  UNL1        0.0810
      2  C         19.0030  -23.8680   -8.3580 C.2     1  UNL1        0.0420
      3  C         19.8950  -23.3470   -9.2990 C.2     1  UNL1        0.0330
      4  C         19.4200  -22.5470  -10.3410 C.2     1  UNL1        0.0170
      5  C         18.0530  -22.2770  -10.4450 C.2     1  UNL1        0.0090
      6  C         17.1370  -22.7940   -9.5120 C.2     1  UNL1       -0.0390
      7  C         15.6790  -22.4730   -9.6950 C.3     1  UNL1        0.0500
      8  S         16.5460  -24.3560   -7.2580 S.O2    1  UNL1        0.2460
      9  O         15.4860  -25.0330   -7.9710 O.2     1  UNL1       -0.2060
     10  O         17.3730  -25.0530   -6.2930 O.2     1  UNL1       -0.2060
     11  N         15.9460  -22.9690   -6.4590 N.pl3   1  UNL1       -0.1810
     12  H         15.7780  -22.2660   -7.1820 H       1  UNL1        0.1460
     13  C         16.8420  -22.4510   -5.4650 C.2     1  UNL1        0.0230
     14  C         16.5740  -22.6380   -4.1090 C.2     1  UNL1        0.0240
     15  C         17.4210  -22.0780   -3.1530 C.2     1  UNL1        0.0020
     16  C         18.5250  -21.3220   -3.5530 C.2     1  UNL1        0.0070
     17  C         18.7960  -21.1250   -4.9120 C.2     1  UNL1       -0.0600
     18  C         19.9510  -20.2710   -5.3450 C.3     1  UNL1        0.0480
     19  C         17.9330  -21.6800   -5.8660 C.2     1  UNL1        0.0310
     20  C         21.3430  -23.6450   -9.1460 C.2     1  UNL1        0.2510
     21  O         21.7090  -24.7810   -8.8760 O.2     1  UNL1       -0.2680
     22  N         22.2010  -22.5920   -9.3620 N.am    1  UNL1       -0.3530
     23  H         21.8500  -21.7620   -9.8220 H       1  UNL1        0.1630
     24  C         23.6270  -22.8190   -9.3950 C.3     1  UNL1        0.1610
     25  C         24.2080  -22.3470  -10.7010 C.2     1  UNL1       -0.0400
     26  C         25.2200  -21.3750  -10.7190 C.2     1  UNL1        0.0100
     27  C         25.7410  -20.9160  -11.9310 C.2     1  UNL1        0.0240
     28  C         25.2450  -21.4200  -13.1320 C.2     1  UNL1        0.0340
     29 CL         25.8860  -20.8580  -14.6270 Cl      1  UNL1       -0.0840
     30  C         24.2340  -22.3790  -13.1310 C.2     1  UNL1        0.0240
     31  C         23.7130  -22.8380  -11.9190 C.2     1  UNL1        0.0100
@<TRIPOS>BOND
     1    29    28    1
     2    28    30    2
     3    28    27    1
     4    30    31    1
     5    27    26    2
     6    31    25    2
     7    26    25    1
     8    25    24    1
     9     5     4    2
    10     5     6    1
    11     4     3    1
    12    23    22    1
    13     7     6    1
    14     6     1    2
    15    24    22    1
    16    22    20   am
    17     3    20    1
    18     3     2    2
    19    20    21    2
    20     1     2    1
    21     1     8    1
    22     9     8    2
    23     8    11    1
    24     8    10    2
    25    12    11    1
    26    11    13    1
    27    19    13    2
    28    19    17    1
    29    13    14    1
    30    18    17    1
    31    17    16    2
    32    14    15    2
    33    16    15    1
