@<TRIPOS>MOLECULE
50605_out_ligand_01.pdbqt
 35 39 0 0 0
SMALL
GASTEIGER

@<TRIPOS>ATOM
      1  C         22.4480  -22.7570  -11.6680 C.3     1  UNL1        0.0980
      2  N         21.3690  -21.7930  -11.9100 N.pl3   1  UNL1       -0.2830
      3  C         20.1720  -22.0840  -11.2290 C.2     1  UNL1        0.0160
      4  C         18.9670  -21.5590  -11.7170 C.2     1  UNL1        0.0250
      5  C         17.7610  -21.7980  -11.0580 C.2     1  UNL1        0.0260
      6  C         17.7590  -22.5610   -9.8910 C.2     1  UNL1        0.0750
      7  C         18.9560  -23.0360   -9.3510 C.2     1  UNL1        0.0340
      8  C         20.1750  -22.7780  -10.0030 C.2     1  UNL1       -0.0270
      9  C         21.4750  -23.2530   -9.3860 C.3     1  UNL1        0.0490
     10  C         21.7290  -22.6400   -8.0340 C.3     1  UNL1       -0.0210
     11  C         22.6420  -21.6640   -8.0910 C.3     1  UNL1       -0.0290
     12  C         23.1540  -21.4810   -9.4850 C.3     1  UNL1        0.0340
     13  C         22.7370  -22.8040  -10.1610 C.3     1  UNL1        0.0230
     14  H         21.1990  -21.5860  -12.8880 H       1  UNL1        0.1280
     15  S         16.2280  -22.8910   -9.0480 S.O2    1  UNL1        0.2460
     16  O         16.2550  -24.2620   -8.5830 O.2     1  UNL1       -0.2060
     17  O         15.1540  -22.4040   -9.8880 O.2     1  UNL1       -0.2060
     18  N         16.2940  -21.8510   -7.7140 N.pl3   1  UNL1       -0.1780
     19  H         17.0220  -21.1450   -7.8450 H       1  UNL1        0.1460
     20  C         16.2260  -22.4250   -6.4070 C.2     1  UNL1        0.0610
     21  C         15.0040  -22.7910   -5.8450 C.2     1  UNL1        0.0270
     22  C         14.9720  -23.3910   -4.5830 C.2     1  UNL1        0.0020
     23  C         16.1580  -23.6270   -3.8840 C.2     1  UNL1        0.0030
     24  C         17.3820  -23.2610   -4.4440 C.2     1  UNL1        0.0440
     25  C         17.4070  -22.6640   -5.6990 C.2     1  UNL1        0.1380
     26  F         18.5870  -22.3220   -6.2410 F       1  UNL1       -0.2040
     27  C         23.6120  -22.4900  -12.6230 C.2     1  UNL1       -0.0370
     28  C         23.8830  -21.2360  -13.1910 C.2     1  UNL1        0.0090
     29  C         24.9760  -21.0390  -14.0450 C.2     1  UNL1        0.0030
     30  C         25.8380  -22.0910  -14.3410 C.2     1  UNL1        0.0360
     31  C         25.6070  -23.3410  -13.7640 C.2     1  UNL1        0.1030
     32  C         24.5130  -23.5390  -12.9070 C.2     1  UNL1        0.0450
     33  N         26.5180  -24.4560  -14.0490 N.pl3   1  UNL1       -0.1160
     34  O         27.0850  -24.9970  -13.0890 O.2     1  UNL1       -0.5320
     35  O         26.6700  -24.7900  -15.2330 O.2     1  UNL1       -0.5320
@<TRIPOS>BOND
     1    35    33    2
     2    30    29    2
     3    30    31    1
     4    33    31    1
     5    33    34    2
     6    29    28    1
     7    31    32    2
     8    28    27    2
     9    32    27    1
    10    14     2    1
    11    27     1    1
    12     2     1    1
    13     2     3    1
    14     4     3    2
    15     4     5    1
    16     1    13    1
    17     3     8    1
    18     5     6    2
    19    13    12    1
    20    13     9    1
    21     8     9    1
    22     8     7    2
    23     6     7    1
    24     6    15    1
    25    17    15    2
    26    12    11    1
    27     9    10    1
    28    15    16    2
    29    15    18    1
    30    11    10    1
    31    19    18    1
    32    18    20    1
    33    20    21    2
    34    20    25    1
    35    26    25    1
    36    21    22    1
    37    25    24    2
    38    22    23    2
    39    24    23    1
