@<TRIPOS>MOLECULE
50606_out_ligand_01.pdbqt
 31 33 0 0 0
SMALL
GASTEIGER

@<TRIPOS>ATOM
      1  C         17.5790  -22.8660   -9.1460 C.2     1  UNL1        0.0860
      2  C         18.9700  -22.8320   -9.3490 C.2     1  UNL1        0.0420
      3  C         19.5120  -22.0950  -10.4060 C.2     1  UNL1        0.0330
      4  C         18.6650  -21.3800  -11.2570 C.2     1  UNL1        0.0170
      5  C         17.2810  -21.4220  -11.0620 C.2     1  UNL1        0.0090
      6  C         16.7150  -22.1600  -10.0070 C.2     1  UNL1       -0.0390
      7  C         15.2170  -22.1690   -9.8780 C.3     1  UNL1        0.0500
      8  S         16.9830  -23.8680   -7.7860 S.O2    1  UNL1        0.2630
      9  O         15.8640  -24.6580   -8.2590 O.2     1  UNL1       -0.2000
     10  O         18.1220  -24.5200   -7.1770 O.2     1  UNL1       -0.2000
     11  N         16.3440  -22.7310   -6.7180 N.pl3   1  UNL1       -0.2800
     12  H         15.7210  -22.0690   -7.1720 H       1  UNL1        0.1790
     13  C         17.0920  -22.3040   -5.5810 C.2     1  UNL1        0.0480
     14  C         18.2150  -21.4880   -5.7530 C.2     1  UNL1        0.0300
     15  C         18.9350  -21.0310   -4.6510 C.2     1  UNL1        0.0020
     16  C         18.5440  -21.3960   -3.3660 C.2     1  UNL1        0.0010
     17  C         17.4390  -22.2270   -3.1870 C.2     1  UNL1        0.0090
     18  C         16.7040  -22.7000   -4.2880 C.2     1  UNL1       -0.0350
     19  C         15.5180  -23.5850   -4.0380 C.3     1  UNL1        0.0500
     20  C         20.9920  -22.0710  -10.5730 C.2     1  UNL1        0.2560
     21  O         21.6870  -21.9060   -9.5790 O.2     1  UNL1       -0.2670
     22  N         21.4360  -22.2710  -11.8650 N.am    1  UNL1       -0.3200
     23  H         20.7490  -22.5120  -12.5730 H       1  UNL1        0.1690
     24  C         22.7700  -22.2730  -12.3240 C.2     1  UNL1        0.0740
     25  C         23.7910  -23.0540  -11.7810 C.2     1  UNL1        0.0340
     26  C         25.0880  -22.9830  -12.3060 C.2     1  UNL1        0.0210
     27  C         25.3670  -22.1290  -13.3720 C.2     1  UNL1        0.0140
     28 BR         27.1200  -22.0400  -14.0710 Br      1  UNL1       -0.0510
     29  C         24.3630  -21.3400  -13.9240 C.2     1  UNL1        0.0630
     30  C         23.0790  -21.4210  -13.3940 C.2     1  UNL1        0.1440
     31  F         22.1110  -20.6550  -13.9240 F       1  UNL1       -0.2040
@<TRIPOS>BOND
     1    28    27    1
     2    29    30    1
     3    29    27    2
     4    31    30    1
     5    30    24    2
     6    27    26    1
     7    23    22    1
     8    24    22    1
     9    24    25    1
    10    26    25    2
    11    22    20   am
    12     4     5    2
    13     4     3    1
    14     5     6    1
    15    20     3    1
    16    20    21    2
    17     3     2    2
    18     6     7    1
    19     6     1    2
    20     2     1    1
    21     1     8    1
    22     9     8    2
    23     8    10    2
    24     8    11    1
    25    12    11    1
    26    11    13    1
    27    14    13    2
    28    14    15    1
    29    13    18    1
    30    15    16    2
    31    18    19    1
    32    18    17    2
    33    16    17    1
