@<TRIPOS>MOLECULE
50620_out_ligand_01.pdbqt
 27 30 0 0 0
SMALL
GASTEIGER

@<TRIPOS>ATOM
      1  C         22.3430  -23.4270   -8.7280 C.2     1  UNL1       -0.0400
      2  C         21.3470  -24.3950   -8.9110 C.2     1  UNL1        0.0100
      3  C         20.0640  -24.2030   -8.3900 C.2     1  UNL1        0.0160
      4  C         19.7480  -23.0420   -7.6720 C.2     1  UNL1        0.0170
      5  C         20.7500  -22.0790   -7.4880 C.2     1  UNL1        0.0160
      6  C         22.0360  -22.2680   -8.0060 C.2     1  UNL1        0.0100
      7  C         23.7350  -23.6610   -9.2580 C.3     1  UNL1        0.1610
      8  N         23.8280  -23.2410  -10.6380 N.am    1  UNL1       -0.3530
      9  C         24.2160  -21.9670  -10.9820 C.2     1  UNL1        0.2530
     10  O         24.6730  -21.1520  -10.1880 O.2     1  UNL1       -0.2680
     11  H         23.3550  -23.8090  -11.3270 H       1  UNL1        0.1630
     12  C         24.1240  -21.6160  -12.4210 C.2     1  UNL1        0.0490
     13  C         25.3450  -21.4700  -13.0990 C.2     1  UNL1        0.0180
     14  C         25.3710  -21.1530  -14.4580 C.2     1  UNL1        0.0010
     15  C         24.1760  -20.9720  -15.1490 C.2     1  UNL1        0.0010
     16  C         22.9570  -21.0940  -14.4800 C.2     1  UNL1        0.0200
     17  C         22.9240  -21.4100  -13.1150 C.2     1  UNL1        0.0260
     18 BR         21.2110  -21.4710  -12.2970 Br      1  UNL1       -0.0500
     19  C         18.4170  -22.8130   -7.1130 C.2     1  UNL1        0.1820
     20  N         17.2740  -22.6250   -7.7520 N.2     1  UNL1       -0.2010
     21  C         16.3690  -22.4630   -6.7440 C.2     1  UNL1        0.1860
     22  N         15.0420  -22.2400   -6.8820 N.2     1  UNL1       -0.2390
     23  C         16.9980  -22.5610   -5.5150 C.2     1  UNL1        0.1250
     24  C         14.3860  -22.1210   -5.7030 C.2     1  UNL1        0.1190
     25  C         14.9620  -22.2080   -4.4330 C.3     1  UNL1        0.0220
     26  C         16.3330  -22.4380   -4.3070 C.2     1  UNL1        0.0430
     27  O         18.3220  -22.7860   -5.7400 O.2     1  UNL1       -0.2870
@<TRIPOS>BOND
     1    15    16    2
     2    15    14    1
     3    16    17    1
     4    14    13    2
     5    17    12    2
     6    17    18    1
     7    13    12    1
     8    12     9    1
     9    11     8    1
    10     9     8   am
    11     9    10    2
    12     8     7    1
    13     7     1    1
    14     2     1    2
    15     2     3    1
    16     1     6    1
    17     3     4    2
    18     6     5    2
    19    20    19    2
    20    20    21    2
    21     4     5    1
    22     4    19    1
    23    19    27    1
    24    22    21    1
    25    22    24    2
    26    21    23    1
    27    27    23    1
    28    24    25    1
    29    23    26    2
    30    25    26    1
