@<TRIPOS>MOLECULE
50639_out_ligand_01.pdbqt
 31 33 0 0 0
SMALL
GASTEIGER

@<TRIPOS>ATOM
      1  C         19.5010  -22.1450  -10.3410 C.2     1  UNL1        0.0330
      2  C         18.6400  -21.4770  -11.2150 C.2     1  UNL1        0.0170
      3  C         17.2570  -21.5490  -11.0240 C.2     1  UNL1        0.0090
      4  C         16.7060  -22.2790   -9.9550 C.2     1  UNL1       -0.0390
      5  C         15.2080  -22.3190   -9.8260 C.3     1  UNL1        0.0500
      6  C         17.5850  -22.9640   -9.0900 C.2     1  UNL1        0.0860
      7  C         18.9730  -22.9090   -9.2970 C.2     1  UNL1        0.0420
      8  C         20.9790  -22.0900  -10.5100 C.2     1  UNL1        0.2560
      9  N         21.4130  -22.1560  -11.8220 N.am    1  UNL1       -0.3230
     10  H         20.7020  -22.1310  -12.5400 H       1  UNL1        0.1690
     11  O         21.6710  -21.9600   -9.5080 O.2     1  UNL1       -0.2670
     12  C         22.7460  -22.1580  -12.2840 C.2     1  UNL1        0.0350
     13  C         23.7860  -22.8660  -11.6730 C.2     1  UNL1        0.0370
     14  C         25.0980  -22.8310  -12.1850 C.2     1  UNL1       -0.0430
     15  C         26.1750  -23.6110  -11.4820 C.3     1  UNL1        0.0490
     16  C         25.3510  -22.0690  -13.3340 C.2     1  UNL1        0.0170
     17  C         24.3200  -21.3620  -13.9530 C.2     1  UNL1        0.0220
     18 BR         27.0820  -21.9540  -14.1070 Br      1  UNL1       -0.0510
     19  C         23.0250  -21.4080  -13.4310 C.2     1  UNL1        0.0310
     20  S         17.0070  -23.9530   -7.7120 S.O2    1  UNL1        0.2630
     21  O         15.8960  -24.7650   -8.1620 O.2     1  UNL1       -0.2000
     22  O         18.1560  -24.5740   -7.0880 O.2     1  UNL1       -0.2000
     23  N         16.3570  -22.8000   -6.6660 N.pl3   1  UNL1       -0.2800
     24  H         15.7170  -22.1630   -7.1310 H       1  UNL1        0.1790
     25  C         17.1040  -22.3340   -5.5430 C.2     1  UNL1        0.0480
     26  C         18.2090  -21.5000   -5.7390 C.2     1  UNL1        0.0300
     27  C         18.9280  -21.0060   -4.6510 C.2     1  UNL1        0.0020
     28  C         18.5540  -21.3540   -3.3570 C.2     1  UNL1        0.0010
     29  C         17.4680  -22.2060   -3.1530 C.2     1  UNL1        0.0090
     30  C         16.7340  -22.7130   -4.2400 C.2     1  UNL1       -0.0350
     31  C         15.5710  -23.6220   -3.9650 C.3     1  UNL1        0.0500
@<TRIPOS>BOND
     1    18    16    1
     2    17    19    1
     3    17    16    2
     4    19    12    2
     5    16    14    1
     6    10     9    1
     7    12     9    1
     8    12    13    1
     9    14    13    2
    10    14    15    1
    11     9     8   am
    12     2     3    1
    13     2     1    2
    14     3     4    2
    15     8     1    1
    16     8    11    2
    17     1     7    1
    18     4     5    1
    19     4     6    1
    20     7     6    2
    21     6    20    1
    22    21    20    2
    23    20    22    2
    24    20    23    1
    25    24    23    1
    26    23    25    1
    27    26    25    2
    28    26    27    1
    29    25    30    1
    30    27    28    2
    31    30    31    1
    32    30    29    2
    33    28    29    1
