@<TRIPOS>MOLECULE
50630_out_ligand_01.pdbqt
 31 33 0 0 0
SMALL
GASTEIGER

@<TRIPOS>ATOM
      1  C         17.5800  -23.5350   -8.5780 C.2     1  UNL1        0.0810
      2  C         18.9750  -23.6830   -8.4960 C.2     1  UNL1        0.0420
      3  C         19.8060  -23.0790   -9.4460 C.2     1  UNL1        0.0330
      4  C         19.2380  -22.3470  -10.4920 C.2     1  UNL1        0.0170
      5  C         17.8510  -22.2020  -10.5750 C.2     1  UNL1        0.0090
      6  C         16.9980  -22.7860   -9.6210 C.2     1  UNL1       -0.0390
      7  C         15.5160  -22.5890   -9.7760 C.3     1  UNL1        0.0500
      8  S         16.5850  -24.3370   -7.3240 S.O2    1  UNL1        0.2460
      9  O         15.5150  -25.0390   -7.9960 O.2     1  UNL1       -0.2060
     10  O         17.4840  -25.0140   -6.4150 O.2     1  UNL1       -0.2060
     11  N         15.9770  -22.9780   -6.4910 N.pl3   1  UNL1       -0.1810
     12  H         15.7260  -22.2660   -7.1740 H       1  UNL1        0.1460
     13  C         16.8490  -22.4690   -5.4660 C.2     1  UNL1        0.0290
     14  C         16.6300  -22.7640   -4.1100 C.2     1  UNL1       -0.0400
     15  C         17.4970  -22.2100   -3.1540 C.2     1  UNL1        0.0090
     16  C         15.4930  -23.6270   -3.6420 C.3     1  UNL1        0.0500
     17  C         18.5540  -21.3810   -3.5370 C.2     1  UNL1        0.0070
     18  C         18.7730  -21.0950   -4.8840 C.2     1  UNL1       -0.0600
     19  C         19.8740  -20.1630   -5.2990 C.3     1  UNL1        0.0480
     20  C         17.9080  -21.6360   -5.8420 C.2     1  UNL1        0.0310
     21  C         21.2790  -23.2660   -9.3210 C.2     1  UNL1        0.2520
     22  O         21.7370  -24.3430   -8.9550 O.2     1  UNL1       -0.2680
     23  N         22.0620  -22.1670   -9.5990 N.am    1  UNL1       -0.3510
     24  H         21.6560  -21.2400   -9.6030 H       1  UNL1        0.1630
     25  C         23.4920  -22.2110   -9.3620 C.3     1  UNL1        0.1820
     26  C         24.2570  -22.0450  -10.6520 C.2     1  UNL1        0.0510
     27  C         23.9960  -22.8750  -11.7380 C.2     1  UNL1        0.0290
     28  C         24.7090  -22.6790  -12.9170 C.2     1  UNL1        0.0030
     29  C         25.6560  -21.6670  -12.9810 C.2     1  UNL1        0.0190
     30  C         25.8440  -20.8740  -11.8630 C.2     1  UNL1        0.1170
     31  N         25.1630  -21.0320  -10.7070 N.2     1  UNL1       -0.2640
@<TRIPOS>BOND
     1    29    28    2
     2    29    30    1
     3    28    27    1
     4    30    31    2
     5    27    26    2
     6    31    26    1
     7    26    25    1
     8     5     4    2
     9     5     6    1
    10     4     3    1
    11     7     6    1
    12     6     1    2
    13    24    23    1
    14    23    25    1
    15    23    21   am
    16     3    21    1
    17     3     2    2
    18    21    22    2
    19     1     2    1
    20     1     8    1
    21     9     8    2
    22     8    11    1
    23     8    10    2
    24    12    11    1
    25    11    13    1
    26    20    13    2
    27    20    18    1
    28    13    14    1
    29    19    18    1
    30    18    17    2
    31    14    16    1
    32    14    15    2
    33    17    15    1
