@<TRIPOS>MOLECULE
50649_out_ligand_01.pdbqt
 33 36 0 0 0
SMALL
GASTEIGER

@<TRIPOS>ATOM
      1  N         21.3800  -23.0630   -9.6090 N.am    1  UNL1       -0.3260
      2  C         20.5760  -24.0680   -9.0870 C.2     1  UNL1        0.2350
      3  O         20.9490  -25.2150   -8.8400 O.2     1  UNL1       -0.2720
      4  H         20.9450  -22.1560   -9.7370 H       1  UNL1        0.1690
      5  C         22.7490  -23.1320   -9.9390 C.2     1  UNL1        0.0350
      6  C         23.7320  -23.6740   -9.1100 C.2     1  UNL1        0.0290
      7  C         25.0710  -23.6920   -9.5120 C.2     1  UNL1        0.0030
      8  C         25.4420  -23.1820  -10.7560 C.2     1  UNL1        0.0170
      9  C         24.4640  -22.6560  -11.6070 C.2     1  UNL1        0.0340
     10  C         23.1260  -22.6230  -11.1880 C.2     1  UNL1        0.0460
     11  C         24.7900  -22.0960  -12.9480 C.2     1  UNL1        0.2520
     12  O         24.8950  -20.8840  -13.0930 O.2     1  UNL1       -0.2680
     13  N         24.9230  -23.0010  -13.9830 N.am    1  UNL1       -0.3520
     14  H         24.7420  -23.9800  -13.8210 H       1  UNL1        0.1630
     15  C         25.2610  -22.5720  -15.3330 C.3     1  UNL1        0.0840
     16  C         24.1920  -23.0380  -16.3370 C.3     1  UNL1        0.0250
     17  C         24.7080  -23.1540  -17.7720 C.3     1  UNL1        0.0020
     18  C         25.8830  -22.2220  -18.0370 C.3     1  UNL1        0.0000
     19  C         27.0650  -22.5200  -17.1120 C.3     1  UNL1        0.0020
     20  C         26.6490  -23.0700  -15.7460 C.3     1  UNL1        0.0250
     21  C         19.0960  -23.6700   -8.8700 C.3     1  UNL1        0.1440
     22  C         18.5800  -22.6780   -9.9150 C.2     1  UNL1       -0.0410
     23  C         17.2330  -22.2700   -9.8620 C.2     1  UNL1        0.0080
     24  C         16.7270  -21.3460  -10.7770 C.2     1  UNL1        0.0010
     25  C         17.5570  -20.8110  -11.7570 C.2     1  UNL1        0.0000
     26  C         18.8920  -21.1980  -11.8230 C.2     1  UNL1        0.0010
     27  C         19.4030  -22.1230  -10.9080 C.2     1  UNL1        0.0080
     28  C         18.7750  -23.3010   -7.4170 C.2     1  UNL1       -0.0410
     29  C         17.9980  -24.1160   -6.5770 C.2     1  UNL1        0.0080
     30  C         17.6970  -23.7140   -5.2750 C.2     1  UNL1        0.0010
     31  C         18.1590  -22.4920   -4.7940 C.2     1  UNL1        0.0000
     32  C         18.9270  -21.6680   -5.6130 C.2     1  UNL1        0.0010
     33  C         19.2320  -22.0690   -6.9150 C.2     1  UNL1        0.0080
@<TRIPOS>BOND
     1    18    17    1
     2    18    19    1
     3    17    16    1
     4    19    20    1
     5    16    15    1
     6    20    15    1
     7    15    13    1
     8    13    14    1
     9    13    11   am
    10    12    11    2
    11    11     9    1
    12    26    25    2
    13    26    27    1
    14    25    24    1
    15     9    10    1
    16     9     8    2
    17    10     5    2
    18    27    22    2
    19    24    23    2
    20     8     7    1
    21     5     1    1
    22     5     6    1
    23    22    23    1
    24    22    21    1
    25     4     1    1
    26     1     2   am
    27     7     6    2
    28     2    21    1
    29     2     3    2
    30    21    28    1
    31    28    33    2
    32    28    29    1
    33    33    32    1
    34    29    30    2
    35    32    31    2
    36    30    31    1
