@<TRIPOS>MOLECULE
5066_out_ligand_01.pdbqt
 34 38 0 0 0
SMALL
GASTEIGER

@<TRIPOS>ATOM
      1  C         20.5070  -23.2060   -9.2090 C.2     1  UNL1        0.0320
      2  C         20.1800  -24.1840   -8.2560 C.2     1  UNL1        0.0180
      3  C         18.8670  -24.3150   -7.8010 C.2     1  UNL1        0.0260
      4  C         17.8870  -23.4490   -8.2920 C.2     1  UNL1        0.0800
      5  C         18.1990  -22.4690   -9.2410 C.2     1  UNL1        0.0260
      6  C         19.5140  -22.3440   -9.6960 C.2     1  UNL1        0.0180
      7  C         21.9260  -23.0900   -9.6480 C.2     1  UNL1        0.2580
      8  O         22.7350  -23.9010   -9.2120 O.2     1  UNL1       -0.2670
      9  N         22.1750  -22.0760  -10.5390 N.am    1  UNL1       -0.2850
     10  H         21.4340  -21.5290  -10.9490 H       1  UNL1        0.1720
     11  C         23.4240  -21.7920  -11.0090 C.ar    1  UNL1        0.2750
     12  N         24.4220  -21.3100  -10.3110 N.ar    1  UNL1       -0.1020
     13  N         25.4840  -21.2060  -11.1830 N.ar    1  UNL1       -0.1170
     14  C         25.0830  -21.6410  -12.3740 C.ar    1  UNL1        0.2290
     15  O         23.7530  -22.0270  -12.3050 O.2     1  UNL1       -0.2530
     16  C         25.8590  -21.7300  -13.5680 C.2     1  UNL1        0.1450
     17  C         26.3560  -20.6300  -14.1560 C.2     1  UNL1        0.1760
     18  O         27.0650  -20.6190  -15.3350 O.2     1  UNL1       -0.3580
     19  C         26.9870  -21.8840  -16.0110 C.3     1  UNL1        0.2010
     20  C         27.1210  -23.0380  -15.0270 C.3     1  UNL1        0.2020
     21  O         26.0610  -23.0090  -14.0610 O.2     1  UNL1       -0.3430
     22  S         16.2010  -23.5750   -7.7170 S.O2    1  UNL1        0.2650
     23  O         15.5570  -22.3540   -8.1530 O.2     1  UNL1       -0.2000
     24  O         15.6950  -24.8710   -8.1160 O.2     1  UNL1       -0.2000
     25  N         16.3930  -23.5790   -6.0170 N.pl3   1  UNL1       -0.2710
     26  C         15.2020  -24.0510   -5.2480 C.3     1  UNL1        0.1420
     27  C         15.2690  -23.7560   -3.7520 C.3     1  UNL1        0.0260
     28  C         16.7020  -23.7770   -3.2430 C.3     1  UNL1        0.0420
     29  C         17.4620  -22.7230   -3.9990 C.2     1  UNL1       -0.0310
     30  C         18.3640  -21.8840   -3.3300 C.2     1  UNL1        0.0090
     31  C         17.2410  -22.5840   -5.3830 C.2     1  UNL1        0.0510
     32  C         19.0330  -20.8820   -4.0280 C.2     1  UNL1        0.0010
     33  C         18.8030  -20.7180   -5.3910 C.2     1  UNL1        0.0020
     34  C         17.9170  -21.5670   -6.0650 C.2     1  UNL1        0.0310
@<TRIPOS>BOND
     1    19    18    1
     2    19    20    1
     3    18    17    1
     4    20    21    1
     5    17    16    2
     6    21    16    1
     7    16    14    1
     8    14    15   ar
     9    14    13   ar
    10    15    11   ar
    11    13    12   ar
    12    11     9    1
    13    11    12   ar
    14    10     9    1
    15     9     7   am
    16     6     5    1
    17     6     1    2
    18     7     8    2
    19     7     1    1
    20     5     4    2
    21     1     2    1
    22     4     3    1
    23     4    22    1
    24     2     3    2
    25    23    22    2
    26    24    22    2
    27    22    25    1
    28    34    33    2
    29    34    31    1
    30    25    31    1
    31    25    26    1
    32    33    32    1
    33    31    29    2
    34    26    27    1
    35    32    30    2
    36    29    30    1
    37    29    28    1
    38    27    28    1
