@<TRIPOS>MOLECULE
50661_out_ligand_01.pdbqt
 31 33 0 0 0
SMALL
GASTEIGER

@<TRIPOS>ATOM
      1  C         17.5340  -23.4280   -8.6350 C.2     1  UNL1        0.0810
      2  C         18.9360  -23.4710   -8.5980 C.2     1  UNL1        0.0420
      3  C         19.6870  -22.7970   -9.5660 C.2     1  UNL1        0.0330
      4  C         19.0340  -22.0840  -10.5760 C.2     1  UNL1        0.0170
      5  C         17.6390  -22.0360  -10.6070 C.2     1  UNL1        0.0090
      6  C         16.8650  -22.7090   -9.6470 C.2     1  UNL1       -0.0390
      7  C         15.3680  -22.6100   -9.7410 C.3     1  UNL1        0.0500
      8  S         16.6480  -24.2970   -7.3460 S.O2    1  UNL1        0.2460
      9  O         17.6180  -24.9630   -6.5050 O.2     1  UNL1       -0.2060
     10  O         15.5600  -25.0240   -7.9660 O.2     1  UNL1       -0.2060
     11  N         15.9350  -22.9810   -6.5190 N.pl3   1  UNL1       -0.1810
     12  H         15.0630  -23.3280   -6.1140 H       1  UNL1        0.1460
     13  C         16.7720  -22.4290   -5.4940 C.2     1  UNL1        0.0230
     14  C         16.5330  -22.7300   -4.1530 C.2     1  UNL1        0.0240
     15  C         17.3760  -22.2140   -3.1690 C.2     1  UNL1        0.0020
     16  C         18.4640  -21.4140   -3.5270 C.2     1  UNL1        0.0070
     17  C         18.7290  -21.1380   -4.8740 C.2     1  UNL1       -0.0600
     18  C         19.8870  -20.2640   -5.2580 C.3     1  UNL1        0.0480
     19  C         17.8710  -21.6480   -5.8560 C.2     1  UNL1        0.0310
     20  C         21.1690  -22.8920   -9.5110 C.2     1  UNL1        0.2510
     21  O         21.7410  -22.9350   -8.4280 O.2     1  UNL1       -0.2680
     22  N         21.8220  -22.8980  -10.7210 N.am    1  UNL1       -0.3530
     23  H         21.3290  -22.5980  -11.5500 H       1  UNL1        0.1630
     24  C         23.2670  -22.8690  -10.7720 C.3     1  UNL1        0.1620
     25  C         23.7360  -22.1000  -11.9820 C.2     1  UNL1       -0.0350
     26  C         22.7870  -21.7400  -12.9560 C.2     1  UNL1        0.0090
     27  C         23.1560  -21.0020  -14.0790 C.2     1  UNL1        0.0010
     28  C         24.4790  -20.6050  -14.2430 C.2     1  UNL1        0.0010
     29  C         25.4310  -20.9420  -13.2800 C.2     1  UNL1        0.0070
     30  C         25.0740  -21.6790  -12.1390 C.2     1  UNL1       -0.0540
     31  C         26.1350  -22.0150  -11.1270 C.3     1  UNL1        0.0490
@<TRIPOS>BOND
     1    28    27    2
     2    28    29    1
     3    27    26    1
     4    29    30    2
     5    26    25    2
     6    30    25    1
     7    30    31    1
     8    25    24    1
     9    23    22    1
    10    24    22    1
    11    22    20   am
    12     5     4    2
    13     5     6    1
    14     4     3    1
    15     7     6    1
    16     6     1    2
    17     3    20    1
    18     3     2    2
    19    20    21    2
    20     1     2    1
    21     1     8    1
    22    10     8    2
    23     8    11    1
    24     8     9    2
    25    11    12    1
    26    11    13    1
    27    19    13    2
    28    19    17    1
    29    13    14    1
    30    18    17    1
    31    17    16    2
    32    14    15    2
    33    16    15    1
