@<TRIPOS>MOLECULE
50665_out_ligand_01.pdbqt
 34 37 0 0 0
SMALL
GASTEIGER

@<TRIPOS>ATOM
      1  C         16.6310  -20.9530  -11.0340 C.3     1  UNL1        0.0500
      2  C         18.0480  -21.4430  -10.9180 C.2     1  UNL1       -0.0390
      3  C         19.0140  -20.9000  -11.7840 C.2     1  UNL1        0.0090
      4  C         20.3460  -21.3200  -11.7370 C.2     1  UNL1        0.0170
      5  C         20.7360  -22.3090  -10.8290 C.2     1  UNL1        0.0330
      6  C         19.7910  -22.8630   -9.9610 C.2     1  UNL1        0.0420
      7  C         18.4540  -22.4380  -10.0070 C.2     1  UNL1        0.0810
      8  C         22.1460  -22.7700  -10.7300 C.2     1  UNL1        0.2510
      9  O         22.4350  -23.7010   -9.9870 O.2     1  UNL1       -0.2680
     10  N         23.0610  -22.1160  -11.5240 N.am    1  UNL1       -0.3530
     11  H         22.7260  -21.5510  -12.2930 H       1  UNL1        0.1630
     12  C         24.4250  -22.5850  -11.5970 C.3     1  UNL1        0.1610
     13  C         24.7940  -22.9190  -13.0170 C.2     1  UNL1       -0.0380
     14  C         25.6590  -24.0060  -13.2850 C.2     1  UNL1        0.0120
     15  C         26.0360  -24.3210  -14.5930 C.2     1  UNL1        0.0400
     16  C         25.5430  -23.5320  -15.6090 C.2     1  UNL1        0.1050
     17  C         24.7110  -22.4670  -15.3590 C.2     1  UNL1        0.1050
     18  O         25.8040  -23.6880  -16.9350 O.2     1  UNL1       -0.3230
     19  C         24.3200  -22.1330  -14.0790 C.2     1  UNL1        0.0480
     20  O         24.3450  -21.8180  -16.4960 O.2     1  UNL1       -0.3230
     21  C         25.0300  -22.6050  -17.4910 C.3     1  UNL1        0.3520
     22  S         17.3000  -23.2120   -8.8770 S.O2    1  UNL1        0.2460
     23  O         18.0560  -24.1030   -8.0210 O.2     1  UNL1       -0.2060
     24  O         16.1740  -23.6860   -9.6500 O.2     1  UNL1       -0.2060
     25  N         16.8490  -21.8640   -7.9350 N.pl3   1  UNL1       -0.1810
     26  H         17.4980  -21.0970   -8.1030 H       1  UNL1        0.1460
     27  C         16.6540  -22.1410   -6.5390 C.2     1  UNL1        0.0290
     28  C         15.4100  -22.6410   -6.1440 C.2     1  UNL1        0.0250
     29  C         15.1600  -22.9280   -4.8070 C.2     1  UNL1        0.0020
     30  C         16.1520  -22.7120   -3.8570 C.2     1  UNL1        0.0070
     31  C         17.4110  -22.2110   -4.2300 C.2     1  UNL1       -0.0540
     32  C         18.4420  -21.9960   -3.1530 C.3     1  UNL1        0.0490
     33  C         17.6840  -21.9470   -5.5940 C.2     1  UNL1       -0.0340
     34  C         19.0310  -21.4100   -6.0100 C.3     1  UNL1        0.0500
@<TRIPOS>BOND
     1    21    18    1
     2    21    20    1
     3    18    16    1
     4    20    17    1
     5    16    17    2
     6    16    15    1
     7    17    19    1
     8    15    14    2
     9    19    13    2
    10    14    13    1
    11    13    12    1
    12    11    10    1
    13     3     4    1
    14     3     2    2
    15     4     5    2
    16    12    10    1
    17    10     8   am
    18     1     2    1
    19     2     7    1
    20     5     8    1
    21     5     6    1
    22     8     9    2
    23     7     6    2
    24     7    22    1
    25    24    22    2
    26    22    23    2
    27    22    25    1
    28    26    25    1
    29    25    27    1
    30    27    28    2
    31    27    33    1
    32    28    29    1
    33    34    33    1
    34    33    31    2
    35    29    30    2
    36    31    30    1
    37    31    32    1
