@<TRIPOS>MOLECULE
50664_out_ligand_01.pdbqt
 33 35 0 0 0
SMALL
GASTEIGER

@<TRIPOS>ATOM
      1  C         20.7750  -22.4090  -10.7460 C.2     1  UNL1        0.0330
      2  C         20.4160  -21.4620  -11.7080 C.2     1  UNL1        0.0170
      3  C         19.0940  -21.0170  -11.7940 C.2     1  UNL1        0.0090
      4  C         18.1060  -21.5040  -10.9220 C.2     1  UNL1       -0.0390
      5  C         16.7000  -20.9960  -11.0860 C.3     1  UNL1        0.0500
      6  C         18.4740  -22.4760   -9.9690 C.2     1  UNL1        0.0860
      7  C         19.8000  -22.9310   -9.8900 C.2     1  UNL1        0.0420
      8  C         22.1730  -22.9100  -10.6310 C.2     1  UNL1        0.2560
      9  N         23.0500  -22.3980  -11.5720 N.am    1  UNL1       -0.3230
     10  H         22.6970  -21.6650  -12.1720 H       1  UNL1        0.1690
     11  O         22.4370  -23.6860   -9.7220 O.2     1  UNL1       -0.2670
     12  C         24.4160  -22.7210  -11.7300 C.2     1  UNL1        0.0350
     13  C         25.4010  -22.4160  -10.7890 C.2     1  UNL1        0.0290
     14  C         26.7320  -22.7770  -11.0130 C.2     1  UNL1        0.0030
     15  C         27.0910  -23.4470  -12.1800 C.2     1  UNL1        0.0150
     16  C         26.1170  -23.7640  -13.1340 C.2     1  UNL1        0.0110
     17  C         24.7820  -23.4000  -12.9030 C.2     1  UNL1        0.0440
     18  C         26.5460  -24.4830  -14.3720 C.2     1  UNL1        0.1550
     19  C         26.9650  -23.6810  -15.5740 C.3     1  UNL1        0.0960
     20  O         26.5530  -25.7120  -14.3970 O.2     1  UNL1       -0.2930
     21  S         17.2910  -23.1940   -8.8390 S.O2    1  UNL1        0.2630
     22  O         17.9680  -24.1530   -7.9950 O.2     1  UNL1       -0.2000
     23  O         16.1300  -23.5870   -9.6100 O.2     1  UNL1       -0.2000
     24  N         16.8090  -21.8700   -7.9020 N.pl3   1  UNL1       -0.2800
     25  H         16.1100  -21.3160   -8.3930 H       1  UNL1        0.1790
     26  C         16.6200  -22.0710   -6.5030 C.2     1  UNL1        0.0490
     27  C         15.3570  -22.4850   -6.0730 C.2     1  UNL1        0.0310
     28  C         15.1050  -22.6770   -4.7180 C.2     1  UNL1        0.0030
     29  C         16.1210  -22.4620   -3.7900 C.2     1  UNL1        0.0070
     30  C         17.4000  -22.0520   -4.2030 C.2     1  UNL1       -0.0540
     31  C         18.4590  -21.8330   -3.1540 C.3     1  UNL1        0.0490
     32  C         17.6540  -21.8260   -5.5770 C.2     1  UNL1       -0.0290
     33  C         19.0240  -21.3870   -6.0290 C.3     1  UNL1        0.0510
@<TRIPOS>BOND
     1    19    18    1
     2    20    18    2
     3    18    16    1
     4    16    17    1
     5    16    15    2
     6    17    12    2
     7    15    14    1
     8    10     9    1
     9     3     2    1
    10     3     4    2
    11    12     9    1
    12    12    13    1
    13     2     1    2
    14     9     8   am
    15     5     4    1
    16    14    13    2
    17     4     6    1
    18     1     8    1
    19     1     7    1
    20     8    11    2
    21     6     7    2
    22     6    21    1
    23    23    21    2
    24    21    22    2
    25    21    24    1
    26    25    24    1
    27    24    26    1
    28    26    27    2
    29    26    32    1
    30    27    28    1
    31    33    32    1
    32    32    30    2
    33    28    29    2
    34    30    29    1
    35    30    31    1
