@<TRIPOS>MOLECULE
50669_out_ligand_01.pdbqt
 31 34 0 0 0
SMALL
GASTEIGER

@<TRIPOS>ATOM
      1  C         19.9190  -22.7650   -8.3160 C.2     1  UNL1        0.0320
      2  C         19.8640  -22.7380   -9.7140 C.2     1  UNL1        0.0190
      3  C         20.9650  -22.2800  -10.4450 C.2     1  UNL1        0.0300
      4  C         22.1310  -21.8520   -9.7950 C.2     1  UNL1        0.0350
      5  C         22.1830  -21.8960   -8.4010 C.2     1  UNL1        0.0300
      6  C         21.0860  -22.3570   -7.6640 C.2     1  UNL1        0.0190
      7  N         23.1910  -21.4010  -10.6080 N.am    1  UNL1       -0.3230
      8  C         24.4050  -22.0230  -10.8270 C.2     1  UNL1        0.2570
      9  O         24.7860  -23.1020  -10.3920 O.2     1  UNL1       -0.2670
     10  H         23.0370  -20.5310  -11.1050 H       1  UNL1        0.1690
     11  C         25.2960  -21.2800  -11.7500 C.2     1  UNL1        0.0430
     12  C         26.1540  -20.3410  -11.1590 C.2     1  UNL1        0.0180
     13  C         27.0660  -19.6480  -11.9430 C.2     1  UNL1        0.0020
     14  C         27.1200  -19.8860  -13.3160 C.2     1  UNL1        0.0120
     15  C         26.2520  -20.8060  -13.9300 C.2     1  UNL1       -0.0250
     16  C         26.3120  -21.0160  -15.3180 C.2     1  UNL1        0.0120
     17  C         25.3050  -21.5150  -13.1500 C.2     1  UNL1       -0.0100
     18  C         25.4420  -21.9050  -15.9490 C.2     1  UNL1        0.0010
     19  C         24.4930  -22.5890  -15.2020 C.2     1  UNL1        0.0010
     20  C         24.4200  -22.3940  -13.8210 C.2     1  UNL1        0.0130
     21  C         18.7720  -23.2490   -7.4980 C.2     1  UNL1        0.2560
     22  N         18.1310  -22.2630   -6.7670 N.am    1  UNL1       -0.3220
     23  H         18.5720  -21.3560   -6.7650 H       1  UNL1        0.1690
     24  O         18.5190  -24.4470   -7.5110 O.2     1  UNL1       -0.2670
     25  C         16.9890  -22.3980   -5.9430 C.2     1  UNL1        0.0410
     26  C         15.7370  -22.7640   -6.4510 C.2     1  UNL1        0.0300
     27  C         14.6250  -22.8820   -5.6140 C.2     1  UNL1        0.0020
     28  C         14.7460  -22.6310   -4.2530 C.2     1  UNL1        0.0010
     29  C         15.9820  -22.2610   -3.7290 C.2     1  UNL1        0.0090
     30  C         17.1120  -22.1390   -4.5590 C.2     1  UNL1       -0.0350
     31  C         18.4170  -21.7360   -3.9260 C.3     1  UNL1        0.0500
@<TRIPOS>BOND
     1    18    16    2
     2    18    19    1
     3    16    15    1
     4    19    20    2
     5    15    14    2
     6    15    17    1
     7    20    17    1
     8    14    13    1
     9    17    11    2
    10    13    12    2
    11    11    12    1
    12    11     8    1
    13    10     7    1
    14     8     7   am
    15     8     9    2
    16     7     4    1
    17     3     4    2
    18     3     2    1
    19     4     5    1
    20     2     1    2
    21     5     6    2
    22     1     6    1
    23     1    21    1
    24    24    21    2
    25    21    22   am
    26    22    23    1
    27    22    25    1
    28    26    25    2
    29    26    27    1
    30    25    30    1
    31    27    28    2
    32    30    31    1
    33    30    29    2
    34    28    29    1
