@<TRIPOS>MOLECULE
50675_out_ligand_01.pdbqt
 32 35 0 0 0
SMALL
GASTEIGER

@<TRIPOS>ATOM
      1  C         23.7850  -21.8120  -11.5890 C.2     1  UNL1        0.0320
      2  C         22.5150  -22.1830  -12.0430 C.2     1  UNL1        0.0190
      3  C         21.5130  -22.5370  -11.1320 C.2     1  UNL1        0.0300
      4  C         21.7600  -22.5090   -9.7590 C.2     1  UNL1        0.0350
      5  C         23.0290  -22.1190   -9.3080 C.2     1  UNL1        0.0300
      6  C         24.0360  -21.7680  -10.2140 C.2     1  UNL1        0.0190
      7  N         20.8070  -22.8510   -8.7810 N.am    1  UNL1       -0.3230
      8  C         19.4630  -22.5260   -8.7660 C.2     1  UNL1        0.2570
      9  O         18.8460  -21.8440   -9.5720 O.2     1  UNL1       -0.2670
     10  H         21.1500  -23.3800   -7.9870 H       1  UNL1        0.1690
     11  C         18.7410  -23.0440   -7.5780 C.2     1  UNL1        0.0430
     12  C         18.0800  -24.2680   -7.7440 C.2     1  UNL1        0.0180
     13  C         17.3270  -24.7950   -6.7020 C.2     1  UNL1        0.0020
     14  C         17.2370  -24.1030   -5.4960 C.2     1  UNL1        0.0120
     15  C         17.9120  -22.8850   -5.3020 C.2     1  UNL1       -0.0250
     16  C         17.8220  -22.2140   -4.0720 C.2     1  UNL1        0.0120
     17  C         18.6960  -22.3360   -6.3490 C.2     1  UNL1       -0.0100
     18  C         18.5040  -21.0180   -3.8520 C.2     1  UNL1        0.0010
     19  C         19.2950  -20.4800   -4.8590 C.2     1  UNL1        0.0010
     20  C         19.3940  -21.1320   -6.0890 C.2     1  UNL1        0.0130
     21  C         24.8240  -21.4420  -12.5930 C.2     1  UNL1        0.2560
     22  N         24.3550  -20.7290  -13.6750 N.am    1  UNL1       -0.3210
     23  H         23.3890  -20.4170  -13.6710 H       1  UNL1        0.1690
     24  O         25.9860  -21.7650  -12.3740 O.2     1  UNL1       -0.2670
     25  C         25.0780  -20.2670  -14.7990 C.2     1  UNL1        0.0680
     26  C         25.9430  -19.1720  -14.7630 C.2     1  UNL1        0.0320
     27  C         26.6260  -18.7770  -15.9150 C.2     1  UNL1        0.0020
     28  C         26.4500  -19.4760  -17.1070 C.2     1  UNL1        0.0030
     29  C         25.5910  -20.5760  -17.1540 C.2     1  UNL1        0.0390
     30  C         24.9020  -20.9790  -16.0060 C.2     1  UNL1        0.0950
     31  O         24.0360  -22.0470  -15.9410 O.2     1  UNL1       -0.3540
     32  C         24.5660  -23.3260  -16.2660 C.3     1  UNL1        0.2100
@<TRIPOS>BOND
     1    29    28    2
     2    29    30    1
     3    28    27    1
     4    32    31    1
     5    30    31    1
     6    30    25    2
     7    27    26    2
     8    25    26    1
     9    25    22    1
    10    22    23    1
    11    22    21   am
    12    21    24    2
    13    21     1    1
    14     2     1    2
    15     2     3    1
    16     1     6    1
    17     3     4    2
    18     6     5    2
    19     4     5    1
    20     4     7    1
    21     9     8    2
    22     7     8   am
    23     7    10    1
    24     8    11    1
    25    12    11    2
    26    12    13    1
    27    11    17    1
    28    13    14    2
    29    17    20    1
    30    17    15    2
    31    20    19    2
    32    14    15    1
    33    15    16    1
    34    19    18    1
    35    16    18    2
