@<TRIPOS>MOLECULE
50682_out_ligand_01.pdbqt
 38 42 0 0 0
SMALL
GASTEIGER

@<TRIPOS>ATOM
      1  O         19.1070  -21.0780   -6.1650 O.2     1  UNL1       -0.2670
      2  C         19.2660  -22.2290   -6.5550 C.2     1  UNL1        0.2560
      3  N         18.4810  -23.3160   -6.2290 N.am    1  UNL1       -0.3220
      4  H         18.7810  -24.2300   -6.5660 H       1  UNL1        0.1690
      5  C         20.4400  -22.5230   -7.4360 C.2     1  UNL1        0.0320
      6  C         21.5030  -21.6270   -7.6050 C.2     1  UNL1        0.0170
      7  C         22.5700  -21.9570   -8.4450 C.2     1  UNL1        0.0100
      8  C         22.6060  -23.1910   -9.1120 C.2     1  UNL1       -0.0300
      9  C         21.5460  -24.0900   -8.9280 C.2     1  UNL1        0.0100
     10  C         20.4750  -23.7590   -8.0940 C.2     1  UNL1        0.0170
     11  C         23.7580  -23.5440  -10.0320 C.3     1  UNL1        0.3110
     12  N         24.5420  -22.3740  -10.4590 N.3     1  UNL1        0.0970
     13  C         23.8480  -21.5930  -11.4960 C.3     1  UNL1        0.2770
     14  C         23.6560  -22.3330  -12.8300 C.3     1  UNL1        0.0690
     15  C         24.8840  -23.0970  -13.2540 C.2     1  UNL1       -0.0490
     16  C         24.9660  -23.6270  -14.5480 C.2     1  UNL1        0.0070
     17  C         25.9240  -23.3350  -12.3350 C.2     1  UNL1       -0.0240
     18  C         26.0840  -24.3650  -14.9370 C.2     1  UNL1        0.0010
     19  C         27.1210  -24.5890  -14.0350 C.2     1  UNL1        0.0010
     20  C         27.0440  -24.0740  -12.7410 C.2     1  UNL1        0.0090
     21  C         25.8870  -22.7380  -10.9450 C.3     1  UNL1        0.3110
     22  C         17.2830  -23.3490   -5.4730 C.2     1  UNL1        0.0500
     23  C         17.2740  -23.1860   -4.0820 C.2     1  UNL1        0.0300
     24  C         16.0750  -23.1940   -3.3640 C.2     1  UNL1        0.0020
     25  C         14.8640  -23.3550   -4.0240 C.2     1  UNL1        0.0010
     26  C         14.8460  -23.5200   -5.4080 C.2     1  UNL1        0.0190
     27  C         16.0470  -23.5380   -6.1390 C.2     1  UNL1        0.0580
     28  C         16.0040  -23.7290   -7.6250 C.2     1  UNL1        0.2540
     29  O         15.8590  -24.8550   -8.1010 O.2     1  UNL1       -0.2680
     30  N         16.0790  -22.5930   -8.4060 N.am    1  UNL1       -0.3530
     31  H         15.9200  -21.6940   -7.9760 H       1  UNL1        0.1630
     32  C         15.9730  -22.6530   -9.8500 C.3     1  UNL1        0.1620
     33  C         17.1980  -22.0980  -10.5160 C.2     1  UNL1       -0.0230
     34  C         18.4110  -22.7950  -10.5190 C.2     1  UNL1        0.0120
     35  C         19.5240  -22.2460  -11.1500 C.2     1  UNL1        0.0200
     36  C         19.3890  -21.0110  -11.7580 C.2     1  UNL1        0.1160
     37  N         18.2380  -20.3060  -11.7750 N.2     1  UNL1       -0.2730
     38  C         17.1740  -20.8630  -11.1540 C.2     1  UNL1        0.1240
@<TRIPOS>BOND
     1    18    16    1
     2    18    19    2
     3    16    15    2
     4    19    20    1
     5    15    14    1
     6    15    17    1
     7    14    13    1
     8    20    17    2
     9    17    21    1
    10    37    36    2
    11    37    38    1
    12    36    35    1
    13    13    12    1
    14    38    33    2
    15    35    34    2
    16    21    12    1
    17    34    33    1
    18    33    32    1
    19    12    11    1
    20    11     8    1
    21    32    30    1
    22     8     9    2
    23     8     7    1
    24     9    10    1
    25     7     6    2
    26    30    31    1
    27    30    28   am
    28    29    28    2
    29    10     5    2
    30    28    27    1
    31     6     5    1
    32     5     2    1
    33     4     3    1
    34     2     3   am
    35     2     1    2
    36     3    22    1
    37    27    22    2
    38    27    26    1
    39    22    23    1
    40    26    25    2
    41    23    24    2
    42    25    24    1
