@<TRIPOS>MOLECULE
5068_out_ligand_01.pdbqt
 31 34 0 0 0
SMALL
GASTEIGER

@<TRIPOS>ATOM
      1  N         23.0760  -20.2820  -14.5960 N.1     1  UNL1       -0.1910
      2  C         23.9180  -21.0330  -14.3250 C.1     1  UNL1        0.1020
      3  C         24.9100  -21.9930  -13.9380 C.2     1  UNL1        0.0710
      4  C         26.1260  -22.0070  -14.6380 C.2     1  UNL1        0.0250
      5  C         27.1190  -22.9230  -14.3030 C.2     1  UNL1        0.0020
      6  C         26.8980  -23.8270  -13.2700 C.2     1  UNL1        0.0020
      7  C         25.6870  -23.8180  -12.5670 C.2     1  UNL1        0.0310
      8  C         24.6760  -22.9020  -12.8820 C.2     1  UNL1        0.0550
      9  N         23.4330  -22.8700  -12.1920 N.am    1  UNL1       -0.3220
     10  C         23.1350  -22.1950  -11.0210 C.2     1  UNL1        0.2560
     11  O         23.8740  -21.4380  -10.4030 O.2     1  UNL1       -0.2670
     12  H         22.6550  -23.3370  -12.6440 H       1  UNL1        0.1690
     13  C         21.7460  -22.3940  -10.5120 C.2     1  UNL1        0.0320
     14  C         21.4310  -23.4090   -9.5950 C.2     1  UNL1        0.0180
     15  C         20.1160  -23.5580   -9.1430 C.2     1  UNL1        0.0260
     16  C         19.1230  -22.6870   -9.6050 C.2     1  UNL1        0.0800
     17  C         19.4310  -21.6570  -10.4970 C.2     1  UNL1        0.0260
     18  C         20.7450  -21.5130  -10.9470 C.2     1  UNL1        0.0180
     19  S         17.4530  -22.8930   -9.0080 S.O2    1  UNL1        0.2650
     20  O         16.7980  -23.8540   -9.8720 O.2     1  UNL1       -0.2000
     21  O         16.9340  -21.5500   -8.8550 O.2     1  UNL1       -0.2000
     22  N         17.7160  -23.6300   -7.4680 N.pl3   1  UNL1       -0.2710
     23  C         16.7810  -24.7410   -7.1250 C.3     1  UNL1        0.1420
     24  C         15.5450  -24.2180   -6.4140 C.3     1  UNL1        0.0260
     25  C         15.9340  -23.5250   -5.1200 C.3     1  UNL1        0.0420
     26  C         17.1220  -22.6150   -5.2780 C.2     1  UNL1       -0.0310
     27  C         17.4110  -21.7050   -4.2470 C.2     1  UNL1        0.0090
     28  C         17.9880  -22.7060   -6.3810 C.2     1  UNL1        0.0510
     29  C         18.5450  -20.8960   -4.3090 C.2     1  UNL1        0.0010
     30  C         19.4100  -21.0000   -5.3930 C.2     1  UNL1        0.0020
     31  C         19.1360  -21.9070   -6.4180 C.2     1  UNL1        0.0310
@<TRIPOS>BOND
     1     4     5    1
     2     4     3    2
     3     1     2    3
     4     2     3    1
     5     5     6    2
     6     3     8    1
     7     6     7    1
     8     8     7    2
     9     8     9    1
    10    12     9    1
    11     9    10   am
    12    10    13    1
    13    10    11    2
    14    18    13    2
    15    18    17    1
    16    13    14    1
    17    17    16    2
    18    20    19    2
    19    16    15    1
    20    16    19    1
    21    14    15    2
    22    19    21    2
    23    19    22    1
    24    22    23    1
    25    22    28    1
    26    23    24    1
    27    31    28    1
    28    31    30    2
    29    24    25    1
    30    28    26    2
    31    30    29    1
    32    26    25    1
    33    26    27    1
    34    29    27    2
