@<TRIPOS>MOLECULE
50696_out_ligand_01.pdbqt
 36 39 0 0 0
SMALL
GASTEIGER

@<TRIPOS>ATOM
      1  C         23.7320  -23.3910   -9.2620 C.3     1  UNL1        0.1250
      2  C         24.6620  -23.3080  -10.4590 C.2     1  UNL1        0.2230
      3  N         23.9810  -23.3120  -11.6640 N.am    1  UNL1       -0.3270
      4  H         22.9740  -23.4120  -11.6090 H       1  UNL1        0.1690
      5  O         25.8730  -23.1890  -10.3170 O.2     1  UNL1       -0.2730
      6  C         24.5220  -23.2840  -12.9610 C.2     1  UNL1        0.0350
      7  C         24.9680  -24.4080  -13.6470 C.2     1  UNL1        0.0320
      8  C         25.4550  -24.2950  -14.9550 C.2     1  UNL1        0.0400
      9  C         25.5120  -23.0510  -15.6050 C.2     1  UNL1        0.0840
     10  C         25.0530  -21.9090  -14.9190 C.2     1  UNL1        0.0670
     11  C         24.5700  -22.0430  -13.6010 C.2     1  UNL1        0.0490
     12  O         25.9610  -22.8930  -16.8950 O.2     1  UNL1       -0.3550
     13  C         25.0420  -23.1710  -17.9470 C.3     1  UNL1        0.2100
     14  C         25.0220  -20.5210  -15.4870 C.2     1  UNL1        0.2520
     15  N         24.2200  -20.2690  -16.5580 N.am    1  UNL1       -0.3660
     16  H         24.1710  -19.3280  -16.9110 H       1  UNL1        0.1590
     17  H         23.6140  -20.9850  -16.9360 H       1  UNL1        0.1590
     18  O         25.6960  -19.6180  -15.0030 O.2     1  UNL1       -0.2680
     19  C         23.0210  -22.0680   -9.0210 C.3     1  UNL1        0.1640
     20  N         21.5690  -22.0960   -9.1800 N.ar    1  UNL1       -0.2330
     21  N         20.8170  -22.4460   -8.0900 N.ar    1  UNL1       -0.1680
     22  C         19.5210  -22.4610   -8.1790 C.ar    1  UNL1        0.0980
     23  C         18.7950  -22.0930   -9.4130 C.ar    1  UNL1        0.0110
     24  C         17.4000  -21.9750   -9.4860 C.2     1  UNL1        0.0150
     25  C         19.5640  -21.8040  -10.5350 C.ar    1  UNL1        0.0460
     26  C         16.7860  -21.5900  -10.6820 C.2     1  UNL1        0.0010
     27  C         17.5620  -21.3130  -11.8070 C.2     1  UNL1        0.0010
     28  C         18.9510  -21.4220  -11.7380 C.2     1  UNL1        0.0180
     29  C         21.0350  -21.8420  -10.4400 C.ar    1  UNL1        0.2740
     30  O         21.7140  -21.6300  -11.4450 O.2     1  UNL1       -0.2660
     31  C         18.7830  -22.8550   -6.9570 C.2     1  UNL1       -0.0050
     32  C         18.1890  -24.1210   -6.9150 C.2     1  UNL1        0.0140
     33  C         17.4470  -24.5010   -5.7970 C.2     1  UNL1        0.0010
     34  C         17.3020  -23.6200   -4.7260 C.2     1  UNL1        0.0000
     35  C         17.8870  -22.3530   -4.7730 C.2     1  UNL1        0.0010
     36  C         18.6210  -21.9610   -5.8940 C.2     1  UNL1        0.0140
@<TRIPOS>BOND
     1    13    12    1
     2    17    15    1
     3    16    15    1
     4    12     9    1
     5    15    14   am
     6     9     8    2
     7     9    10    1
     8    14    18    2
     9    14    10    1
    10     8     7    1
    11    10    11    2
    12     7     6    2
    13    11     6    1
    14     6     3    1
    15    27    28    2
    16    27    26    1
    17    28    25    1
    18     3     4    1
    19     3     2   am
    20    30    29    2
    21    26    24    2
    22    25    29   ar
    23    25    23   ar
    24     2     5    2
    25     2     1    1
    26    29    20   ar
    27    24    23    1
    28    23    22   ar
    29     1    19    1
    30    20    19    1
    31    20    21   ar
    32    22    21   ar
    33    22    31    1
    34    31    32    2
    35    31    36    1
    36    32    33    1
    37    36    35    2
    38    33    34    2
    39    35    34    1
