@<TRIPOS>MOLECULE
50703_out_ligand_01.pdbqt
 32 35 0 0 0
SMALL
GASTEIGER

@<TRIPOS>ATOM
      1  C         17.4330  -23.2190   -8.9190 C.2     1  UNL1        0.0860
      2  C         18.8240  -23.3940   -9.0180 C.2     1  UNL1        0.0420
      3  C         19.5520  -22.7550  -10.0250 C.2     1  UNL1        0.0330
      4  C         18.8900  -21.9360  -10.9410 C.2     1  UNL1        0.0170
      5  C         17.5020  -21.7850  -10.8620 C.2     1  UNL1        0.0090
      6  C         16.7500  -22.4270   -9.8600 C.2     1  UNL1       -0.0390
      7  C         15.2610  -22.2230   -9.8650 C.3     1  UNL1        0.0500
      8  C         21.0290  -22.9330  -10.0500 C.2     1  UNL1        0.2560
      9  O         21.5390  -23.6040   -9.1610 O.2     1  UNL1       -0.2670
     10  N         21.6690  -22.3310  -11.1170 N.am    1  UNL1       -0.3230
     11  H         21.0830  -21.9190  -11.8310 H       1  UNL1        0.1690
     12  C         23.0570  -22.3090  -11.3770 C.2     1  UNL1        0.0370
     13  C         23.8570  -21.5400  -10.5000 C.2     1  UNL1        0.0320
     14  C         25.2430  -21.4540  -10.6690 C.2     1  UNL1        0.0420
     15  C         25.8010  -22.1450  -11.7190 C.2     1  UNL1        0.1050
     16  C         25.0320  -22.8960  -12.5750 C.2     1  UNL1        0.1070
     17  O         27.1210  -22.1780  -12.0390 O.2     1  UNL1       -0.3230
     18  C         23.6620  -23.0010  -12.4310 C.2     1  UNL1        0.0690
     19  O         25.7760  -23.4980  -13.5430 O.2     1  UNL1       -0.3230
     20  C         27.0960  -23.0240  -13.2070 C.3     1  UNL1        0.3520
     21  S         16.6420  -24.0750   -7.5600 S.O2    1  UNL1        0.2630
     22  O         15.4900  -24.8070   -8.0340 O.2     1  UNL1       -0.2000
     23  O         17.6950  -24.7570   -6.8350 O.2     1  UNL1       -0.2000
     24  N         16.1270  -22.8190   -6.5570 N.pl3   1  UNL1       -0.2800
     25  H         15.1180  -22.8240   -6.4170 H       1  UNL1        0.1790
     26  C         16.9570  -22.3250   -5.5090 C.2     1  UNL1        0.0480
     27  C         18.0540  -21.5120   -5.8090 C.2     1  UNL1        0.0300
     28  C         18.8780  -21.0250   -4.7930 C.2     1  UNL1        0.0020
     29  C         18.6010  -21.3380   -3.4670 C.2     1  UNL1        0.0010
     30  C         17.4950  -22.1280   -3.1560 C.2     1  UNL1        0.0090
     31  C         16.6550  -22.6230   -4.1680 C.2     1  UNL1       -0.0350
     32  C         15.4580  -23.4440   -3.7760 C.3     1  UNL1        0.0500
@<TRIPOS>BOND
     1    19    20    1
     2    19    16    1
     3    20    17    1
     4    16    18    1
     5    16    15    2
     6    18    12    2
     7    17    15    1
     8    11    10    1
     9    15    14    1
    10    12    10    1
    11    12    13    1
    12    10     8   am
    13     4     5    2
    14     4     3    1
    15     5     6    1
    16    14    13    2
    17     8     3    1
    18     8     9    2
    19     3     2    2
    20     7     6    1
    21     6     1    2
    22     2     1    1
    23     1    21    1
    24    22    21    2
    25    21    23    2
    26    21    24    1
    27    24    25    1
    28    24    26    1
    29    27    26    2
    30    27    28    1
    31    26    31    1
    32    28    29    2
    33    31    32    1
    34    31    30    2
    35    29    30    1
