@<TRIPOS>MOLECULE
50701_out_ligand_01.pdbqt
 30 33 0 0 0
SMALL
GASTEIGER

@<TRIPOS>ATOM
      1  C         20.7370  -21.1090  -11.5190 C.3     1  UNL1        0.2130
      2  C         19.1970  -21.2760  -11.6360 C.2     1  UNL1        0.2520
      3  O         18.4660  -20.6560  -12.3980 O.2     1  UNL1       -0.2700
      4  N         18.8190  -22.3110  -10.7730 N.am    1  UNL1       -0.3150
      5  C         19.9430  -22.8920  -10.1690 C.2     1  UNL1        0.0460
      6  C         20.0040  -23.9500   -9.2830 C.2     1  UNL1        0.0310
      7  C         21.2630  -24.3650   -8.8350 C.2     1  UNL1        0.0090
      8  C         22.4390  -23.7240   -9.2720 C.2     1  UNL1       -0.0610
      9  C         23.7750  -24.1630   -8.7460 C.3     1  UNL1        0.0480
     10  C         22.3520  -22.6360  -10.1530 C.2     1  UNL1        0.0180
     11  C         21.1000  -22.2410  -10.6020 C.2     1  UNL1        0.0010
     12  C         17.4560  -22.7770  -10.6310 C.3     1  UNL1        0.1340
     13  C         16.7500  -22.2320   -9.3840 C.3     1  UNL1        0.0470
     14  C         15.9020  -23.2710   -8.6550 C.3     1  UNL1        0.1770
     15  O         16.6890  -23.8570   -7.6200 O.2     1  UNL1       -0.3500
     16  C         16.4520  -23.4450   -6.3300 C.2     1  UNL1        0.0790
     17  C         15.3510  -23.8570   -5.5720 C.2     1  UNL1        0.0370
     18  C         15.1880  -23.4030   -4.2630 C.2     1  UNL1        0.0040
     19  C         16.1200  -22.5310   -3.7040 C.2     1  UNL1        0.0120
     20  C         17.2260  -22.0930   -4.4470 C.2     1  UNL1       -0.0230
     21  C         18.1610  -21.2100   -3.8800 C.2     1  UNL1        0.0120
     22  C         17.3990  -22.5440   -5.7780 C.2     1  UNL1        0.0070
     23  C         19.2640  -20.7680   -4.6110 C.2     1  UNL1        0.0010
     24  C         19.4440  -21.2000   -5.9180 C.2     1  UNL1        0.0010
     25  C         18.5230  -22.0760   -6.4950 C.2     1  UNL1        0.0150
     26  N         21.3380  -21.1990  -12.8370 N.am    1  UNL1       -0.3440
     27  C         22.6960  -21.1090  -13.0030 C.2     1  UNL1        0.2140
     28  C         23.1400  -21.0750  -14.4400 C.3     1  UNL1        0.1170
     29  O         23.4940  -21.0550  -12.0730 O.2     1  UNL1       -0.2740
     30  H         20.7380  -20.9890  -13.6250 H       1  UNL1        0.1630
@<TRIPOS>BOND
     1    28    27    1
     2    30    26    1
     3    27    26   am
     4    27    29    2
     5    26     1    1
     6     3     2    2
     7     2     1    1
     8     2     4   am
     9     1    11    1
    10     4    12    1
    11     4     5    1
    12    12    13    1
    13    11     5    2
    14    11    10    1
    15     5     6    1
    16    10     8    2
    17    13    14    1
    18     6     7    2
    19     8     7    1
    20     8     9    1
    21    14    15    1
    22    15    16    1
    23    25    24    2
    24    25    22    1
    25    16    22    2
    26    16    17    1
    27    24    23    1
    28    22    20    1
    29    17    18    2
    30    23    21    2
    31    20    21    1
    32    20    19    2
    33    18    19    1
