@<TRIPOS>MOLECULE
50713_out_ligand_01.pdbqt
 34 38 0 0 0
SMALL
GASTEIGER

@<TRIPOS>ATOM
      1  N         22.9810  -22.7570   -9.2170 N.pl3   1  UNL1       -0.3400
      2  H         23.4770  -22.0720   -8.6430 H       1  UNL1        0.1670
      3  C         23.1720  -22.6410  -10.5630 C.ar    1  UNL1        0.1440
      4  N         24.4030  -22.8050  -11.1700 N.ar    1  UNL1       -0.2880
      5  C         25.6640  -23.1380  -10.6990 C.2     1  UNL1        0.1190
      6  C         24.2300  -22.5230  -12.5020 C.ar    1  UNL1        0.1530
      7  C         26.6790  -23.2050  -11.5780 C.2     1  UNL1        0.1340
      8  N         26.5510  -22.9550  -12.9360 N.2     1  UNL1       -0.2680
      9  C         25.3660  -22.6230  -13.3770 C.2     1  UNL1        0.1670
     10  N         23.0050  -22.1600  -12.7980 N.ar    1  UNL1       -0.2250
     11  C         22.3310  -22.2300  -11.5940 C.ar    1  UNL1        0.1140
     12  C         20.9250  -21.8880  -11.4710 C.2     1  UNL1       -0.0040
     13  C         19.9540  -22.8620  -11.2090 C.2     1  UNL1        0.0140
     14  C         18.6060  -22.5070  -11.0890 C.2     1  UNL1        0.0070
     15  C         18.2100  -21.1720  -11.2260 C.2     1  UNL1       -0.0620
     16  C         16.7610  -20.7950  -11.1320 C.3     1  UNL1        0.0480
     17  C         19.1760  -20.2030  -11.5200 C.2     1  UNL1        0.0070
     18  C         20.5220  -20.5590  -11.6430 C.2     1  UNL1        0.0140
     19  C         21.7440  -23.0630   -8.5920 C.2     1  UNL1        0.0330
     20  C         20.9970  -22.1380   -7.8510 C.2     1  UNL1        0.0300
     21  C         19.7610  -22.4920   -7.2980 C.2     1  UNL1        0.0190
     22  C         19.2510  -23.7810   -7.4770 C.2     1  UNL1        0.0320
     23  C         19.9710  -24.7070   -8.2370 C.2     1  UNL1        0.0190
     24  C         21.2060  -24.3440   -8.7890 C.2     1  UNL1        0.0300
     25  C         17.9320  -24.1110   -6.8730 C.2     1  UNL1        0.2510
     26  O         17.8030  -25.1270   -6.2000 O.2     1  UNL1       -0.2680
     27  N         16.9020  -23.2360   -7.1400 N.am    1  UNL1       -0.3540
     28  H         17.0310  -22.5100   -7.8310 H       1  UNL1        0.1620
     29  C         15.5490  -23.4750   -6.6680 C.3     1  UNL1        0.1550
     30  C         15.3220  -23.0150   -5.2260 C.3     1  UNL1        0.1390
     31  C         16.4040  -22.1030   -4.6680 C.3     1  UNL1        0.0350
     32  C         16.2870  -22.3620   -3.1870 C.3     1  UNL1        0.0290
     33  C         16.0060  -23.8480   -3.1540 C.3     1  UNL1        0.1680
     34  O         15.2710  -24.1590   -4.3470 O.3     1  UNL1       -0.3840
@<TRIPOS>BOND
     1     9     8    2
     2     9     6    1
     3     8     7    1
     4    10     6   ar
     5    10    11   ar
     6     6     4   ar
     7    18    17    1
     8    18    12    2
     9    11    12    1
    10    11     3   ar
    11     7     5    2
    12    17    15    2
    13    12    13    1
    14    15    16    1
    15    15    14    1
    16    13    14    2
    17     4     5    1
    18     4     3   ar
    19     3     1    1
    20     1     2    1
    21     1    19    1
    22    24    19    2
    23    24    23    1
    24    19    20    1
    25    23    22    2
    26    20    21    2
    27    28    27    1
    28    22    21    1
    29    22    25    1
    30    27    25   am
    31    27    29    1
    32    25    26    2
    33    29    30    1
    34    30    31    1
    35    30    34    1
    36    31    32    1
    37    34    33    1
    38    32    33    1
