@<TRIPOS>MOLECULE
50793_out_ligand_01.pdbqt
 34 37 0 0 0
SMALL
GASTEIGER

@<TRIPOS>ATOM
      1  S         22.4520  -23.1920   -9.3150 S.3     1  UNL1       -0.1000
      2  C         23.6020  -22.7120  -10.5660 C.2     1  UNL1        0.1090
      3  N         24.9110  -22.9340  -10.3120 N.2     1  UNL1       -0.2340
      4  C         25.7950  -22.6050  -11.2680 C.2     1  UNL1        0.2350
      5  N         25.5320  -22.0850  -12.4660 N.2     1  UNL1       -0.2340
      6  C         24.2230  -21.8780  -12.6710 C.2     1  UNL1        0.1120
      7  S         23.6900  -21.2170  -14.1490 S.3     1  UNL1       -0.0800
      8  C         23.1880  -22.1480  -11.7830 C.2     1  UNL1        0.0470
      9  C         22.0650  -21.2330  -13.6370 C.2     1  UNL1        0.0650
     10  C         21.9240  -21.7390  -12.3570 C.2     1  UNL1       -0.0030
     11  C         20.6030  -21.7460  -11.7480 C.2     1  UNL1       -0.0240
     12  C         19.8010  -20.5990  -11.8230 C.2     1  UNL1        0.0130
     13  C         18.5270  -20.5960  -11.2490 C.2     1  UNL1        0.0070
     14  C         18.0370  -21.7390  -10.6040 C.2     1  UNL1       -0.0620
     15  C         16.6770  -21.7340   -9.9630 C.3     1  UNL1        0.0480
     16  C         18.8500  -22.8770  -10.5190 C.2     1  UNL1        0.0070
     17  C         20.1270  -22.8850  -11.0940 C.2     1  UNL1        0.0130
     18  C         22.6010  -21.7560   -8.2080 C.3     1  UNL1        0.1840
     19  C         21.3940  -21.6070   -7.2920 C.2     1  UNL1        0.2310
     20  O         21.3890  -20.7470   -6.4140 O.2     1  UNL1       -0.2720
     21  N         20.3970  -22.5430   -7.5120 N.am    1  UNL1       -0.3270
     22  H         20.5250  -23.1360   -8.3300 H       1  UNL1        0.1690
     23  C         19.2040  -22.7300   -6.7860 C.2     1  UNL1        0.0340
     24  C         18.7090  -21.8140   -5.8530 C.2     1  UNL1        0.0310
     25  C         17.5210  -22.0780   -5.1600 C.2     1  UNL1        0.0270
     26  C         16.8220  -23.2600   -5.4090 C.2     1  UNL1        0.0740
     27  C         17.3090  -24.1910   -6.3260 C.2     1  UNL1        0.0270
     28  C         18.4980  -23.9210   -7.0110 C.2     1  UNL1        0.0310
     29  S         15.3180  -23.5910   -4.5260 S.O2    1  UNL1        0.2390
     30  O         15.6060  -24.5090   -3.4500 O.2     1  UNL1       -0.2060
     31  O         14.2670  -23.8300   -5.4900 O.2     1  UNL1       -0.2060
     32  N         14.9840  -22.0900   -3.8490 N.3     1  UNL1       -0.2250
     33  H         14.7820  -22.1280   -2.8480 H       1  UNL1        0.1360
     34  H         15.7550  -21.4510   -4.0520 H       1  UNL1        0.1360
@<TRIPOS>BOND
     1     7     9    1
     2     7     6    1
     3     9    10    2
     4     6     5    2
     5     6     8    1
     6     5     4    1
     7    10     8    1
     8    10    11    1
     9    12    11    2
    10    12    13    1
    11     8     2    2
    12    11    17    1
    13     4     3    2
    14    13    14    2
    15    17    16    2
    16    14    16    1
    17    14    15    1
    18     2     3    1
    19     2     1    1
    20     1    18    1
    21    22    21    1
    22    18    19    1
    23    21    19   am
    24    21    23    1
    25    19    20    2
    26    28    23    2
    27    28    27    1
    28    23    24    1
    29    27    26    2
    30    24    25    2
    31    31    29    2
    32    26    25    1
    33    26    29    1
    34    29    32    1
    35    29    30    2
    36    34    32    1
    37    32    33    1
