@<TRIPOS>MOLECULE
507_out_ligand_01.pdbqt
 37 40 0 0 0
SMALL
GASTEIGER

@<TRIPOS>ATOM
      1  N         21.8290  -22.1840  -11.8730 N.am    1  UNL1       -0.3230
      2  C         21.7940  -22.6850  -10.5850 C.2     1  UNL1        0.2560
      3  O         22.7520  -22.9500   -9.8690 O.2     1  UNL1       -0.2670
      4  H         20.9500  -21.8770  -12.2700 H       1  UNL1        0.1690
      5  C         20.4270  -22.8630  -10.0220 C.2     1  UNL1        0.0320
      6  C         19.3590  -22.1880  -10.6300 C.2     1  UNL1        0.0180
      7  C         18.0620  -22.3320  -10.1330 C.2     1  UNL1        0.0260
      8  C         17.8370  -23.1560   -9.0260 C.2     1  UNL1        0.0790
      9  C         18.9020  -23.8010   -8.3850 C.2     1  UNL1        0.0260
     10  C         20.1980  -23.6550   -8.8860 C.2     1  UNL1        0.0180
     11  S         16.1870  -23.3510   -8.3860 S.O2    1  UNL1        0.2630
     12  O         16.0970  -24.6590   -7.7720 O.2     1  UNL1       -0.2000
     13  O         15.2690  -22.9440   -9.4280 O.2     1  UNL1       -0.2000
     14  N         16.0980  -22.1620   -7.1870 N.pl3   1  UNL1       -0.2790
     15  H         16.6270  -21.3290   -7.4550 H       1  UNL1        0.1790
     16  C         16.2070  -22.5570   -5.8140 C.2     1  UNL1        0.0640
     17  C         15.1530  -23.2350   -5.2000 C.2     1  UNL1        0.0320
     18  C         15.2670  -23.6600   -3.8750 C.2     1  UNL1        0.0020
     19  C         16.4360  -23.4070   -3.1560 C.2     1  UNL1        0.0020
     20  C         17.4930  -22.7270   -3.7610 C.2     1  UNL1        0.0260
     21  C         17.3800  -22.3010   -5.0850 C.2     1  UNL1        0.0610
     22 CL         18.7120  -21.4680   -5.8040 Cl      1  UNL1       -0.0820
     23  C         22.9690  -21.9580  -12.6700 C.2     1  UNL1        0.0350
     24  C         24.1260  -22.6820  -12.3540 C.2     1  UNL1        0.0310
     25  C         25.3020  -22.5070  -13.0940 C.2     1  UNL1        0.0210
     26  C         25.3410  -21.6090  -14.1630 C.2     1  UNL1        0.0050
     27  C         24.1920  -20.8750  -14.4660 C.2     1  UNL1        0.0210
     28  C         23.0150  -21.0520  -13.7290 C.2     1  UNL1        0.0310
     29  S         26.8730  -21.4120  -15.0580 S.3     1  UNL1       -0.0900
     30  C         26.5410  -19.9800  -16.0830 C.2     1  UNL1        0.0120
     31  C         25.9270  -20.0570  -17.3470 C.2     1  UNL1       -0.0450
     32  C         25.6870  -18.8680  -18.0570 C.2     1  UNL1        0.0090
     33  C         25.4790  -21.3590  -17.9560 C.3     1  UNL1        0.0490
     34  C         26.0770  -17.6300  -17.5410 C.2     1  UNL1        0.0070
     35  C         26.7240  -17.5520  -16.3060 C.2     1  UNL1       -0.0610
     36  C         27.1200  -16.2220  -15.7340 C.3     1  UNL1        0.0480
     37  C         26.9420  -18.7290  -15.5810 C.2     1  UNL1        0.0260
@<TRIPOS>BOND
     1    32    34    2
     2    32    31    1
     3    33    31    1
     4    34    35    1
     5    31    30    2
     6    35    36    1
     7    35    37    2
     8    30    37    1
     9    30    29    1
    10    29    26    1
    11    27    26    2
    12    27    28    1
    13    26    25    1
    14    28    23    2
    15    25    24    2
    16    23    24    1
    17    23     1    1
    18     4     1    1
    19     1     2   am
    20     6     7    1
    21     6     5    2
    22     2     5    1
    23     2     3    2
    24     7     8    2
    25     5    10    1
    26    13    11    2
    27     8    11    1
    28     8     9    1
    29    10     9    2
    30    11    12    2
    31    11    14    1
    32    15    14    1
    33    14    16    1
    34    16    17    2
    35    16    21    1
    36    22    21    1
    37    17    18    1
    38    21    20    2
    39    18    19    2
    40    20    19    1
