@<TRIPOS>MOLECULE
50800_out_ligand_01.pdbqt
 31 34 0 0 0
SMALL
GASTEIGER

@<TRIPOS>ATOM
      1  C         23.8180  -21.9770  -13.1950 C.2     1  UNL1        0.0540
      2  C         24.9160  -21.8910  -14.0650 C.2     1  UNL1        0.0190
      3  C         26.0010  -22.7570  -13.9110 C.2     1  UNL1        0.0010
      4  C         25.9930  -23.7130  -12.8980 C.2     1  UNL1        0.0020
      5  C         24.8990  -23.8120  -12.0350 C.2     1  UNL1        0.0250
      6  C         23.8060  -22.9560  -12.1850 C.2     1  UNL1        0.0380
      7  N         22.7380  -23.0350  -11.2280 N.pl3   1  UNL1       -0.1800
      8  H         21.9270  -22.4450  -11.4730 H       1  UNL1        0.1460
      9  S         23.1520  -22.6910   -9.6150 S.O2    1  UNL1        0.2450
     10  O         24.1860  -23.6080   -9.1820 O.2     1  UNL1       -0.2060
     11  O         23.3310  -21.2580   -9.5210 O.2     1  UNL1       -0.2060
     12  C         21.6490  -23.0780   -8.7540 C.2     1  UNL1        0.0750
     13  C         21.0350  -24.3110   -8.9780 C.2     1  UNL1        0.0260
     14  C         19.8570  -24.6230   -8.2970 C.2     1  UNL1        0.0140
     15  C         19.2840  -23.7090   -7.3970 C.2     1  UNL1       -0.0260
     16  C         18.1030  -24.0130   -6.7040 C.2     1  UNL1        0.0120
     17  C         19.9080  -22.4550   -7.1860 C.2     1  UNL1       -0.0250
     18  C         17.5400  -23.0950   -5.8150 C.2     1  UNL1        0.0010
     19  C         18.1520  -21.8620   -5.6080 C.2     1  UNL1        0.0010
     20  C         19.3280  -21.5430   -6.2880 C.2     1  UNL1        0.0120
     21  C         21.0900  -22.1460   -7.8740 C.2     1  UNL1        0.0370
     22  C         22.6470  -21.0760  -13.3680 C.2     1  UNL1        0.2530
     23  O         22.5980  -20.3170  -14.3330 O.2     1  UNL1       -0.2680
     24  N         21.6530  -21.1710  -12.4220 N.am    1  UNL1       -0.3510
     25  H         21.6040  -22.0120  -11.8590 H       1  UNL1        0.1630
     26  C         20.4030  -20.4730  -12.6110 C.3     1  UNL1        0.1870
     27  C         19.3510  -21.1810  -11.8430 C.2     1  UNL1        0.0700
     28  C         19.3190  -22.3800  -11.1630 C.2     1  UNL1        0.0360
     29  C         18.0120  -22.5060  -10.6330 C.2     1  UNL1        0.0270
     30  C         17.3310  -21.3780  -11.0220 C.2     1  UNL1        0.1420
     31  O         18.1330  -20.5690  -11.7620 O.2     1  UNL1       -0.3250
@<TRIPOS>BOND
     1    23    22    2
     2     2     3    1
     3     2     1    2
     4     3     4    2
     5    22     1    1
     6    22    24   am
     7     1     6    1
     8     4     5    1
     9    26    24    1
    10    26    27    1
    11    24    25    1
    12     6     5    2
    13     6     7    1
    14    27    31    1
    15    27    28    2
    16    31    30    1
    17     8     7    1
    18     7     9    1
    19    28    29    1
    20    30    29    2
    21     9    11    2
    22     9    10    2
    23     9    12    1
    24    13    12    2
    25    13    14    1
    26    12    21    1
    27    14    15    2
    28    21    17    2
    29    15    17    1
    30    15    16    1
    31    17    20    1
    32    16    18    2
    33    20    19    2
    34    18    19    1
