@<TRIPOS>MOLECULE
50832_out_ligand_01.pdbqt
 27 30 0 0 0
SMALL
GASTEIGER

@<TRIPOS>ATOM
      1  C         17.8440  -22.3180  -10.4180 C.2     1  UNL1       -0.0400
      2  C         18.1810  -21.3090  -11.3290 C.2     1  UNL1        0.0100
      3  C         19.5080  -21.1390  -11.7410 C.2     1  UNL1        0.0160
      4  C         20.5260  -21.9680  -11.2470 C.2     1  UNL1        0.0170
      5  C         20.1830  -22.9710  -10.3310 C.2     1  UNL1        0.0160
      6  C         18.8590  -23.1440   -9.9180 C.2     1  UNL1        0.0100
      7  C         16.4250  -22.4850   -9.9380 C.3     1  UNL1        0.1610
      8  N         16.3400  -22.2480   -8.5170 N.am    1  UNL1       -0.3530
      9  C         16.2080  -23.2800   -7.6170 C.2     1  UNL1        0.2530
     10  O         15.9760  -24.4400   -7.9380 O.2     1  UNL1       -0.2680
     11  H         16.6420  -21.3440   -8.1790 H       1  UNL1        0.1630
     12  C         16.2910  -22.9210   -6.1790 C.2     1  UNL1        0.0490
     13  C         15.1410  -23.1760   -5.4140 C.2     1  UNL1        0.0180
     14  C         15.1070  -22.8650   -4.0540 C.2     1  UNL1        0.0010
     15  C         16.2240  -22.3030   -3.4430 C.2     1  UNL1        0.0010
     16  C         17.3800  -22.0620   -4.1890 C.2     1  UNL1        0.0200
     17  C         17.4220  -22.3740   -5.5560 C.2     1  UNL1        0.0260
     18 BR         19.0750  -22.0740   -6.4430 Br      1  UNL1       -0.0500
     19  C         21.9210  -21.8120  -11.6580 C.2     1  UNL1        0.1820
     20  N         22.4130  -21.6680  -12.8770 N.2     1  UNL1       -0.2010
     21  C         23.7570  -21.5670  -12.6670 C.2     1  UNL1        0.1860
     22  N         24.7100  -21.4050  -13.6140 N.2     1  UNL1       -0.2390
     23  C         24.0390  -21.6540  -11.3150 C.2     1  UNL1        0.1250
     24  C         25.9670  -21.3360  -13.1150 C.2     1  UNL1        0.1190
     25  C         26.3160  -21.4170  -11.7650 C.3     1  UNL1        0.0220
     26  C         25.3220  -21.5840  -10.7990 C.2     1  UNL1        0.0430
     27  O         22.8610  -21.8130  -10.6510 O.2     1  UNL1       -0.2870
@<TRIPOS>BOND
     1    22    24    2
     2    22    21    1
     3    24    25    1
     4    20    21    2
     5    20    19    2
     6    21    23    1
     7    25    26    1
     8     3     2    1
     9     3     4    2
    10    19     4    1
    11    19    27    1
    12     2     1    2
    13    23    26    2
    14    23    27    1
    15     4     5    1
    16     1     7    1
    17     1     6    1
    18     5     6    2
    19     7     8    1
    20     8    11    1
    21     8     9   am
    22    10     9    2
    23     9    12    1
    24    18    17    1
    25    12    17    2
    26    12    13    1
    27    17    16    1
    28    13    14    2
    29    16    15    2
    30    14    15    1
