@<TRIPOS>MOLECULE
50879_out_ligand_01.pdbqt
 35 38 0 0 0
SMALL
GASTEIGER

@<TRIPOS>ATOM
      1  N         23.5980  -22.7230  -11.9000 N.am    1  UNL1       -0.3230
      2  C         23.5570  -21.9670  -10.7440 C.2     1  UNL1        0.2560
      3  O         24.4170  -21.1930  -10.3410 O.2     1  UNL1       -0.2670
      4  H         22.7520  -23.2100  -12.1660 H       1  UNL1        0.1690
      5  C         22.3010  -22.1040   -9.9500 C.2     1  UNL1        0.0320
      6  C         22.3180  -22.3100   -8.5650 C.2     1  UNL1        0.0180
      7  C         21.1150  -22.4360   -7.8610 C.2     1  UNL1        0.0130
      8  C         19.8820  -22.3510   -8.5270 C.2     1  UNL1       -0.0200
      9  C         19.8740  -22.1190   -9.9100 C.2     1  UNL1        0.0130
     10  C         21.0740  -21.9930  -10.6150 C.2     1  UNL1        0.0180
     11  C         18.6120  -22.4960   -7.7860 C.2     1  UNL1        0.0510
     12  C         18.6120  -22.2790   -6.4590 C.2     1  UNL1        0.0320
     13  C         17.3900  -22.4180   -5.6850 C.2     1  UNL1       -0.0010
     14  C         17.3560  -22.1930   -4.3060 C.2     1  UNL1        0.0140
     15  C         16.2190  -22.7860   -6.3350 C.2     1  UNL1        0.0890
     16  C         16.1540  -22.3380   -3.6040 C.2     1  UNL1        0.0010
     17  C         14.9870  -22.7100   -4.2750 C.2     1  UNL1        0.0030
     18  C         15.0160  -22.9360   -5.6500 C.2     1  UNL1        0.0380
     19  O         16.2100  -23.0250   -7.7190 O.3     1  UNL1       -0.2740
     20  C         17.3610  -22.9020   -8.4930 C.2     1  UNL1        0.2990
     21  O         17.3310  -23.1200   -9.7000 O.2     1  UNL1       -0.2590
     22  C         24.6640  -22.8280  -12.8210 C.2     1  UNL1        0.0370
     23  C         25.6110  -23.8500  -12.8020 C.2     1  UNL1        0.0290
     24  C         26.6300  -23.8810  -13.7550 C.2     1  UNL1        0.0040
     25  C         26.7060  -22.8900  -14.7340 C.2     1  UNL1        0.0290
     26  C         25.7630  -21.8590  -14.7740 C.2     1  UNL1        0.0360
     27  C         24.7470  -21.8380  -13.8130 C.2     1  UNL1        0.0590
     28  N         25.9050  -20.8960  -15.7950 N.am    1  UNL1       -0.3270
     29  C         25.1510  -20.7720  -16.9530 C.2     1  UNL1        0.2220
     30  O         24.2210  -21.4920  -17.2970 O.2     1  UNL1       -0.2730
     31  H         26.6480  -20.2210  -15.6640 H       1  UNL1        0.1690
     32  C         25.6230  -19.5960  -17.7950 C.3     1  UNL1        0.1030
     33  C         26.9080  -18.9690  -17.2570 C.3     1  UNL1        0.0090
     34  C         26.6810  -17.5210  -16.8220 C.3     1  UNL1       -0.0040
     35  C         26.8490  -17.3580  -15.3200 C.3     1  UNL1        0.0050
@<TRIPOS>BOND
     1    32    33    1
     2    32    29    1
     3    30    29    2
     4    33    34    1
     5    29    28   am
     6    34    35    1
     7    28    31    1
     8    28    26    1
     9    26    25    2
    10    26    27    1
    11    25    24    1
    12    27    22    2
    13    24    23    2
    14    22    23    1
    15    22     1    1
    16     4     1    1
    17     1     2   am
    18     2     3    2
    19     2     5    1
    20    10     5    2
    21    10     9    1
    22     5     6    1
    23     9     8    2
    24    21    20    2
    25     6     7    2
    26     8     7    1
    27     8    11    1
    28    20    11    1
    29    20    19    1
    30    11    12    2
    31    19    15    1
    32    12    13    1
    33    15    13    2
    34    15    18    1
    35    13    14    1
    36    18    17    2
    37    14    16    2
    38    17    16    1
