@<TRIPOS>MOLECULE
50907_out_ligand_01.pdbqt
 42 45 0 0 0
SMALL
GASTEIGER

@<TRIPOS>ATOM
      1  C         21.3910  -21.8410   -7.6610 C.2     1  UNL1        0.2560
      2  O         22.2510  -21.0350   -7.3260 O.2     1  UNL1       -0.2670
      3  N         21.4290  -22.6950   -8.7490 N.am    1  UNL1       -0.3230
      4  H         20.6770  -23.3680   -8.8320 H       1  UNL1        0.1690
      5  C         20.1730  -21.9570   -6.8130 C.2     1  UNL1        0.0340
      6  C         19.2490  -22.9910   -6.9940 C.2     1  UNL1        0.0470
      7  C         18.1110  -23.0600   -6.1850 C.2     1  UNL1        0.0490
      8  C         17.8810  -22.0990   -5.1870 C.2     1  UNL1       -0.0350
      9  C         18.8030  -21.0520   -5.0350 C.2     1  UNL1        0.0100
     10  C         16.6470  -22.1120   -4.3270 C.3     1  UNL1        0.0500
     11  C         19.9380  -20.9790   -5.8440 C.2     1  UNL1        0.0180
     12  N         17.1710  -24.0980   -6.4420 N.pl3   1  UNL1       -0.2800
     13  H         16.8210  -24.6330   -5.6450 H       1  UNL1        0.1790
     14  S         15.9260  -23.7960   -7.5490 S.O2    1  UNL1        0.2630
     15  O         15.4850  -25.0970   -8.0080 O.2     1  UNL1       -0.2000
     16  O         14.9920  -22.8480   -6.9860 O.2     1  UNL1       -0.2000
     17  C         16.7880  -23.0230   -8.8930 C.2     1  UNL1        0.0790
     18  C         17.8730  -23.6780   -9.4810 C.2     1  UNL1        0.0260
     19  C         18.5450  -23.0750  -10.5440 C.2     1  UNL1        0.0080
     20  C         18.1270  -21.8300  -11.0350 C.2     1  UNL1       -0.0620
     21  C         18.8610  -21.1750  -12.1690 C.3     1  UNL1        0.0480
     22  C         17.0390  -21.1830  -10.4330 C.2     1  UNL1        0.0080
     23  C         16.3600  -21.7820   -9.3700 C.2     1  UNL1        0.0260
     24  C         22.4500  -22.8030   -9.7170 C.2     1  UNL1        0.0350
     25  C         23.7500  -23.2320   -9.4350 C.2     1  UNL1        0.0310
     26  C         24.7090  -23.3130  -10.4510 C.2     1  UNL1        0.0270
     27  C         24.3730  -22.9440  -11.7530 C.2     1  UNL1        0.0800
     28  C         23.0740  -22.5330  -12.0550 C.2     1  UNL1        0.0270
     29  C         22.1200  -22.4570  -11.0350 C.2     1  UNL1        0.0310
     30  S         25.5940  -23.0530  -13.0430 S.O2    1  UNL1        0.2630
     31  O         25.8460  -24.4550  -13.2960 O.2     1  UNL1       -0.2000
     32  O         26.6730  -22.1510  -12.6980 O.2     1  UNL1       -0.2000
     33  N         24.8150  -22.3590  -14.3710 N.pl3   1  UNL1       -0.2800
     34  H         24.3740  -23.0570  -14.9660 H       1  UNL1        0.1790
     35  C         25.3650  -21.1950  -14.9840 C.2     1  UNL1        0.0480
     36  C         25.4280  -20.0070  -14.2520 C.2     1  UNL1        0.0310
     37  C         25.9950  -18.8610  -14.8080 C.2     1  UNL1        0.0090
     38  C         26.5040  -18.8880  -16.1080 C.2     1  UNL1       -0.0610
     39  C         27.1210  -17.6520  -16.6950 C.3     1  UNL1        0.0480
     40  C         26.4250  -20.0760  -16.8460 C.2     1  UNL1        0.0150
     41  C         25.8530  -21.2390  -16.2990 C.2     1  UNL1       -0.0340
     42  C         25.7800  -22.4820  -17.1380 C.3     1  UNL1        0.0500
@<TRIPOS>BOND
     1    42    41    1
     2    40    41    1
     3    40    38    2
     4    39    38    1
     5    41    35    2
     6    38    37    1
     7    35    33    1
     8    35    36    1
     9    34    33    1
    10    37    36    2
    11    33    30    1
    12    31    30    2
    13    30    32    2
    14    30    27    1
    15    21    20    1
    16    28    27    2
    17    28    29    1
    18    27    26    1
    19    29    24    2
    20    20    19    2
    21    20    22    1
    22    19    18    1
    23    26    25    2
    24    22    23    2
    25    24    25    1
    26    24     3    1
    27    18    17    2
    28    23    17    1
    29    17    14    1
    30     4     3    1
    31     3     1   am
    32    15    14    2
    33     1     2    2
    34     1     5    1
    35    14    16    2
    36    14    12    1
    37     6     5    2
    38     6     7    1
    39     5    11    1
    40    12     7    1
    41    12    13    1
    42     7     8    2
    43    11     9    2
    44     8     9    1
    45     8    10    1
