@<TRIPOS>MOLECULE
50913_out_ligand_01.pdbqt
 39 42 0 0 0
SMALL
GASTEIGER

@<TRIPOS>ATOM
      1  O         19.6740  -23.8420   -8.3340 O.2     1  UNL1       -0.2670
      2  C         20.1500  -22.8680   -7.7640 C.2     1  UNL1        0.2560
      3  N         21.3050  -22.1930   -8.1190 N.am    1  UNL1       -0.3230
      4  H         21.6630  -21.5090   -7.4660 H       1  UNL1        0.1690
      5  C         22.0750  -22.3670   -9.2880 C.2     1  UNL1        0.0350
      6  C         21.6390  -22.0220  -10.5700 C.2     1  UNL1        0.0310
      7  C         22.4780  -22.1940  -11.6760 C.2     1  UNL1        0.0270
      8  C         23.7670  -22.6970  -11.4940 C.2     1  UNL1        0.0800
      9  C         24.2110  -23.0660  -10.2240 C.2     1  UNL1        0.0270
     10  C         23.3650  -22.8950   -9.1250 C.2     1  UNL1        0.0310
     11  S         24.8370  -22.8970  -12.9010 S.O2    1  UNL1        0.2630
     12  O         24.8330  -24.3010  -13.2540 O.2     1  UNL1       -0.2000
     13  O         26.0730  -22.1970  -12.6240 O.2     1  UNL1       -0.2000
     14  N         24.0050  -22.0930  -14.1340 N.pl3   1  UNL1       -0.2790
     15  H         23.5460  -21.2520  -13.7740 H       1  UNL1        0.1790
     16  C         24.6270  -21.9590  -15.4180 C.2     1  UNL1        0.0640
     17  C         24.5060  -22.9810  -16.3620 C.2     1  UNL1        0.0320
     18  C         25.1240  -22.8620  -17.6090 C.2     1  UNL1        0.0020
     19  C         25.8630  -21.7220  -17.9200 C.2     1  UNL1        0.0020
     20  C         25.9850  -20.6930  -16.9850 C.2     1  UNL1        0.0260
     21  C         25.3670  -20.8110  -15.7390 C.2     1  UNL1        0.0610
     22 CL         25.5320  -19.5130  -14.6100 Cl      1  UNL1       -0.0820
     23  C         19.4400  -22.3390   -6.5600 C.2     1  UNL1        0.0340
     24  C         19.7770  -21.0660   -6.0820 C.2     1  UNL1        0.0170
     25  C         19.1740  -20.5670   -4.9250 C.2     1  UNL1        0.0030
     26  C         18.2420  -21.3390   -4.2320 C.2     1  UNL1        0.0300
     27  C         17.9060  -22.6070   -4.7040 C.2     1  UNL1        0.0430
     28  C         18.5020  -23.1100   -5.8610 C.2     1  UNL1        0.0470
     29  N         17.0050  -23.4210   -3.9610 N.pl3   1  UNL1       -0.2810
     30  H         17.3170  -24.3580   -3.7030 H       1  UNL1        0.1790
     31  S         15.3800  -23.4650   -4.4500 S.O2    1  UNL1        0.2630
     32  O         14.7870  -24.7070   -4.0080 O.2     1  UNL1       -0.2000
     33  O         14.8160  -22.1870   -4.0740 O.2     1  UNL1       -0.2000
     34  C         15.5120  -23.4830   -6.2210 C.2     1  UNL1        0.0790
     35  C         15.4930  -22.2710   -6.9190 C.2     1  UNL1        0.0250
     36  C         15.6450  -22.2770   -8.3060 C.2     1  UNL1        0.0020
     37  C         15.8080  -23.4860   -8.9860 C.2     1  UNL1        0.0000
     38  C         15.8080  -24.6940   -8.2850 C.2     1  UNL1        0.0020
     39  C         15.6510  -24.6980   -6.8990 C.2     1  UNL1        0.0250
@<TRIPOS>BOND
     1    19    18    2
     2    19    20    1
     3    18    17    1
     4    20    21    2
     5    17    16    2
     6    21    16    1
     7    21    22    1
     8    16    14    1
     9    14    15    1
    10    14    11    1
    11    12    11    2
    12    11    13    2
    13    11     8    1
    14     7     8    2
    15     7     6    1
    16     8     9    1
    17     6     5    2
    18     9    10    2
    19     5    10    1
    20     5     3    1
    21    37    36    2
    22    37    38    1
    23     1     2    2
    24    36    35    1
    25    38    39    2
    26     3     2   am
    27     3     4    1
    28     2    23    1
    29    35    34    2
    30    39    34    1
    31    23    24    2
    32    23    28    1
    33    34    31    1
    34    24    25    1
    35    28    27    2
    36    25    26    2
    37    27    26    1
    38    27    29    1
    39    31    33    2
    40    31    32    2
    41    31    29    1
    42    29    30    1
