@<TRIPOS>MOLECULE
50975_out_ligand_01.pdbqt
 39 42 0 0 0
SMALL
GASTEIGER

@<TRIPOS>ATOM
      1  N         22.4940  -23.0340  -10.6150 N.am    1  UNL1       -0.3230
      2  C         23.4140  -22.0560  -10.2870 C.2     1  UNL1        0.2560
      3  O         23.3170  -21.2060   -9.4110 O.2     1  UNL1       -0.2670
      4  H         22.8000  -23.7570  -11.2560 H       1  UNL1        0.1690
      5  C         21.1990  -23.1990  -10.0800 C.2     1  UNL1        0.0350
      6  C         20.9070  -24.0210   -8.9880 C.2     1  UNL1        0.0310
      7  C         19.5980  -24.1190   -8.5020 C.2     1  UNL1        0.0270
      8  C         18.5750  -23.4010   -9.1210 C.2     1  UNL1        0.0800
      9  C         18.8540  -22.5640  -10.2020 C.2     1  UNL1        0.0270
     10  C         20.1640  -22.4680  -10.6770 C.2     1  UNL1        0.0310
     11  S         16.9190  -23.4910   -8.4850 S.O2    1  UNL1        0.2630
     12  O         15.9930  -23.4950   -9.5950 O.2     1  UNL1       -0.2000
     13  O         16.9020  -24.5540   -7.5010 O.2     1  UNL1       -0.2000
     14  N         16.7750  -22.0530   -7.6080 N.pl3   1  UNL1       -0.2800
     15  H         17.4280  -21.3540   -7.9560 H       1  UNL1        0.1790
     16  C         16.6050  -22.1410   -6.1970 C.2     1  UNL1        0.0480
     17  C         15.3340  -22.4430   -5.6980 C.2     1  UNL1        0.0300
     18  C         15.1320  -22.5820   -4.3250 C.2     1  UNL1        0.0020
     19  C         16.2020  -22.4240   -3.4490 C.2     1  UNL1        0.0010
     20  C         17.4740  -22.1250   -3.9440 C.2     1  UNL1        0.0090
     21  C         17.6910  -21.9730   -5.3220 C.2     1  UNL1       -0.0350
     22  C         19.0810  -21.6860   -5.8170 C.3     1  UNL1        0.0500
     23  C         24.6680  -22.1050  -11.0810 C.2     1  UNL1        0.0340
     24  C         25.5100  -20.9880  -11.0880 C.2     1  UNL1        0.0170
     25  C         26.7170  -21.0330  -11.7850 C.2     1  UNL1        0.0030
     26  C         27.0770  -22.1890  -12.4800 C.2     1  UNL1        0.0300
     27  C         26.2160  -23.2850  -12.5050 C.2     1  UNL1        0.0430
     28  C         25.0080  -23.2490  -11.8120 C.2     1  UNL1        0.0470
     29  N         26.6080  -24.4850  -13.1610 N.pl3   1  UNL1       -0.2810
     30  H         27.5680  -24.8040  -13.0450 H       1  UNL1        0.1790
     31  S         26.0350  -24.7650  -14.7300 S.O2    1  UNL1        0.2630
     32  O         27.1210  -25.3990  -15.4480 O.2     1  UNL1       -0.2000
     33  O         24.7210  -25.3660  -14.6580 O.2     1  UNL1       -0.2000
     34  C         25.8570  -23.1170  -15.3810 C.2     1  UNL1        0.0790
     35  C         24.6450  -22.4390  -15.2100 C.2     1  UNL1        0.0250
     36  C         24.5020  -21.1510  -15.7260 C.2     1  UNL1        0.0020
     37  C         25.5660  -20.5450  -16.3990 C.2     1  UNL1        0.0000
     38  C         26.7770  -21.2220  -16.5550 C.2     1  UNL1        0.0020
     39  C         26.9290  -22.5080  -16.0400 C.2     1  UNL1        0.0250
@<TRIPOS>BOND
     1    38    37    2
     2    38    39    1
     3    37    36    1
     4    39    34    2
     5    36    35    2
     6    32    31    2
     7    34    35    1
     8    34    31    1
     9    31    33    2
    10    31    29    1
    11    29    30    1
    12    29    27    1
    13    27    26    2
    14    27    28    1
    15    26    25    1
    16    28    23    2
    17    25    24    2
    18     4     1    1
    19    24    23    1
    20    23     2    1
    21    10     9    1
    22    10     5    2
    23     1     2   am
    24     1     5    1
    25     2     3    2
    26     9     8    2
    27     5     6    1
    28    12    11    2
    29     8     7    1
    30     8    11    1
    31     6     7    2
    32    11    14    1
    33    11    13    2
    34    15    14    1
    35    14    16    1
    36    16    17    2
    37    16    21    1
    38    22    21    1
    39    17    18    1
    40    21    20    2
    41    18    19    2
    42    20    19    1
