@<TRIPOS>MOLECULE
50978_out_ligand_01.pdbqt
 37 40 0 0 0
SMALL
GASTEIGER

@<TRIPOS>ATOM
      1  C         22.8390  -22.8130   -9.2880 C.2     1  UNL1        0.0800
      2  C         22.5110  -21.7550   -8.4370 C.2     1  UNL1        0.0270
      3  C         21.3510  -21.8330   -7.6580 C.2     1  UNL1        0.0310
      4  C         20.5110  -22.9500   -7.7380 C.2     1  UNL1        0.0350
      5  C         20.8370  -23.9890   -8.6220 C.2     1  UNL1        0.0310
      6  C         21.9970  -23.9230   -9.3980 C.2     1  UNL1        0.0270
      7  N         19.3440  -23.1200   -6.9670 N.am    1  UNL1       -0.3230
      8  C         18.6870  -22.1740   -6.2050 C.2     1  UNL1        0.2570
      9  O         19.0130  -21.0000   -6.0670 O.2     1  UNL1       -0.2670
     10  H         18.9230  -24.0460   -6.9940 H       1  UNL1        0.1690
     11  C         17.4800  -22.6570   -5.4650 C.2     1  UNL1        0.0490
     12  C         17.3400  -22.1750   -4.1500 C.2     1  UNL1        0.0180
     13  C         16.2610  -22.5620   -3.3560 C.2     1  UNL1        0.0010
     14  C         15.3050  -23.4290   -3.8680 C.2     1  UNL1        0.0010
     15  C         15.4230  -23.9070   -5.1740 C.2     1  UNL1        0.0190
     16  C         16.4990  -23.5220   -5.9910 C.2     1  UNL1        0.0160
     17  S         16.4880  -24.1820   -7.6580 S.3     1  UNL1       -0.1240
     18  C         15.8390  -22.7240   -8.5440 C.3     1  UNL1        0.1170
     19  C         16.7550  -22.3090   -9.6660 C.2     1  UNL1       -0.0490
     20  C         17.8420  -23.1140  -10.0310 C.2     1  UNL1        0.0080
     21  C         18.6910  -22.7270  -11.0680 C.2     1  UNL1        0.0010
     22  C         18.4680  -21.5310  -11.7500 C.2     1  UNL1        0.0000
     23  C         17.3840  -20.7250  -11.4020 C.2     1  UNL1        0.0010
     24  C         16.5290  -21.1120  -10.3680 C.2     1  UNL1        0.0080
     25  S         24.3550  -22.7510  -10.2040 S.O2    1  UNL1        0.2630
     26  O         25.2580  -23.7190   -9.6160 O.2     1  UNL1       -0.2000
     27  O         24.7530  -21.3710  -10.3710 O.2     1  UNL1       -0.2000
     28  N         23.9030  -23.3770  -11.7140 N.pl3   1  UNL1       -0.2810
     29  H         24.0660  -24.3830  -11.7460 H       1  UNL1        0.1790
     30  C         24.2380  -22.6190  -12.8720 C.2     1  UNL1        0.0440
     31  C         23.3940  -21.6070  -13.3140 C.2     1  UNL1        0.0310
     32  C         23.6930  -20.9190  -14.4920 C.2     1  UNL1        0.0110
     33  C         24.8380  -21.2410  -15.2420 C.2     1  UNL1       -0.0400
     34  C         25.1010  -20.5210  -16.5340 C.3     1  UNL1        0.0500
     35  C         25.6780  -22.2670  -14.7780 C.2     1  UNL1        0.0420
     36  C         25.3820  -22.9500  -13.5980 C.2     1  UNL1        0.0540
     37 CL         27.0880  -22.7460  -15.6530 Cl      1  UNL1       -0.0840
@<TRIPOS>BOND
     1    34    33    1
     2    37    35    1
     3    33    35    2
     4    33    32    1
     5    35    36    1
     6    32    31    2
     7    36    30    2
     8    31    30    1
     9    30    28    1
    10    22    23    2
    11    22    21    1
    12    29    28    1
    13    28    25    1
    14    23    24    1
    15    21    20    2
    16    27    25    2
    17    24    19    2
    18    25    26    2
    19    25     1    1
    20    20    19    1
    21    19    18    1
    22     6     1    2
    23     6     5    1
    24     1     2    1
    25     5     4    2
    26    18    17    1
    27     2     3    2
    28     4     3    1
    29     4     7    1
    30    17    16    1
    31    10     7    1
    32     7     8   am
    33     8     9    2
    34     8    11    1
    35    16    11    2
    36    16    15    1
    37    11    12    1
    38    15    14    2
    39    12    13    2
    40    14    13    1
