@<TRIPOS>MOLECULE
50970_out_ligand_01.pdbqt
 44 48 0 0 0
SMALL
GASTEIGER

@<TRIPOS>ATOM
      1  C         20.1080  -23.0590   -7.8210 C.2     1  UNL1        0.2560
      2  O         19.8480  -24.1820   -8.2380 O.2     1  UNL1       -0.2670
      3  N         20.9840  -22.1470   -8.3700 N.am    1  UNL1       -0.3230
      4  H         21.0270  -21.2330   -7.9330 H       1  UNL1        0.1690
      5  C         21.9140  -22.3820   -9.4050 C.2     1  UNL1        0.0350
      6  C         23.2470  -22.7400   -9.1780 C.2     1  UNL1        0.0310
      7  C         24.1360  -22.8830  -10.2460 C.2     1  UNL1        0.0270
      8  C         23.6930  -22.6490  -11.5480 C.2     1  UNL1        0.0800
      9  C         22.3590  -22.3250  -11.7960 C.2     1  UNL1        0.0270
     10  C         21.4710  -22.2020  -10.7230 C.2     1  UNL1        0.0310
     11  S         24.8640  -22.7210  -12.8800 S.O2    1  UNL1        0.2630
     12  O         26.0100  -21.9370  -12.4720 O.2     1  UNL1       -0.2000
     13  O         25.0060  -24.0970  -13.3040 O.2     1  UNL1       -0.2000
     14  N         24.0980  -21.8340  -14.0940 N.pl3   1  UNL1       -0.2800
     15  H         23.6090  -21.0210  -13.7230 H       1  UNL1        0.1790
     16  C         24.7370  -21.7020  -15.3630 C.2     1  UNL1        0.0530
     17  C         24.6020  -22.7530  -16.2760 C.2     1  UNL1        0.0310
     18  C         25.1960  -22.6740  -17.5300 C.2     1  UNL1        0.0030
     19  C         25.9250  -21.5360  -17.8790 C.2     1  UNL1        0.0120
     20  C         26.0810  -20.4700  -16.9780 C.2     1  UNL1       -0.0240
     21  C         26.8140  -19.3280  -17.3460 C.2     1  UNL1        0.0120
     22  C         25.4920  -20.5440  -15.6890 C.2     1  UNL1        0.0010
     23  C         26.9810  -18.2630  -16.4600 C.2     1  UNL1        0.0010
     24  C         26.4280  -18.3310  -15.1870 C.2     1  UNL1        0.0010
     25  C         25.6950  -19.4580  -14.8040 C.2     1  UNL1        0.0140
     26  C         19.3920  -22.5860   -6.6070 C.2     1  UNL1        0.0400
     27  C         19.6150  -21.2490   -6.2430 C.2     1  UNL1        0.0180
     28  C         19.0130  -20.7200   -5.1060 C.2     1  UNL1        0.0030
     29  C         18.1810  -21.5220   -4.3280 C.2     1  UNL1        0.0250
     30  C         17.9280  -22.8460   -4.7080 C.2     1  UNL1        0.0290
     31  C         18.5090  -23.4000   -5.8630 C.2     1  UNL1       -0.0240
     32  C         18.1900  -24.8130   -6.2680 C.3     1  UNL1        0.0510
     33  N         17.1330  -23.6710   -3.8400 N.pl3   1  UNL1       -0.1810
     34  H         17.3680  -24.6590   -3.9710 H       1  UNL1        0.1460
     35  S         15.4510  -23.5510   -4.1280 S.O2    1  UNL1        0.2450
     36  O         14.7960  -24.8000   -3.7950 O.2     1  UNL1       -0.2060
     37  O         15.0420  -22.2870   -3.5510 O.2     1  UNL1       -0.2060
     38  C         15.4340  -23.3840   -5.8950 C.2     1  UNL1        0.0740
     39  C         15.5460  -22.1150   -6.4680 C.2     1  UNL1        0.0250
     40  C         15.5600  -21.9850   -7.8580 C.2     1  UNL1        0.0080
     41  C         15.4650  -23.1200   -8.6770 C.2     1  UNL1       -0.0620
     42  C         15.4600  -22.9620  -10.1680 C.3     1  UNL1        0.0480
     43  C         15.3560  -24.3880   -8.0880 C.2     1  UNL1        0.0080
     44  C         15.3520  -24.5260   -6.6990 C.2     1  UNL1        0.0250
@<TRIPOS>BOND
     1    19    18    2
     2    19    20    1
     3    18    17    1
     4    21    20    2
     5    21    23    1
     6    20    22    1
     7    23    24    2
     8    17    16    2
     9    22    16    1
    10    22    25    2
    11    16    14    1
    12    24    25    1
    13    14    15    1
    14    14    11    1
    15    13    11    2
    16    11    12    2
    17    11     8    1
    18     9     8    2
    19     9    10    1
    20     8     7    1
    21    10     5    2
    22     7     6    2
    23    42    41    1
    24     5     6    1
    25     5     3    1
    26    41    43    2
    27    41    40    1
    28     3     4    1
    29     3     1   am
    30     2     1    2
    31    43    44    1
    32    40    39    2
    33     1    26    1
    34    44    38    2
    35    26    27    2
    36    26    31    1
    37    39    38    1
    38    32    31    1
    39    27    28    1
    40    38    35    1
    41    31    30    2
    42    28    29    2
    43    30    29    1
    44    30    33    1
    45    35    33    1
    46    35    36    2
    47    35    37    2
    48    34    33    1
