@<TRIPOS>MOLECULE
50972_out_ligand_01.pdbqt
 42 46 0 0 0
SMALL
GASTEIGER

@<TRIPOS>ATOM
      1  C         20.1490  -22.2900  -11.0790 C.2     1  UNL1        0.0350
      2  C         20.1450  -23.2720  -10.0870 C.2     1  UNL1        0.0310
      3  C         18.9660  -23.5830   -9.4000 C.2     1  UNL1        0.0270
      4  C         17.7820  -22.9150   -9.7160 C.2     1  UNL1        0.0800
      5  C         17.7710  -21.9260  -10.7000 C.2     1  UNL1        0.0270
      6  C         18.9530  -21.6190  -11.3770 C.2     1  UNL1        0.0310
      7  N         21.2970  -21.8970  -11.7930 N.am    1  UNL1       -0.3230
      8  C         22.5930  -22.3550  -11.6160 C.2     1  UNL1        0.2560
      9  O         22.9560  -23.2740  -10.8940 O.2     1  UNL1       -0.2670
     10  H         21.1330  -21.2540  -12.5580 H       1  UNL1        0.1690
     11  C         23.6150  -21.6590  -12.4440 C.2     1  UNL1        0.0340
     12  C         24.8660  -21.3790  -11.8820 C.2     1  UNL1        0.0170
     13  C         25.8590  -20.7720  -12.6510 C.2     1  UNL1        0.0030
     14  C         25.6020  -20.4450  -13.9810 C.2     1  UNL1        0.0300
     15  C         24.3450  -20.6960  -14.5330 C.2     1  UNL1        0.0430
     16  C         23.3430  -21.2880  -13.7660 C.2     1  UNL1        0.0470
     17  N         24.1080  -20.4610  -15.9140 N.pl3   1  UNL1       -0.2810
     18  H         23.1430  -20.3990  -16.2340 H       1  UNL1        0.1790
     19  S         25.0940  -21.2530  -17.0390 S.O2    1  UNL1        0.2630
     20  O         26.3030  -20.4820  -17.2280 O.2     1  UNL1       -0.2000
     21  O         24.2400  -21.6070  -18.1510 O.2     1  UNL1       -0.2000
     22  C         25.5180  -22.7590  -16.1930 C.2     1  UNL1        0.0790
     23  C         26.8000  -22.9150  -15.6570 C.2     1  UNL1        0.0250
     24  C         27.1210  -24.0890  -14.9830 C.2     1  UNL1        0.0020
     25  C         26.1740  -25.1020  -14.8610 C.2     1  UNL1        0.0000
     26  C         24.9010  -24.9510  -15.4130 C.2     1  UNL1        0.0020
     27  C         24.5690  -23.7780  -16.0860 C.2     1  UNL1        0.0250
     28  S         16.2940  -23.3000   -8.8320 S.O2    1  UNL1        0.2630
     29  O         15.7670  -22.0510   -8.3210 O.2     1  UNL1       -0.2000
     30  O         15.4780  -24.1680   -9.6520 O.2     1  UNL1       -0.2000
     31  N         16.8650  -24.1500   -7.4900 N.pl3   1  UNL1       -0.2800
     32  H         17.7800  -24.5520   -7.6730 H       1  UNL1        0.1790
     33  C         16.6550  -23.5840   -6.1940 C.2     1  UNL1        0.0530
     34  C         15.5520  -24.0420   -5.4670 C.2     1  UNL1        0.0310
     35  C         15.2980  -23.5380   -4.1970 C.2     1  UNL1        0.0030
     36  C         16.1410  -22.5690   -3.6540 C.2     1  UNL1        0.0120
     37  C         17.2480  -22.0870   -4.3710 C.2     1  UNL1       -0.0240
     38  C         18.0880  -21.1110   -3.8090 C.2     1  UNL1        0.0120
     39  C         17.5180  -22.5890   -5.6680 C.2     1  UNL1        0.0010
     40  C         19.1890  -20.6250   -4.5110 C.2     1  UNL1        0.0010
     41  C         19.4610  -21.1010   -5.7840 C.2     1  UNL1        0.0010
     42  C         18.6360  -22.0690   -6.3590 C.2     1  UNL1        0.0140
@<TRIPOS>BOND
     1    21    19    2
     2    20    19    2
     3    19    22    1
     4    19    17    1
     5    18    17    1
     6    22    27    2
     7    22    23    1
     8    27    26    1
     9    17    15    1
    10    23    24    2
    11    26    25    2
    12    24    25    1
    13    15    14    2
    14    15    16    1
    15    14    13    1
    16    16    11    2
    17    13    12    2
    18    10     7    1
    19    11    12    1
    20    11     8    1
    21     7     8   am
    22     7     1    1
    23     8     9    2
    24     6     1    2
    25     6     5    1
    26     1     2    1
    27     5     4    2
    28     2     3    2
    29     4     3    1
    30     4    28    1
    31    30    28    2
    32    28    29    2
    33    28    31    1
    34    32    31    1
    35    31    33    1
    36    42    41    2
    37    42    39    1
    38    33    39    2
    39    33    34    1
    40    41    40    1
    41    39    37    1
    42    34    35    2
    43    40    38    2
    44    37    38    1
    45    37    36    2
    46    35    36    1
