@<TRIPOS>MOLECULE
50987_out_ligand_01.pdbqt
 33 36 0 0 0
SMALL
GASTEIGER

@<TRIPOS>ATOM
      1  C         20.8090  -23.2640   -9.6410 C.2     1  UNL1        0.0340
      2  C         20.2680  -23.8970   -8.5180 C.2     1  UNL1        0.0310
      3  C         18.8880  -23.8940   -8.2960 C.2     1  UNL1        0.0270
      4  C         18.0420  -23.2600   -9.2060 C.2     1  UNL1        0.0800
      5  C         18.5690  -22.5960  -10.3150 C.2     1  UNL1        0.0270
      6  C         19.9480  -22.6070  -10.5330 C.2     1  UNL1        0.0310
      7  S         16.2880  -23.2670   -8.9420 S.O2    1  UNL1        0.2630
      8  O         15.6620  -22.7380  -10.1370 O.2     1  UNL1       -0.2000
      9  O         15.9060  -24.5620   -8.4200 O.2     1  UNL1       -0.2000
     10  N         16.0890  -22.0820   -7.7580 N.pl3   1  UNL1       -0.2800
     11  H         15.5070  -21.3080   -8.0730 H       1  UNL1        0.1790
     12  C         15.9840  -22.4830   -6.3900 C.2     1  UNL1        0.0530
     13  C         14.8820  -23.2490   -6.0020 C.2     1  UNL1        0.0310
     14  C         14.7520  -23.6660   -4.6810 C.2     1  UNL1        0.0030
     15  C         15.7210  -23.3120   -3.7440 C.2     1  UNL1        0.0120
     16  C         16.8260  -22.5280   -4.1080 C.2     1  UNL1       -0.0240
     17  C         17.7930  -22.1700   -3.1530 C.2     1  UNL1        0.0120
     18  C         16.9670  -22.0910   -5.4480 C.2     1  UNL1        0.0010
     19  C         18.8910  -21.3830   -3.5020 C.2     1  UNL1        0.0010
     20  C         19.0340  -20.9370   -4.8090 C.2     1  UNL1        0.0010
     21  C         18.0800  -21.2810   -5.7700 C.2     1  UNL1        0.0140
     22  N         22.1840  -23.2370   -9.9450 N.am    1  UNL1       -0.3270
     23  C         23.0860  -22.2130   -9.7030 C.2     1  UNL1        0.2260
     24  O         22.8370  -21.1270   -9.1870 O.2     1  UNL1       -0.2730
     25  H         22.5680  -24.0920  -10.3270 H       1  UNL1        0.1690
     26  C         24.4950  -22.5370  -10.1830 C.3     1  UNL1        0.1410
     27  C         24.9680  -21.6500  -11.3130 C.2     1  UNL1       -0.0490
     28  C         24.3890  -21.7500  -12.5860 C.2     1  UNL1        0.0090
     29  C         24.8330  -20.9340  -13.6290 C.2     1  UNL1        0.0240
     30  C         25.8510  -20.0090  -13.4030 C.2     1  UNL1        0.0340
     31 CL         26.4000  -19.0100  -14.6910 Cl      1  UNL1       -0.0840
     32  C         26.4270  -19.8910  -12.1400 C.2     1  UNL1        0.0240
     33  C         25.9850  -20.7060  -11.0960 C.2     1  UNL1        0.0090
@<TRIPOS>BOND
     1    31    30    1
     2    29    30    2
     3    29    28    1
     4    30    32    1
     5    28    27    2
     6    32    33    2
     7    27    33    1
     8    27    26    1
     9     6     5    1
    10     6     1    2
    11    25    22    1
    12     5     4    2
    13    26    23    1
    14     8     7    2
    15    22    23   am
    16    22     1    1
    17    23    24    2
    18     1     2    1
    19     4     7    1
    20     4     3    1
    21     7     9    2
    22     7    10    1
    23     2     3    2
    24    11    10    1
    25    10    12    1
    26    12    13    2
    27    12    18    1
    28    13    14    1
    29    21    18    1
    30    21    20    2
    31    18    16    2
    32    20    19    1
    33    14    15    2
    34    16    15    1
    35    16    17    1
    36    19    17    2
