@<TRIPOS>MOLECULE
5098_out_ligand_01.pdbqt
 30 33 0 0 0
SMALL
GASTEIGER

@<TRIPOS>ATOM
      1  N         21.0060  -23.4320   -9.5330 N.ar    1  UNL1       -0.2080
      2  N         20.1250  -23.8440   -8.5450 N.ar    1  UNL1       -0.1460
      3  C         18.9860  -23.3420   -8.9330 C.ar    1  UNL1        0.1940
      4  C         17.6180  -23.4210   -8.3300 C.2     1  UNL1        0.1460
      5  N         16.5670  -22.8530   -8.8410 N.2     1  UNL1       -0.2480
      6  C         16.7640  -22.1460  -10.0120 C.2     1  UNL1        0.1360
      7  C         17.9490  -22.0140  -10.6310 C.2     1  UNL1        0.1230
      8  N         19.0390  -22.6150  -10.0780 N.ar    1  UNL1       -0.2520
      9  C         20.3450  -22.6420  -10.4830 C.ar    1  UNL1        0.3510
     10  O         20.8570  -22.1220  -11.4640 O.2     1  UNL1       -0.2440
     11  C         22.4350  -23.6460   -9.4470 C.3     1  UNL1        0.2590
     12  C         23.2340  -22.4150   -9.8880 C.2     1  UNL1        0.2420
     13  O         23.2240  -21.3910   -9.2080 O.2     1  UNL1       -0.2710
     14  N         23.8330  -22.5580  -11.1300 N.am    1  UNL1       -0.3260
     15  H         23.6660  -23.4370  -11.6200 H       1  UNL1        0.1690
     16  C         24.6300  -21.6230  -11.8190 C.2     1  UNL1        0.0340
     17  C         25.7180  -20.9530  -11.2560 C.2     1  UNL1        0.0310
     18  C         26.4600  -20.0400  -12.0140 C.2     1  UNL1        0.0210
     19  C         26.1170  -19.7960  -13.3410 C.2     1  UNL1        0.0110
     20 BR         27.1200  -18.5650  -14.3640 Br      1  UNL1       -0.0510
     21  C         25.0360  -20.4580  -13.9180 C.2     1  UNL1        0.0210
     22  C         24.2970  -21.3690  -13.1560 C.2     1  UNL1        0.0310
     23  S         17.7010  -24.3540   -6.8820 S.3     1  UNL1       -0.0670
     24  C         17.9910  -23.1010   -5.6510 C.2     1  UNL1        0.0100
     25  C         17.6070  -23.3310   -4.3240 C.2     1  UNL1        0.0190
     26  C         17.8430  -22.3660   -3.3390 C.2     1  UNL1        0.0040
     27  C         18.4690  -21.1690   -3.6800 C.2     1  UNL1        0.0420
     28  C         18.8570  -20.9500   -4.9970 C.2     1  UNL1        0.1170
     29  F         19.4630  -19.7990   -5.3210 F       1  UNL1       -0.2060
     30  C         18.6290  -21.9030   -5.9840 C.2     1  UNL1        0.0610
@<TRIPOS>BOND
     1    20    19    1
     2    21    19    2
     3    21    22    1
     4    19    18    1
     5    22    16    2
     6    18    17    2
     7    16    17    1
     8    16    14    1
     9    15    14    1
    10    10     9    2
    11    14    12   am
    12     7     8    1
    13     7     6    2
    14     9     8   ar
    15     9     1   ar
    16     8     3   ar
    17     6     5    1
    18    12    11    1
    19    12    13    2
    20     1    11    1
    21     1     2   ar
    22     3     2   ar
    23     3     4    1
    24     5     4    2
    25     4    23    1
    26    23    24    1
    27    30    24    2
    28    30    28    1
    29    24    25    1
    30    29    28    1
    31    28    27    2
    32    25    26    2
    33    27    26    1
