@<TRIPOS>MOLECULE
50982_out_ligand_01.pdbqt
 39 42 0 0 0
SMALL
GASTEIGER

@<TRIPOS>ATOM
      1  C         22.7440  -22.8790   -9.1780 C.2     1  UNL1        0.0750
      2  C         21.9050  -23.9900   -9.2770 C.2     1  UNL1        0.0270
      3  C         20.7450  -24.0440   -8.5010 C.2     1  UNL1        0.0310
      4  C         20.4170  -22.9970   -7.6280 C.2     1  UNL1        0.0350
      5  C         21.2550  -21.8790   -7.5610 C.2     1  UNL1        0.0310
      6  C         22.4140  -21.8130   -8.3420 C.2     1  UNL1        0.0270
      7  N         19.2350  -23.1380   -6.8730 N.am    1  UNL1       -0.3230
      8  C         18.5800  -22.1530   -6.1570 C.2     1  UNL1        0.2570
      9  O         18.9350  -20.9960   -5.9760 O.2     1  UNL1       -0.2670
     10  H         18.8210  -24.0610   -6.8660 H       1  UNL1        0.1690
     11  C         17.3210  -22.6250   -5.5370 C.2     1  UNL1        0.0490
     12  C         17.0300  -22.1670   -4.2420 C.2     1  UNL1        0.0180
     13  C         15.8590  -22.5770   -3.6080 C.2     1  UNL1        0.0010
     14  C         14.9800  -23.4360   -4.2620 C.2     1  UNL1        0.0010
     15  C         15.2680  -23.8880   -5.5530 C.2     1  UNL1        0.0190
     16  C         16.4450  -23.4940   -6.2070 C.2     1  UNL1        0.0160
     17  S         16.7230  -24.1350   -7.8520 S.3     1  UNL1       -0.1240
     18  C         15.9820  -22.7910   -8.8330 C.3     1  UNL1        0.1170
     19  C         16.9400  -22.2670   -9.8700 C.2     1  UNL1       -0.0490
     20  C         16.6770  -21.0560  -10.5280 C.2     1  UNL1        0.0080
     21  C         17.5580  -20.5670  -11.4940 C.2     1  UNL1        0.0010
     22  C         18.7080  -21.2840  -11.8140 C.2     1  UNL1        0.0000
     23  C         18.9770  -22.4920  -11.1720 C.2     1  UNL1        0.0010
     24  C         18.0970  -22.9840  -10.2070 C.2     1  UNL1        0.0080
     25  S         24.2440  -22.8110  -10.1340 S.O2    1  UNL1        0.2450
     26  O         25.1980  -23.6980   -9.5030 O.2     1  UNL1       -0.2060
     27  O         24.5600  -21.4160  -10.3660 O.2     1  UNL1       -0.2060
     28  N         23.8070  -23.5300  -11.6030 N.pl3   1  UNL1       -0.1790
     29  H         22.8530  -23.8980  -11.5400 H       1  UNL1        0.1460
     30  C         24.0450  -22.7880  -12.8050 C.2     1  UNL1        0.0560
     31  C         23.2520  -21.6890  -13.1250 C.2     1  UNL1        0.0300
     32  C         23.4600  -21.0210  -14.3290 C.2     1  UNL1        0.0390
     33  C         24.4530  -21.4460  -15.2190 C.2     1  UNL1        0.0700
     34  C         25.2540  -22.5450  -14.8910 C.2     1  UNL1        0.0750
     35  C         25.0530  -23.2240  -13.6840 C.2     1  UNL1        0.0920
     36  O         24.5400  -20.7040  -16.3650 O.2     1  UNL1       -0.3560
     37  C         25.0920  -21.3390  -17.5110 C.3     1  UNL1        0.2100
     38  O         25.7690  -24.3150  -13.2540 O.2     1  UNL1       -0.3540
     39  C         27.0530  -24.0680  -12.6960 C.3     1  UNL1        0.2100
@<TRIPOS>BOND
     1    37    36    1
     2    36    33    1
     3    33    34    2
     4    33    32    1
     5    34    35    1
     6    32    31    2
     7    35    38    1
     8    35    30    2
     9    38    39    1
    10    31    30    1
    11    30    28    1
    12    22    21    2
    13    22    23    1
    14    28    29    1
    15    28    25    1
    16    21    20    1
    17    23    24    2
    18    20    19    2
    19    27    25    2
    20    24    19    1
    21    25    26    2
    22    25     1    1
    23    19    18    1
    24     2     1    2
    25     2     3    1
    26     1     6    1
    27    18    17    1
    28     3     4    2
    29     6     5    2
    30    17    16    1
    31     4     5    1
    32     4     7    1
    33     7    10    1
    34     7     8   am
    35    16    15    1
    36    16    11    2
    37     8     9    2
    38     8    11    1
    39    15    14    2
    40    11    12    1
    41    14    13    1
    42    12    13    2
