@<TRIPOS>MOLECULE
50981_out_ligand_01.pdbqt
 33 35 0 0 0
SMALL
GASTEIGER

@<TRIPOS>ATOM
      1  C         22.5840  -22.6740  -11.4820 C.2     1  UNL1        0.0290
      2  C         21.9570  -23.0450  -10.2890 C.2     1  UNL1        0.0420
      3  C         20.6750  -22.5680   -9.9900 C.2     1  UNL1        0.0340
      4  C         20.0470  -21.6790  -10.8700 C.2     1  UNL1        0.0170
      5  C         20.6810  -21.3020  -12.0560 C.2     1  UNL1        0.0090
      6  C         21.9480  -21.8060  -12.3840 C.2     1  UNL1       -0.0400
      7  C         22.6050  -21.3580  -13.6590 C.3     1  UNL1        0.0500
      8  C         20.0330  -22.9960   -8.7110 C.2     1  UNL1        0.2560
      9  O         20.3330  -24.0870   -8.2400 O.2     1  UNL1       -0.2670
     10  N         19.0750  -22.1230   -8.2200 N.am    1  UNL1       -0.3220
     11  H         18.6350  -21.5640   -8.9330 H       1  UNL1        0.1690
     12  C         18.3520  -22.2850   -7.0080 C.2     1  UNL1        0.0470
     13  C         18.7810  -21.6920   -5.7960 C.2     1  UNL1       -0.0350
     14  C         19.9480  -20.7460   -5.6750 C.3     1  UNL1        0.0500
     15  C         18.0690  -21.9480   -4.6110 C.2     1  UNL1        0.0090
     16  C         16.9190  -22.7230   -4.6220 C.2     1  UNL1        0.0010
     17  C         16.4500  -23.2430   -5.8240 C.2     1  UNL1        0.0100
     18  C         17.1310  -23.0210   -7.0380 C.2     1  UNL1       -0.0270
     19  C         16.5770  -23.6480   -8.3200 C.3     1  UNL1        0.0130
     20  C         15.5440  -24.7250   -7.9800 C.3     1  UNL1        0.0150
     21  C         15.9820  -22.6550   -9.3270 C.3     1  UNL1        0.0150
     22  N         23.9200  -23.1350  -11.7430 N.pl3   1  UNL1       -0.1810
     23  H         24.0670  -24.0540  -11.3190 H       1  UNL1        0.1460
     24  S         25.1420  -22.1270  -11.0980 S.O2    1  UNL1        0.2450
     25  O         24.5580  -21.0850  -10.2820 O.2     1  UNL1       -0.2060
     26  O         26.1760  -23.0090  -10.5980 O.2     1  UNL1       -0.2060
     27  C         25.7420  -21.3650  -12.5860 C.2     1  UNL1        0.0740
     28  C         25.9610  -19.9850  -12.6270 C.2     1  UNL1        0.0250
     29  C         26.4210  -19.3990  -13.8070 C.2     1  UNL1        0.0080
     30  C         26.6650  -20.1820  -14.9450 C.2     1  UNL1       -0.0620
     31  C         27.1210  -19.5410  -16.2240 C.3     1  UNL1        0.0480
     32  C         26.4160  -21.5600  -14.8960 C.2     1  UNL1        0.0080
     33  C         25.9560  -22.1550  -13.7190 C.2     1  UNL1        0.0250
@<TRIPOS>BOND
     1    31    30    1
     2    30    32    2
     3    30    29    1
     4    32    33    1
     5    29    28    2
     6    33    27    2
     7     7     6    1
     8    28    27    1
     9    27    24    1
    10     6     5    1
    11     6     1    2
    12     5     4    2
    13    22     1    1
    14    22    23    1
    15    22    24    1
    16     1     2    1
    17    24    26    2
    18    24    25    2
    19     4     3    1
    20     2     3    2
    21     3     8    1
    22    21    19    1
    23    11    10    1
    24     8     9    2
    25     8    10   am
    26    19    20    1
    27    19    18    1
    28    10    12    1
    29    18    12    2
    30    18    17    1
    31    12    13    1
    32    17    16    2
    33    13    14    1
    34    13    15    2
    35    16    15    1
