@<TRIPOS>MOLECULE
50997_out_ligand_01.pdbqt
 44 47 0 0 0
SMALL
GASTEIGER

@<TRIPOS>ATOM
      1  C         23.3460  -23.0090   -9.5510 C.2     1  UNL1        0.2560
      2  O         23.7970  -23.8860   -8.8220 O.2     1  UNL1       -0.2670
      3  N         22.1230  -22.3780   -9.4120 N.am    1  UNL1       -0.3230
      4  H         21.9310  -21.5920  -10.0190 H       1  UNL1        0.1690
      5  C         21.0930  -22.7120   -8.5040 C.2     1  UNL1        0.0350
      6  C         20.8360  -21.8060   -7.4630 C.2     1  UNL1        0.0310
      7  C         19.7820  -22.0210   -6.5700 C.2     1  UNL1        0.0270
      8  C         18.9800  -23.1530   -6.7190 C.2     1  UNL1        0.0800
      9  C         19.2570  -24.0920   -7.7150 C.2     1  UNL1        0.0270
     10  C         20.3070  -23.8630   -8.6080 C.2     1  UNL1        0.0310
     11  S         17.5720  -23.4040   -5.6630 S.O2    1  UNL1        0.2630
     12  O         17.8450  -22.7800   -4.3870 O.2     1  UNL1       -0.2000
     13  O         17.2070  -24.8030   -5.7600 O.2     1  UNL1       -0.2000
     14  N         16.3600  -22.5340   -6.4680 N.pl3   1  UNL1       -0.2810
     15  H         15.4930  -22.5430   -5.9330 H       1  UNL1        0.1790
     16  C         16.2390  -22.7100   -7.8790 C.2     1  UNL1        0.0430
     17  C         15.5700  -23.8290   -8.3760 C.2     1  UNL1        0.0300
     18  C         15.5230  -24.0560   -9.7500 C.2     1  UNL1        0.0030
     19  C         16.1320  -23.1560  -10.6270 C.2     1  UNL1        0.0160
     20  C         16.7850  -22.0140  -10.1400 C.2     1  UNL1        0.0500
     21  C         16.8470  -21.8110   -8.7520 C.2     1  UNL1        0.0460
     22  C         17.4540  -21.0460  -11.0830 C.3     1  UNL1        0.4170
     23  F         18.7790  -20.8680  -10.8210 F       1  UNL1       -0.1660
     24  F         17.3710  -21.4460  -12.3810 F       1  UNL1       -0.1660
     25  F         16.9000  -19.8020  -11.0420 F       1  UNL1       -0.1660
     26  C         24.1800  -22.5790  -10.7170 C.2     1  UNL1        0.0330
     27  C         24.0680  -23.2980  -11.9120 C.2     1  UNL1        0.0190
     28  C         24.7480  -22.8770  -13.0550 C.2     1  UNL1        0.0310
     29  C         25.5400  -21.7290  -13.0200 C.2     1  UNL1        0.0480
     30  C         25.6980  -21.0140  -11.8200 C.2     1  UNL1       -0.0340
     31  C         24.9930  -21.4360  -10.6780 C.2     1  UNL1        0.0260
     32  C         26.5550  -19.7810  -11.7430 C.3     1  UNL1        0.0500
     33  N         26.1710  -21.2820  -14.2120 N.pl3   1  UNL1       -0.2800
     34  H         27.0670  -21.6950  -14.4670 H       1  UNL1        0.1790
     35  S         25.2380  -21.0090  -15.5910 S.O2    1  UNL1        0.2630
     36  O         25.6790  -21.9910  -16.5570 O.2     1  UNL1       -0.2000
     37  O         23.8480  -20.9030  -15.2120 O.2     1  UNL1       -0.2000
     38  C         25.8110  -19.4350  -16.1680 C.2     1  UNL1        0.0790
     39  C         26.2670  -18.4790  -15.2590 C.2     1  UNL1        0.0260
     40  C         26.6970  -17.2380  -15.7310 C.2     1  UNL1        0.0080
     41  C         26.6890  -16.9540  -17.1050 C.2     1  UNL1       -0.0620
     42  C         27.1210  -15.6070  -17.6040 C.3     1  UNL1        0.0480
     43  C         26.2170  -17.9210  -18.0030 C.2     1  UNL1        0.0080
     44  C         25.7750  -19.1600  -17.5380 C.2     1  UNL1        0.0260
@<TRIPOS>BOND
     1    43    44    1
     2    43    41    2
     3    42    41    1
     4    44    38    2
     5    41    40    1
     6    36    35    2
     7    38    35    1
     8    38    39    1
     9    40    39    2
    10    35    37    2
    11    35    33    1
    12    34    33    1
    13    33    29    1
    14    28    29    2
    15    28    27    1
    16    29    30    1
    17    24    22    1
    18    27    26    2
    19    30    32    1
    20    30    31    2
    21    22    25    1
    22    22    23    1
    23    22    20    1
    24    26    31    1
    25    26     1    1
    26    19    20    2
    27    19    18    1
    28    20    21    1
    29     4     3    1
    30    18    17    2
    31     1     3   am
    32     1     2    2
    33     3     5    1
    34    21    16    2
    35    10     5    2
    36    10     9    1
    37     5     6    1
    38    17    16    1
    39    16    14    1
    40     9     8    2
    41     6     7    2
    42     8     7    1
    43     8    11    1
    44    14    15    1
    45    14    11    1
    46    13    11    2
    47    11    12    2
