@<TRIPOS>MOLECULE
50995_out_ligand_01.pdbqt
 30 32 0 0 0
SMALL
GASTEIGER

@<TRIPOS>ATOM
      1  C         18.6680  -22.2230  -10.2410 C.2     1  UNL1        0.0390
      2  C         18.4500  -21.1440  -11.1150 C.2     1  UNL1        0.0170
      3  C         19.4700  -20.6960  -11.9460 C.2     1  UNL1        0.0030
      4  C         20.7070  -21.3300  -11.9130 C.2     1  UNL1        0.0250
      5  C         20.9400  -22.4030  -11.0420 C.2     1  UNL1        0.0290
      6  C         19.9240  -22.8730  -10.1860 C.2     1  UNL1       -0.0240
      7  C         20.1280  -24.0500   -9.2680 C.3     1  UNL1        0.0510
      8  C         17.5200  -22.6760   -9.4040 C.2     1  UNL1        0.2520
      9  N         17.5430  -22.2500   -8.0950 N.am    1  UNL1       -0.3530
     10  H         18.3770  -21.8150   -7.7240 H       1  UNL1        0.1630
     11  O         16.6380  -23.3870   -9.8670 O.2     1  UNL1       -0.2680
     12  C         16.5380  -22.6900   -7.1580 C.3     1  UNL1        0.1620
     13  C         16.9640  -22.3850   -5.7430 C.2     1  UNL1       -0.0350
     14  C         18.1650  -21.6800   -5.5430 C.2     1  UNL1        0.0090
     15  C         18.6240  -21.3940   -4.2580 C.2     1  UNL1        0.0010
     16  C         17.8930  -21.8140   -3.1530 C.2     1  UNL1        0.0010
     17  C         16.7070  -22.5250   -3.3320 C.2     1  UNL1        0.0070
     18  C         16.2320  -22.8260   -4.6200 C.2     1  UNL1       -0.0540
     19  C         14.9490  -23.5990   -4.7630 C.3     1  UNL1        0.0490
     20  N         22.2330  -23.0220  -11.1350 N.pl3   1  UNL1       -0.1810
     21  H         22.6390  -22.9250  -12.0660 H       1  UNL1        0.1460
     22  S         23.3850  -22.4200  -10.0250 S.O2    1  UNL1        0.2450
     23  O         22.8890  -21.1350   -9.5800 O.2     1  UNL1       -0.2060
     24  O         23.7890  -23.4570   -9.1020 O.2     1  UNL1       -0.2060
     25  C         24.7550  -22.1290  -11.1190 C.2     1  UNL1        0.0740
     26  C         25.6320  -21.0660  -10.8800 C.2     1  UNL1        0.0250
     27  C         26.7050  -20.8590  -11.7470 C.2     1  UNL1        0.0020
     28  C         26.9000  -21.7100  -12.8370 C.2     1  UNL1        0.0000
     29  C         26.0270  -22.7750  -13.0640 C.2     1  UNL1        0.0020
     30  C         24.9520  -22.9910  -12.2030 C.2     1  UNL1        0.0250
@<TRIPOS>BOND
     1    29    28    2
     2    29    30    1
     3    28    27    1
     4    30    25    2
     5    21    20    1
     6     3     4    2
     7     3     2    1
     8     4     5    1
     9    27    26    2
    10    20     5    1
    11    20    22    1
    12    25    26    1
    13    25    22    1
    14     2     1    2
    15     5     6    2
    16     1     6    1
    17     1     8    1
    18     6     7    1
    19    22    23    2
    20    22    24    2
    21    11     8    2
    22     8     9   am
    23     9    10    1
    24     9    12    1
    25    12    13    1
    26    13    14    2
    27    13    18    1
    28    14    15    1
    29    19    18    1
    30    18    17    2
    31    15    16    2
    32    17    16    1
