@<TRIPOS>MOLECULE
50993_out_ligand_01.pdbqt
 43 47 0 0 0
SMALL
GASTEIGER

@<TRIPOS>ATOM
      1  C         23.1680  -22.1730  -11.7510 C.2     1  UNL1        0.2560
      2  O         23.3470  -23.3540  -11.4910 O.2     1  UNL1       -0.2670
      3  N         22.0160  -21.4270  -11.5930 N.am    1  UNL1       -0.3230
      4  H         22.0240  -20.4910  -11.9830 H       1  UNL1        0.1690
      5  C         20.8140  -21.8350  -10.9820 C.2     1  UNL1        0.0350
      6  C         20.7580  -22.6330   -9.8360 C.2     1  UNL1        0.0310
      7  C         19.5250  -22.9770   -9.2700 C.2     1  UNL1        0.0270
      8  C         18.3440  -22.5280   -9.8630 C.2     1  UNL1        0.0800
      9  C         18.3830  -21.7300  -11.0060 C.2     1  UNL1        0.0270
     10  C         19.6180  -21.3830  -11.5600 C.2     1  UNL1        0.0310
     11  S         16.7850  -22.9550   -9.1290 S.O2    1  UNL1        0.2630
     12  O         16.0220  -23.7290  -10.0820 O.2     1  UNL1       -0.2000
     13  O         16.2460  -21.7430   -8.5500 O.2     1  UNL1       -0.2000
     14  N         17.2390  -23.9330   -7.8290 N.pl3   1  UNL1       -0.2800
     15  H         18.2300  -24.1660   -7.8700 H       1  UNL1        0.1790
     16  C         16.6900  -23.6390   -6.5430 C.2     1  UNL1        0.0530
     17  C         15.4750  -24.2430   -6.2080 C.2     1  UNL1        0.0310
     18  C         14.8860  -23.9880   -4.9740 C.2     1  UNL1        0.0030
     19  C         15.5100  -23.1280   -4.0720 C.2     1  UNL1        0.0120
     20  C         16.7270  -22.5030   -4.3920 C.2     1  UNL1       -0.0240
     21  C         17.3430  -21.6370   -3.4740 C.2     1  UNL1        0.0120
     22  C         17.3360  -22.7470   -5.6480 C.2     1  UNL1        0.0010
     23  C         18.5470  -21.0040   -3.7800 C.2     1  UNL1        0.0010
     24  C         19.1510  -21.2250   -5.0100 C.2     1  UNL1        0.0010
     25  C         18.5530  -22.0860   -5.9350 C.2     1  UNL1        0.0140
     26  C         24.2800  -21.4100  -12.3690 C.2     1  UNL1        0.0400
     27  C         25.4800  -21.3560  -11.6480 C.2     1  UNL1        0.0180
     28  C         26.5930  -20.7330  -12.2020 C.2     1  UNL1        0.0030
     29  C         26.5060  -20.1820  -13.4780 C.2     1  UNL1        0.0310
     30  C         25.3020  -20.2150  -14.1950 C.2     1  UNL1        0.0490
     31  C         24.1510  -20.7980  -13.6360 C.2     1  UNL1       -0.0190
     32  C         22.8280  -20.8090  -14.3540 C.3     1  UNL1        0.0520
     33  N         25.3040  -19.7140  -15.5280 N.pl3   1  UNL1       -0.2800
     34  H         24.6250  -19.0060  -15.7980 H       1  UNL1        0.1790
     35  S         25.7060  -20.7490  -16.8020 S.O2    1  UNL1        0.2630
     36  O         24.5430  -20.7900  -17.6640 O.2     1  UNL1       -0.2000
     37  O         27.0110  -20.3950  -17.3170 O.2     1  UNL1       -0.2000
     38  C         25.8430  -22.3360  -16.0070 C.2     1  UNL1        0.0790
     39  C         24.7970  -23.2570  -16.1160 C.2     1  UNL1        0.0250
     40  C         24.9120  -24.5030  -15.4990 C.2     1  UNL1        0.0020
     41  C         26.0700  -24.8280  -14.7880 C.2     1  UNL1        0.0000
     42  C         27.1200  -23.9130  -14.6990 C.2     1  UNL1        0.0020
     43  C         27.0150  -22.6660  -15.3160 C.2     1  UNL1        0.0250
@<TRIPOS>BOND
     1    36    35    2
     2    37    35    2
     3    35    38    1
     4    35    33    1
     5    39    38    2
     6    39    40    1
     7    38    43    1
     8    34    33    1
     9    33    30    1
    10    40    41    2
    11    43    42    2
    12    41    42    1
    13    32    31    1
    14    30    31    1
    15    30    29    2
    16    31    26    2
    17    29    28    1
    18    26     1    1
    19    26    27    1
    20    28    27    2
    21     4     3    1
    22     1     3   am
    23     1     2    2
    24     3     5    1
    25    10     9    1
    26    10     5    2
    27     9     8    2
    28     5     6    1
    29    12    11    2
    30     8     7    1
    31     8    11    1
    32     6     7    2
    33    11    13    2
    34    11    14    1
    35    15    14    1
    36    14    16    1
    37    16    17    2
    38    16    22    1
    39    17    18    1
    40    25    22    1
    41    25    24    2
    42    22    20    2
    43    24    23    1
    44    18    19    2
    45    20    19    1
    46    20    21    1
    47    23    21    2
