@<TRIPOS>MOLECULE
50_out_ligand_01.pdbqt
 31 34 0 0 0
SMALL
GASTEIGER

@<TRIPOS>ATOM
      1  C         19.8370  -22.9060   -8.0580 C.3     1  UNL1        0.0660
      2  C         20.4090  -24.3220   -8.3660 C.3     1  UNL1        0.0660
      3  C         21.5670  -24.2610   -9.3670 C.3     1  UNL1        0.2750
      4  N         22.6520  -23.4220   -8.8560 N.3     1  UNL1        0.0920
      5  C         22.2180  -22.0660   -8.5180 C.3     1  UNL1        0.2750
      6  C         21.0410  -22.0790   -7.5360 C.3     1  UNL1        0.0660
      7  C         23.8760  -23.4710   -9.6650 C.3     1  UNL1        0.3140
      8  C         23.7700  -22.7460  -10.9640 C.2     1  UNL1        0.0070
      9  C         22.5990  -22.4770  -11.7030 C.2     1  UNL1        0.1490
     10  N         22.8360  -21.8090  -12.8300 N.2     1  UNL1       -0.1800
     11  N         24.1820  -21.6290  -12.8490 N.pl3   1  UNL1       -0.2450
     12  C         24.7740  -22.2140  -11.7500 C.2     1  UNL1        0.1290
     13  C         24.8080  -20.9110  -13.9070 C.2     1  UNL1        0.0580
     14  C         25.6500  -19.8180  -13.6470 C.2     1  UNL1        0.0340
     15  C         26.2460  -19.1280  -14.7090 C.2     1  UNL1        0.0440
     16  C         26.0020  -19.5280  -16.0170 C.2     1  UNL1        0.1160
     17  F         26.5730  -18.8590  -17.0270 F       1  UNL1       -0.2060
     18  C         25.1720  -20.6060  -16.2920 C.2     1  UNL1        0.0440
     19  C         24.5730  -21.3010  -15.2380 C.2     1  UNL1        0.0340
     20  N         18.7800  -22.9680   -7.0150 N.am    1  UNL1       -0.3480
     21  C         18.5220  -22.0150   -6.0590 C.2     1  UNL1        0.2140
     22  C         17.3310  -22.3490   -5.1960 C.3     1  UNL1        0.1170
     23  O         19.1830  -21.0040   -5.8700 O.2     1  UNL1       -0.2740
     24  H         18.0820  -23.6900   -7.1410 H       1  UNL1        0.1630
     25  C         19.1160  -22.3210   -9.3040 C.2     1  UNL1        0.0090
     26  C         19.8170  -21.4490  -10.1700 C.2     1  UNL1        0.0130
     27  C         19.2210  -20.9060  -11.3140 C.2     1  UNL1        0.0010
     28  C         17.9130  -21.2380  -11.6430 C.2     1  UNL1        0.0030
     29  C         17.2110  -22.1240  -10.8330 C.2     1  UNL1        0.0430
     30  C         17.8110  -22.6610   -9.6920 C.2     1  UNL1        0.1250
     31  F         17.0780  -23.5360   -8.9910 F       1  UNL1       -0.2050
@<TRIPOS>BOND
     1    17    16    1
     2    18    16    2
     3    18    19    1
     4    16    15    1
     5    19    13    2
     6    15    14    2
     7    13    14    1
     8    13    11    1
     9    11    10    1
    10    11    12    1
    11    10     9    2
    12    12     8    2
    13     9     8    1
    14    28    27    2
    15    28    29    1
    16    27    26    1
    17     8     7    1
    18    29    30    2
    19    26    25    2
    20    30    25    1
    21    30    31    1
    22     7     4    1
    23     3     4    1
    24     3     2    1
    25    25     1    1
    26     4     5    1
    27     5     6    1
    28     2     1    1
    29     1     6    1
    30     1    20    1
    31    24    20    1
    32    20    21   am
    33    21    23    2
    34    21    22    1
