@<TRIPOS>MOLECULE
51006_out_ligand_01.pdbqt
 31 33 0 0 0
SMALL
GASTEIGER

@<TRIPOS>ATOM
      1  C         19.1260  -22.7790  -10.0780 C.2     1  UNL1        0.0290
      2  C         18.5580  -21.9620  -11.0660 C.2     1  UNL1        0.0250
      3  C         19.3560  -21.0970  -11.8100 C.2     1  UNL1        0.0030
      4  C         20.7270  -21.0500  -11.5740 C.2     1  UNL1        0.0170
      5  C         21.2990  -21.8780  -10.5950 C.2     1  UNL1        0.0390
      6  C         20.5080  -22.7620   -9.8330 C.2     1  UNL1       -0.0240
      7  C         21.1360  -23.6220   -8.7690 C.3     1  UNL1        0.0510
      8  N         18.2690  -23.6920   -9.3680 N.pl3   1  UNL1       -0.1810
      9  H         18.7530  -24.0730   -8.5530 H       1  UNL1        0.1460
     10  S         16.8330  -22.9680   -8.7870 S.O2    1  UNL1        0.2450
     11  O         16.6560  -21.7470   -9.5480 O.2     1  UNL1       -0.2060
     12  O         15.7860  -23.9610   -8.6830 O.2     1  UNL1       -0.2060
     13  C         17.3320  -22.5270   -7.1420 C.2     1  UNL1        0.0740
     14  C         18.5360  -21.8500   -6.9370 C.2     1  UNL1        0.0250
     15  C         18.9130  -21.4980   -5.6390 C.2     1  UNL1        0.0080
     16  C         18.0840  -21.8010   -4.5500 C.2     1  UNL1       -0.0620
     17  C         18.5050  -21.4490   -3.1530 C.3     1  UNL1        0.0480
     18  C         16.8780  -22.4800   -4.7730 C.2     1  UNL1        0.0080
     19  C         16.4940  -22.8360   -6.0670 C.2     1  UNL1        0.0250
     20  C         22.7630  -21.7770  -10.3760 C.2     1  UNL1        0.2520
     21  O         23.2140  -21.0250   -9.5200 O.2     1  UNL1       -0.2680
     22  N         23.5250  -22.5710  -11.2000 N.am    1  UNL1       -0.3530
     23  H         23.0720  -23.1570  -11.8880 H       1  UNL1        0.1630
     24  C         24.9670  -22.5060  -11.2060 C.3     1  UNL1        0.1610
     25  C         25.4390  -21.3930  -12.1080 C.2     1  UNL1       -0.0400
     26  C         26.3160  -20.4150  -11.6150 C.2     1  UNL1        0.0100
     27  C         26.7410  -19.3660  -12.4350 C.2     1  UNL1        0.0240
     28  C         26.2850  -19.2890  -13.7480 C.2     1  UNL1        0.0340
     29 CL         26.8040  -17.9950  -14.7580 Cl      1  UNL1       -0.0840
     30  C         25.4080  -20.2480  -14.2500 C.2     1  UNL1        0.0240
     31  C         24.9830  -21.2970  -13.4300 C.2     1  UNL1        0.0100
@<TRIPOS>BOND
     1    29    28    1
     2    30    28    2
     3    30    31    1
     4    28    27    1
     5    31    25    2
     6    27    26    2
     7    25    26    1
     8    25    24    1
     9    23    22    1
    10     3     4    2
    11     3     2    1
    12     4     5    1
    13    24    22    1
    14    22    20   am
    15     2     1    2
    16     5    20    1
    17     5     6    2
    18    20    21    2
    19     1     6    1
    20     1     8    1
    21     6     7    1
    22    11    10    2
    23     8    10    1
    24     8     9    1
    25    10    12    2
    26    10    13    1
    27    13    14    2
    28    13    19    1
    29    14    15    1
    30    19    18    2
    31    15    16    2
    32    18    16    1
    33    16    17    1
