@<TRIPOS>MOLECULE
51004_out_ligand_01.pdbqt
 30 32 0 0 0
SMALL
GASTEIGER

@<TRIPOS>ATOM
      1  C         19.1700  -22.2300  -10.3990 C.2     1  UNL1        0.0400
      2  C         18.8520  -21.1170  -11.1950 C.2     1  UNL1        0.0180
      3  C         19.7910  -20.6070  -12.0860 C.2     1  UNL1        0.0030
      4  C         21.0460  -21.2040  -12.1810 C.2     1  UNL1        0.0250
      5  C         21.3640  -22.3180  -11.3910 C.2     1  UNL1        0.0290
      6  C         20.4310  -22.8520  -10.4860 C.2     1  UNL1       -0.0240
      7  C         20.7750  -24.0260   -9.6090 C.3     1  UNL1        0.0510
      8  C         18.1330  -22.7230   -9.4550 C.2     1  UNL1        0.2560
      9  N         18.4320  -22.4700   -8.1290 N.am    1  UNL1       -0.3230
     10  H         19.2730  -21.9370   -7.9480 H       1  UNL1        0.1690
     11  O         17.1360  -23.2710   -9.9060 O.2     1  UNL1       -0.2670
     12  C         17.6650  -22.8210   -6.9970 C.2     1  UNL1        0.0360
     13  C         18.1040  -23.6900   -5.9990 C.2     1  UNL1        0.0300
     14  C         17.2860  -23.9860   -4.9020 C.2     1  UNL1        0.0110
     15  C         16.0120  -23.4180   -4.7790 C.2     1  UNL1       -0.0400
     16  C         15.1590  -23.7590   -3.5910 C.3     1  UNL1        0.0500
     17  C         15.5750  -22.5450   -5.7840 C.2     1  UNL1        0.0420
     18  C         16.3940  -22.2480   -6.8800 C.2     1  UNL1        0.0530
     19 CL         14.0180  -21.7990   -5.7180 Cl      1  UNL1       -0.0840
     20  N         22.6890  -22.8690  -11.4810 N.pl3   1  UNL1       -0.1810
     21  H         23.0780  -22.7140  -12.4140 H       1  UNL1        0.1460
     22  S         23.8000  -22.1730  -10.3830 S.O2    1  UNL1        0.2450
     23  O         24.5390  -23.2070   -9.6940 O.2     1  UNL1       -0.2060
     24  O         23.0700  -21.1450   -9.6720 O.2     1  UNL1       -0.2060
     25  C         24.9160  -21.3790  -11.5140 C.2     1  UNL1        0.0740
     26  C         25.9950  -20.6500  -11.0050 C.2     1  UNL1        0.0250
     27  C         26.8680  -20.0110  -11.8860 C.2     1  UNL1        0.0020
     28  C         26.6570  -20.1010  -13.2630 C.2     1  UNL1        0.0000
     29  C         25.5750  -20.8240  -13.7650 C.2     1  UNL1        0.0020
     30  C         24.6940  -21.4640  -12.8910 C.2     1  UNL1        0.0250
@<TRIPOS>BOND
     1    29    28    2
     2    29    30    1
     3    28    27    1
     4    30    25    2
     5    21    20    1
     6     4     3    2
     7     4     5    1
     8     3     2    1
     9    27    26    2
    10    25    26    1
    11    25    22    1
    12    20     5    1
    13    20    22    1
    14     5     6    2
    15     2     1    2
    16     6     1    1
    17     6     7    1
    18     1     8    1
    19    22    23    2
    20    22    24    2
    21    11     8    2
    22     8     9   am
    23     9    10    1
    24     9    12    1
    25    12    18    2
    26    12    13    1
    27    18    17    1
    28    13    14    2
    29    17    19    1
    30    17    15    2
    31    14    15    1
    32    15    16    1
