@<TRIPOS>MOLECULE
51013_out_ligand_01.pdbqt
 40 43 0 0 0
SMALL
GASTEIGER

@<TRIPOS>ATOM
      1  N         22.3340  -22.2510  -10.5740 N.am    1  UNL1       -0.3230
      2  C         22.5920  -22.8960   -9.3780 C.2     1  UNL1        0.2560
      3  O         23.5960  -23.5090   -9.0520 O.2     1  UNL1       -0.2670
      4  H         21.4730  -21.7160  -10.6240 H       1  UNL1        0.1690
      5  C         23.0950  -22.3070  -11.7570 C.2     1  UNL1        0.0350
      6  C         22.6730  -21.4980  -12.8200 C.2     1  UNL1        0.0310
      7  C         23.3140  -21.5570  -14.0580 C.2     1  UNL1        0.0270
      8  C         24.3850  -22.4340  -14.2340 C.2     1  UNL1        0.0800
      9  C         24.8530  -23.2050  -13.1710 C.2     1  UNL1        0.0270
     10  C         24.2010  -23.1440  -11.9350 C.2     1  UNL1        0.0310
     11  S         25.1390  -22.6010  -15.8360 S.O2    1  UNL1        0.2630
     12  O         24.3710  -21.8030  -16.7670 O.2     1  UNL1       -0.2000
     13  O         25.3830  -24.0070  -16.0760 O.2     1  UNL1       -0.2000
     14  N         26.6190  -21.8020  -15.6390 N.pl3   1  UNL1       -0.2810
     15  H         27.3980  -22.3700  -15.9670 H       1  UNL1        0.1790
     16  C         26.6770  -20.4010  -15.8870 C.2     1  UNL1        0.0420
     17  C         26.9630  -19.9490  -17.1750 C.2     1  UNL1        0.0300
     18  C         26.9540  -18.5790  -17.4540 C.2     1  UNL1        0.0090
     19  C         26.6740  -17.6520  -16.4430 C.2     1  UNL1       -0.0620
     20  C         26.6390  -16.1840  -16.7550 C.3     1  UNL1        0.0480
     21  C         26.3780  -18.1150  -15.1560 C.2     1  UNL1        0.0090
     22  C         26.3820  -19.4860  -14.8780 C.2     1  UNL1        0.0300
     23  C         21.4780  -22.7830   -8.4060 C.2     1  UNL1        0.0400
     24  C         21.4620  -21.6450   -7.5890 C.2     1  UNL1        0.0180
     25  C         20.3940  -21.4320   -6.7240 C.2     1  UNL1        0.0030
     26  C         19.3400  -22.3420   -6.6940 C.2     1  UNL1        0.0310
     27  C         19.3610  -23.4910   -7.4950 C.2     1  UNL1        0.0490
     28  C         20.4580  -23.7580   -8.3330 C.2     1  UNL1       -0.0190
     29  C         20.5420  -25.0200   -9.1530 C.3     1  UNL1        0.0520
     30  N         18.2060  -24.3260   -7.5120 N.pl3   1  UNL1       -0.2800
     31  H         18.2920  -25.2880   -7.8350 H       1  UNL1        0.1790
     32  S         16.7090  -23.6530   -7.9170 S.O2    1  UNL1        0.2630
     33  O         17.0040  -22.4270   -8.6260 O.2     1  UNL1       -0.2000
     34  O         15.8640  -24.6740   -8.4980 O.2     1  UNL1       -0.2000
     35  C         16.0140  -23.2070   -6.3370 C.2     1  UNL1        0.0790
     36  C         15.0080  -22.2330   -6.2750 C.2     1  UNL1        0.0250
     37  C         14.4670  -21.8770   -5.0400 C.2     1  UNL1        0.0020
     38  C         14.9430  -22.4750   -3.8710 C.2     1  UNL1        0.0000
     39  C         15.9620  -23.4290   -3.9340 C.2     1  UNL1        0.0020
     40  C         16.5070  -23.7940   -5.1670 C.2     1  UNL1        0.0250
@<TRIPOS>BOND
     1    18    17    1
     2    18    19    2
     3    17    16    2
     4    12    11    2
     5    20    19    1
     6    19    21    1
     7    13    11    2
     8    15    14    1
     9    16    14    1
    10    16    22    1
    11    11    14    1
    12    11     8    1
    13    21    22    2
    14     8     7    2
    15     8     9    1
    16     7     6    1
    17     9    10    2
    18     6     5    2
    19    10     5    1
    20     5     1    1
    21     4     1    1
    22     1     2   am
    23     2     3    2
    24     2    23    1
    25    29    28    1
    26    33    32    2
    27    34    32    2
    28    23    28    2
    29    23    24    1
    30    28    27    1
    31    32    30    1
    32    32    35    1
    33    31    30    1
    34    24    25    2
    35    30    27    1
    36    27    26    2
    37    25    26    1
    38    35    36    2
    39    35    40    1
    40    36    37    1
    41    40    39    2
    42    37    38    2
    43    39    38    1
