@<TRIPOS>MOLECULE
51015_out_ligand_01.pdbqt
 31 33 0 0 0
SMALL
GASTEIGER

@<TRIPOS>ATOM
      1  C         22.1780  -22.5410  -11.3840 C.2     1  UNL1        0.0290
      2  C         21.4910  -21.6760  -12.2470 C.2     1  UNL1        0.0250
      3  C         20.1640  -21.3300  -12.0060 C.2     1  UNL1        0.0030
      4  C         19.5170  -21.8360  -10.8860 C.2     1  UNL1        0.0180
      5  C         20.2020  -22.6900  -10.0100 C.2     1  UNL1        0.0400
      6  C         21.5340  -23.0920  -10.2590 C.2     1  UNL1       -0.0240
      7  C         22.2270  -24.0560   -9.3340 C.3     1  UNL1        0.0510
      8  N         23.5390  -22.8620  -11.7190 N.pl3   1  UNL1       -0.1810
      9  H         23.7390  -22.7730  -12.7140 H       1  UNL1        0.1460
     10  S         24.7180  -21.9750  -10.8540 S.O2    1  UNL1        0.2450
     11  O         24.0050  -21.1500   -9.9020 O.2     1  UNL1       -0.2060
     12  O         25.8040  -22.8450  -10.4590 O.2     1  UNL1       -0.2060
     13  C         25.3270  -20.9210  -12.1480 C.2     1  UNL1        0.0740
     14  C         26.3300  -19.9940  -11.8490 C.2     1  UNL1        0.0250
     15  C         26.8190  -19.1630  -12.8560 C.2     1  UNL1        0.0080
     16  C         26.3160  -19.2590  -14.1610 C.2     1  UNL1       -0.0620
     17  C         26.8180  -18.3380  -15.2370 C.3     1  UNL1        0.0480
     18  C         25.2930  -20.1770  -14.4400 C.2     1  UNL1        0.0080
     19  C         24.7980  -21.0130  -13.4360 C.2     1  UNL1        0.0250
     20  C         19.4490  -23.1390   -8.8120 C.2     1  UNL1        0.2560
     21  O         19.4670  -24.3280   -8.5240 O.2     1  UNL1       -0.2670
     22  N         18.7560  -22.1240   -8.1790 N.am    1  UNL1       -0.3230
     23  H         18.7890  -21.2130   -8.6220 H       1  UNL1        0.1690
     24  C         17.9720  -22.2260   -7.0120 C.2     1  UNL1        0.0360
     25  C         16.6520  -22.6820   -7.0010 C.2     1  UNL1        0.0310
     26  C         15.9380  -22.7600   -5.7990 C.2     1  UNL1        0.0280
     27  C         16.5360  -22.3830   -4.5960 C.2     1  UNL1        0.0550
     28 CL         15.5980  -22.5070   -3.1530 Cl      1  UNL1       -0.0830
     29  C         17.8570  -21.9280   -4.5990 C.2     1  UNL1        0.0580
     30 CL         18.6730  -21.4430   -3.1530 Cl      1  UNL1       -0.0820
     31  C         18.5690  -21.8500   -5.8020 C.2     1  UNL1        0.0550
@<TRIPOS>BOND
     1    17    16    1
     2    18    16    2
     3    18    19    1
     4    16    15    1
     5    19    13    2
     6    15    14    2
     7     9     8    1
     8     2     3    1
     9     2     1    2
    10    13    14    1
    11    13    10    1
    12     3     4    2
    13     8     1    1
    14     8    10    1
    15     1     6    1
    16     4     5    1
    17    10    12    2
    18    10    11    2
    19     6     5    2
    20     6     7    1
    21     5    20    1
    22    20    21    2
    23    20    22   am
    24    23    22    1
    25    22    24    1
    26    24    25    2
    27    24    31    1
    28    25    26    1
    29    31    29    2
    30    26    27    2
    31    29    27    1
    32    29    30    1
    33    27    28    1
