@<TRIPOS>MOLECULE
51024_out_ligand_01.pdbqt
 41 44 0 0 0
SMALL
GASTEIGER

@<TRIPOS>ATOM
      1  N         21.1420  -22.1680   -8.0390 N.am    1  UNL1       -0.3230
      2  C         19.9210  -22.7530   -7.7510 C.2     1  UNL1        0.2560
      3  O         19.3040  -23.5540   -8.4410 O.2     1  UNL1       -0.2670
      4  H         21.5470  -21.5600   -7.3370 H       1  UNL1        0.1690
      5  C         21.9100  -22.3250   -9.2110 C.2     1  UNL1        0.0350
      6  C         21.4830  -21.9350  -10.4820 C.2     1  UNL1        0.0310
      7  C         22.3250  -22.0800  -11.5890 C.2     1  UNL1        0.0270
      8  C         23.6100  -22.5970  -11.4180 C.2     1  UNL1        0.0750
      9  C         24.0340  -23.0310  -10.1620 C.2     1  UNL1        0.0270
     10  C         23.1820  -22.8950   -9.0650 C.2     1  UNL1        0.0310
     11  S         24.7160  -22.6850  -12.8100 S.O2    1  UNL1        0.2450
     12  O         24.7210  -24.0570  -13.2710 O.2     1  UNL1       -0.2060
     13  O         25.9460  -22.0170  -12.4380 O.2     1  UNL1       -0.2060
     14  N         23.9290  -21.7730  -14.0030 N.pl3   1  UNL1       -0.1790
     15  H         23.2060  -21.1900  -13.5770 H       1  UNL1        0.1460
     16  C         24.7530  -21.0550  -14.9320 C.2     1  UNL1        0.0560
     17  C         25.3840  -19.8730  -14.5450 C.2     1  UNL1        0.0340
     18  C         26.1050  -19.1250  -15.4820 C.2     1  UNL1       -0.0600
     19  C         26.1950  -19.5880  -16.7990 C.2     1  UNL1        0.0090
     20  C         26.8100  -17.8690  -15.0610 C.3     1  UNL1        0.0480
     21  C         25.5690  -20.7780  -17.1870 C.2     1  UNL1        0.0390
     22  C         24.8440  -21.5190  -16.2560 C.2     1  UNL1        0.0900
     23  O         24.2000  -22.7060  -16.5140 O.2     1  UNL1       -0.3540
     24  C         24.2690  -23.1960  -17.8480 C.3     1  UNL1        0.2100
     25  C         19.3230  -22.3330   -6.4540 C.2     1  UNL1        0.0340
     26  C         19.6140  -21.0560   -5.9600 C.2     1  UNL1        0.0170
     27  C         19.0220  -20.6140   -4.7770 C.2     1  UNL1        0.0030
     28  C         18.1380  -21.4470   -4.0880 C.2     1  UNL1        0.0300
     29  C         17.8790  -22.7330   -4.5600 C.2     1  UNL1        0.0430
     30  C         18.4810  -23.1870   -5.7320 C.2     1  UNL1        0.0470
     31  N         16.9040  -23.5450   -3.9180 N.pl3   1  UNL1       -0.2810
     32  H         17.1580  -24.5020   -3.6770 H       1  UNL1        0.1790
     33  S         15.3030  -23.4450   -4.4720 S.O2    1  UNL1        0.2630
     34  O         14.7460  -22.1660   -4.0890 O.2     1  UNL1       -0.2000
     35  O         14.6720  -24.6920   -4.0970 O.2     1  UNL1       -0.2000
     36  C         15.4980  -23.4580   -6.2420 C.2     1  UNL1        0.0790
     37  C         15.6210  -24.6800   -6.9150 C.2     1  UNL1        0.0250
     38  C         15.7980  -24.6840   -8.2990 C.2     1  UNL1        0.0020
     39  C         15.8420  -23.4800   -9.0020 C.2     1  UNL1        0.0000
     40  C         15.6950  -22.2670   -8.3310 C.2     1  UNL1        0.0020
     41  C         15.5170  -22.2500   -6.9460 C.2     1  UNL1        0.0250
@<TRIPOS>BOND
     1    24    23    1
     2    21    19    2
     3    21    22    1
     4    19    18    1
     5    23    22    1
     6    22    16    2
     7    18    20    1
     8    18    17    2
     9    16    17    1
    10    16    14    1
    11    14    15    1
    12    14    11    1
    13    12    11    2
    14    11    13    2
    15    11     8    1
    16     7     8    2
    17     7     6    1
    18     8     9    1
    19     6     5    2
    20     9    10    2
    21     5    10    1
    22     5     1    1
    23    39    40    2
    24    39    38    1
    25     3     2    2
    26    40    41    1
    27    38    37    2
    28     1     2   am
    29     1     4    1
    30     2    25    1
    31    41    36    2
    32    37    36    1
    33    25    26    2
    34    25    30    1
    35    36    33    1
    36    26    27    1
    37    30    29    2
    38    27    28    2
    39    29    28    1
    40    29    31    1
    41    33    35    2
    42    33    34    2
    43    33    31    1
    44    31    32    1
