@<TRIPOS>MOLECULE
51021_out_ligand_01.pdbqt
 30 32 0 0 0
SMALL
GASTEIGER

@<TRIPOS>ATOM
      1  C         18.7860  -22.1100  -10.2510 C.2     1  UNL1        0.0330
      2  C         18.5690  -21.1940  -11.2850 C.2     1  UNL1        0.0170
      3  C         19.5960  -20.8990  -12.1880 C.2     1  UNL1        0.0090
      4  C         20.8540  -21.5130  -12.0740 C.2     1  UNL1       -0.0400
      5  C         21.9190  -21.1560  -13.0710 C.3     1  UNL1        0.0500
      6  C         21.0510  -22.4610  -11.0600 C.2     1  UNL1        0.0290
      7  C         20.0230  -22.7600  -10.1590 C.2     1  UNL1        0.0420
      8  C         17.7430  -22.4480   -9.2420 C.2     1  UNL1        0.2510
      9  N         18.1620  -23.1230   -8.1180 N.am    1  UNL1       -0.3530
     10  H         19.1290  -23.3790   -7.9930 H       1  UNL1        0.1630
     11  O         16.5710  -22.1530   -9.4530 O.2     1  UNL1       -0.2680
     12  C         17.2540  -23.4770   -7.0490 C.3     1  UNL1        0.1620
     13  C         17.5870  -22.6950   -5.8010 C.2     1  UNL1       -0.0350
     14  C         18.6460  -21.7720   -5.8650 C.2     1  UNL1        0.0090
     15  C         19.0100  -21.0190   -4.7500 C.2     1  UNL1        0.0010
     16  C         18.3270  -21.1830   -3.5510 C.2     1  UNL1        0.0010
     17  C         17.2860  -22.1080   -3.4640 C.2     1  UNL1        0.0070
     18  C         16.9120  -22.8820   -4.5770 C.2     1  UNL1       -0.0540
     19  C         15.7680  -23.8500   -4.4350 C.3     1  UNL1        0.0490
     20  N         22.2810  -23.1850  -10.9500 N.pl3   1  UNL1       -0.1810
     21  H         22.7400  -23.3510  -11.8480 H       1  UNL1        0.1460
     22  S         23.4570  -22.5280   -9.9090 S.O2    1  UNL1        0.2450
     23  O         22.9520  -21.2300   -9.5160 O.2     1  UNL1       -0.2060
     24  O         23.8770  -23.5100   -8.9340 O.2     1  UNL1       -0.2060
     25  C         24.8070  -22.2380  -11.0270 C.2     1  UNL1        0.0740
     26  C         25.6490  -21.1380  -10.8420 C.2     1  UNL1        0.0250
     27  C         26.6960  -20.9160  -11.7370 C.2     1  UNL1        0.0020
     28  C         26.8910  -21.7830  -12.8140 C.2     1  UNL1        0.0000
     29  C         26.0400  -22.8730  -13.0020 C.2     1  UNL1        0.0020
     30  C         24.9900  -23.1020  -12.1120 C.2     1  UNL1        0.0250
@<TRIPOS>BOND
     1     5     4    1
     2    29    28    2
     3    29    30    1
     4    28    27    1
     5     3     4    2
     6     3     2    1
     7    30    25    2
     8     4     6    1
     9    21    20    1
    10    27    26    2
    11     2     1    2
    12     6    20    1
    13     6     7    2
    14    25    26    1
    15    25    22    1
    16    20    22    1
    17     1     7    1
    18     1     8    1
    19    22    23    2
    20    22    24    2
    21    11     8    2
    22     8     9   am
    23     9    10    1
    24     9    12    1
    25    12    13    1
    26    14    13    2
    27    14    15    1
    28    13    18    1
    29    15    16    2
    30    18    19    1
    31    18    17    2
    32    16    17    1
