@<TRIPOS>MOLECULE
51030_out_ligand_01.pdbqt
 31 33 0 0 0
SMALL
GASTEIGER

@<TRIPOS>ATOM
      1  C         18.9140  -21.7460  -11.1720 C.2     1  UNL1        0.0330
      2  C         19.3090  -20.7830  -12.1070 C.2     1  UNL1        0.0170
      3  C         20.6240  -20.7610  -12.5800 C.2     1  UNL1        0.0090
      4  C         21.5670  -21.6970  -12.1280 C.2     1  UNL1       -0.0400
      5  C         22.9770  -21.6170  -12.6400 C.3     1  UNL1        0.0500
      6  C         21.1710  -22.6440  -11.1730 C.2     1  UNL1        0.0290
      7  C         19.8580  -22.6640  -10.6920 C.2     1  UNL1        0.0420
      8  C         17.5270  -21.8170  -10.6260 C.2     1  UNL1        0.2510
      9  N         17.1550  -22.9900  -10.0120 N.am    1  UNL1       -0.3530
     10  H         17.8470  -23.6820   -9.7680 H       1  UNL1        0.1630
     11  O         16.7820  -20.8470  -10.7130 O.2     1  UNL1       -0.2680
     12  C         15.8600  -23.1080   -9.3800 C.3     1  UNL1        0.1610
     13  C         16.0140  -23.2710   -7.8920 C.2     1  UNL1       -0.0410
     14  C         15.3810  -22.3800   -7.0160 C.2     1  UNL1        0.0090
     15  C         15.4940  -22.5470   -5.6330 C.2     1  UNL1        0.0070
     16  C         16.2270  -23.6160   -5.1030 C.2     1  UNL1       -0.0620
     17  C         16.3730  -23.7700   -3.6190 C.3     1  UNL1        0.0480
     18  C         16.8680  -24.5000   -5.9790 C.2     1  UNL1        0.0070
     19  C         16.7540  -24.3350   -7.3610 C.2     1  UNL1        0.0090
     20  N         22.1240  -23.5600  -10.6190 N.pl3   1  UNL1       -0.1810
     21  H         21.6720  -24.4000  -10.2460 H       1  UNL1        0.1460
     22  S         23.0770  -22.9370   -9.3440 S.O2    1  UNL1        0.2450
     23  O         23.7140  -21.7470   -9.8690 O.2     1  UNL1       -0.2060
     24  O         23.8310  -23.9970   -8.7110 O.2     1  UNL1       -0.2060
     25  C         21.8160  -22.4050   -8.2110 C.2     1  UNL1        0.0740
     26  C         22.0210  -21.2500   -7.4510 C.2     1  UNL1        0.0250
     27  C         21.0420  -20.8410   -6.5430 C.2     1  UNL1        0.0080
     28  C         19.8630  -21.5800   -6.3880 C.2     1  UNL1       -0.0620
     29  C         18.8270  -21.1690   -5.3840 C.3     1  UNL1        0.0480
     30  C         19.6830  -22.7490   -7.1400 C.2     1  UNL1        0.0080
     31  C         20.6560  -23.1650   -8.0510 C.2     1  UNL1        0.0250
@<TRIPOS>BOND
     1     5     4    1
     2     3     4    2
     3     3     2    1
     4     4     6    1
     5     2     1    2
     6     6     7    2
     7     6    20    1
     8     1     7    1
     9     1     8    1
    10    11     8    2
    11     8     9   am
    12    20    21    1
    13    20    22    1
    14     9    10    1
    15     9    12    1
    16    23    22    2
    17    12    13    1
    18    22    24    2
    19    22    25    1
    20    25    31    2
    21    25    26    1
    22    31    30    1
    23    13    19    2
    24    13    14    1
    25    26    27    2
    26    19    18    1
    27    30    28    2
    28    14    15    2
    29    27    28    1
    30    28    29    1
    31    18    16    2
    32    15    16    1
    33    16    17    1
