@<TRIPOS>MOLECULE
51036_out_ligand_01.pdbqt
 40 43 0 0 0
SMALL
GASTEIGER

@<TRIPOS>ATOM
      1  N         21.2690  -22.0870   -8.2560 N.am    1  UNL1       -0.3230
      2  C         20.2170  -22.8730   -7.8170 C.2     1  UNL1        0.2560
      3  O         19.8070  -23.9050   -8.3360 O.2     1  UNL1       -0.2670
      4  H         21.4030  -21.1940   -7.7980 H       1  UNL1        0.1690
      5  C         22.1480  -22.3580   -9.3260 C.2     1  UNL1        0.0350
      6  C         21.7940  -21.8530  -10.5850 C.2     1  UNL1        0.0310
      7  C         22.6110  -22.0640  -11.6980 C.2     1  UNL1        0.0270
      8  C         23.7910  -22.7960  -11.5550 C.2     1  UNL1        0.0800
      9  C         24.1690  -23.2840  -10.3040 C.2     1  UNL1        0.0270
     10  C         23.3430  -23.0700   -9.1960 C.2     1  UNL1        0.0310
     11  S         24.8550  -23.0380  -12.9620 S.O2    1  UNL1        0.2630
     12  O         26.0910  -22.3320  -12.6910 O.2     1  UNL1       -0.2000
     13  O         24.8590  -24.4470  -13.2840 O.2     1  UNL1       -0.2000
     14  N         24.0920  -22.1680  -14.1880 N.pl3   1  UNL1       -0.2800
     15  H         23.3510  -22.6970  -14.6410 H       1  UNL1        0.1790
     16  C         24.8290  -21.2290  -14.9650 C.2     1  UNL1        0.0480
     17  C         25.1790  -19.9980  -14.4040 C.2     1  UNL1        0.0310
     18  C         25.9250  -19.0730  -15.1350 C.2     1  UNL1        0.0090
     19  C         26.3360  -19.3710  -16.4360 C.2     1  UNL1       -0.0610
     20  C         27.1150  -18.3690  -17.2380 C.3     1  UNL1        0.0480
     21  C         25.9620  -20.5950  -17.0050 C.2     1  UNL1        0.0150
     22  C         25.2100  -21.5360  -16.2810 C.2     1  UNL1       -0.0340
     23  C         24.8300  -22.8310  -16.9420 C.3     1  UNL1        0.0500
     24  C         19.5050  -22.3660   -6.6090 C.2     1  UNL1        0.0340
     25  C         19.8140  -21.0820   -6.1380 C.2     1  UNL1        0.0170
     26  C         19.1730  -20.5750   -5.0070 C.2     1  UNL1        0.0030
     27  C         18.2150  -21.3430   -4.3450 C.2     1  UNL1        0.0300
     28  C         17.8880  -22.6070   -4.8300 C.2     1  UNL1        0.0430
     29  C         18.5240  -23.1220   -5.9610 C.2     1  UNL1        0.0470
     30  N         16.9450  -23.4180   -4.1410 N.pl3   1  UNL1       -0.2810
     31  H         17.2280  -24.3690   -3.9040 H       1  UNL1        0.1790
     32  S         15.3450  -23.4020   -4.6970 S.O2    1  UNL1        0.2630
     33  O         14.8100  -22.1040   -4.3500 O.2     1  UNL1       -0.2000
     34  O         14.6870  -24.6200   -4.2750 O.2     1  UNL1       -0.2000
     35  C         15.5490  -23.4420   -6.4600 C.2     1  UNL1        0.0790
     36  C         15.6600  -24.6710   -7.1210 C.2     1  UNL1        0.0250
     37  C         15.8150  -24.6910   -8.5070 C.2     1  UNL1        0.0020
     38  C         15.8510  -23.4930   -9.2230 C.2     1  UNL1        0.0000
     39  C         15.7350  -22.2700   -8.5590 C.2     1  UNL1        0.0020
     40  C         15.5790  -22.2390   -7.1730 C.2     1  UNL1        0.0250
@<TRIPOS>BOND
     1    20    19    1
     2    21    19    2
     3    21    22    1
     4    23    22    1
     5    19    18    1
     6    22    16    2
     7    18    17    2
     8    16    17    1
     9    16    14    1
    10    15    14    1
    11    14    11    1
    12    13    11    2
    13    11    12    2
    14    11     8    1
    15     7     8    2
    16     7     6    1
    17     8     9    1
    18     6     5    2
    19     9    10    2
    20     5    10    1
    21     5     1    1
    22    38    39    2
    23    38    37    1
    24    39    40    1
    25    37    36    2
    26     3     2    2
    27     1     2   am
    28     1     4    1
    29     2    24    1
    30    40    35    2
    31    36    35    1
    32    24    25    2
    33    24    29    1
    34    35    32    1
    35    25    26    1
    36    29    28    2
    37    26    27    2
    38    28    27    1
    39    28    30    1
    40    32    33    2
    41    32    34    2
    42    32    30    1
    43    30    31    1
