@<TRIPOS>MOLECULE
51034_out_ligand_01.pdbqt
 33 35 0 0 0
SMALL
GASTEIGER

@<TRIPOS>ATOM
      1  C         23.7570  -22.4420  -11.1380 C.2     1  UNL1        0.0280
      2  C         23.9130  -23.0720   -9.8980 C.2     1  UNL1        0.0260
      3  C         22.7980  -23.4440   -9.1460 C.2     1  UNL1        0.0190
      4  C         21.5150  -23.1660   -9.6280 C.2     1  UNL1        0.0330
      5  C         21.3590  -22.5460  -10.8760 C.2     1  UNL1        0.0250
      6  C         22.4750  -22.1710  -11.6450 C.2     1  UNL1       -0.0390
      7  C         22.2500  -21.4790  -12.9580 C.3     1  UNL1        0.0500
      8  C         20.2970  -23.5340   -8.8550 C.2     1  UNL1        0.2560
      9  O         20.1240  -24.7130   -8.5740 O.2     1  UNL1       -0.2670
     10  N         19.4550  -22.4740   -8.5660 N.am    1  UNL1       -0.3230
     11  H         19.6750  -21.5850   -8.9970 H       1  UNL1        0.1690
     12  C         18.2620  -22.5100   -7.8140 C.2     1  UNL1        0.0350
     13  C         18.3720  -22.3260   -6.4300 C.2     1  UNL1        0.0300
     14  C         17.2380  -22.3540   -5.6130 C.2     1  UNL1        0.0180
     15  C         15.9680  -22.5780   -6.1630 C.2     1  UNL1        0.0480
     16  C         15.8620  -22.7560   -7.5480 C.2     1  UNL1        0.0180
     17  C         17.0000  -22.7270   -8.3650 C.2     1  UNL1        0.0300
     18  C         14.7410  -22.5890   -5.2870 C.3     1  UNL1        0.4170
     19  F         14.9680  -22.0630   -4.0500 F       1  UNL1       -0.1660
     20  F         13.7180  -21.8630   -5.8170 F       1  UNL1       -0.1660
     21  F         14.2430  -23.8380   -5.0710 F       1  UNL1       -0.1660
     22  N         24.9490  -22.0290  -11.8220 N.pl3   1  UNL1       -0.1810
     23  H         25.6980  -21.7950  -11.1690 H       1  UNL1        0.1460
     24  S         25.5870  -23.1910  -12.9000 S.O2    1  UNL1        0.2450
     25  O         24.7390  -24.3620  -12.9430 O.2     1  UNL1       -0.2060
     26  O         27.0030  -23.2780  -12.6100 O.2     1  UNL1       -0.2060
     27  C         25.3920  -22.3380  -14.4450 C.2     1  UNL1        0.0740
     28  C         25.6710  -20.9710  -14.5070 C.2     1  UNL1        0.0250
     29  C         25.5000  -20.2880  -15.7130 C.2     1  UNL1        0.0080
     30  C         25.0380  -20.9640  -16.8500 C.2     1  UNL1       -0.0620
     31  C         24.8810  -20.2330  -18.1530 C.3     1  UNL1        0.0480
     32  C         24.7670  -22.3370  -16.7740 C.2     1  UNL1        0.0080
     33  C         24.9340  -23.0250  -15.5710 C.2     1  UNL1        0.0250
@<TRIPOS>BOND
     1    31    30    1
     2    30    32    2
     3    30    29    1
     4    32    33    1
     5    29    28    2
     6    33    27    2
     7    28    27    1
     8    27    24    1
     9     7     6    1
    10    25    24    2
    11    24    26    2
    12    24    22    1
    13    22    23    1
    14    22     1    1
    15     6     1    2
    16     6     5    1
    17     1     2    1
    18     5     4    2
    19     2     3    2
    20     4     3    1
    21     4     8    1
    22    11    10    1
    23     8     9    2
    24     8    10   am
    25    10    12    1
    26    17    12    2
    27    17    16    1
    28    12    13    1
    29    16    15    2
    30    13    14    2
    31    15    14    1
    32    15    18    1
    33    20    18    1
    34    18    21    1
    35    18    19    1
