@<TRIPOS>MOLECULE
51032_out_ligand_01.pdbqt
 30 32 0 0 0
SMALL
GASTEIGER

@<TRIPOS>ATOM
      1  C         17.9240  -22.5930   -4.3200 C.2     1  UNL1        0.0230
      2  C         18.0510  -21.2990   -3.8160 C.2     1  UNL1        0.0240
      3  C         18.8720  -20.3740   -4.4620 C.2     1  UNL1        0.0030
      4  C         19.5580  -20.7370   -5.6230 C.2     1  UNL1        0.0170
      5  C         19.4150  -22.0300   -6.1450 C.2     1  UNL1        0.0330
      6  C         18.6060  -22.9610   -5.4800 C.2     1  UNL1        0.0410
      7  N         17.0990  -23.5560   -3.6520 N.pl3   1  UNL1       -0.1810
      8  H         17.1710  -23.5030   -2.6350 H       1  UNL1        0.1460
      9  S         15.4520  -23.5250   -4.0920 S.O2    1  UNL1        0.2450
     10  O         14.8860  -24.8100   -3.7420 O.2     1  UNL1       -0.2060
     11  O         14.8560  -22.2800   -3.6590 O.2     1  UNL1       -0.2060
     12  C         15.5990  -23.4590   -5.8630 C.2     1  UNL1        0.0740
     13  C         15.8580  -24.6230   -6.5880 C.2     1  UNL1        0.0250
     14  C         15.9690  -24.5550   -7.9770 C.2     1  UNL1        0.0080
     15  C         15.8250  -23.3290   -8.6430 C.2     1  UNL1       -0.0620
     16  C         15.9080  -23.2690  -10.1410 C.3     1  UNL1        0.0480
     17  C         15.5410  -22.1730   -7.9020 C.2     1  UNL1        0.0080
     18  C         15.4300  -22.2340   -6.5130 C.2     1  UNL1        0.0250
     19  C         20.1170  -22.4710   -7.3830 C.2     1  UNL1        0.2510
     20  O         21.2800  -22.1430   -7.5820 O.2     1  UNL1       -0.2680
     21  N         19.4060  -23.2790   -8.2410 N.am    1  UNL1       -0.3530
     22  H         18.5500  -23.7160   -7.9320 H       1  UNL1        0.1630
     23  C         20.0320  -23.8250   -9.4230 C.3     1  UNL1        0.1620
     24  C         20.1850  -22.7620  -10.4830 C.2     1  UNL1       -0.0350
     25  C         19.0540  -22.0150  -10.8600 C.2     1  UNL1        0.0090
     26  C         19.1490  -21.0030  -11.8150 C.2     1  UNL1        0.0010
     27  C         20.3760  -20.7190  -12.4030 C.2     1  UNL1        0.0010
     28  C         21.5100  -21.4440  -12.0350 C.2     1  UNL1        0.0070
     29  C         21.4330  -22.4620  -11.0720 C.2     1  UNL1       -0.0540
     30  C         22.6800  -23.2200  -10.7050 C.3     1  UNL1        0.0490
@<TRIPOS>BOND
     1    27    28    2
     2    27    26    1
     3    28    29    1
     4    26    25    2
     5    29    30    1
     6    29    24    2
     7    25    24    1
     8    24    23    1
     9    16    15    1
    10    23    21    1
    11    15    14    2
    12    15    17    1
    13    21    22    1
    14    21    19   am
    15    14    13    1
    16    17    18    2
    17    20    19    2
    18    19     5    1
    19    13    12    2
    20    18    12    1
    21     5     4    2
    22     5     6    1
    23    12     9    1
    24     4     3    1
    25     6     1    2
    26     3     2    2
    27     1     2    1
    28     1     7    1
    29     9    10    2
    30     9    11    2
    31     9     7    1
    32     7     8    1
