@<TRIPOS>MOLECULE
51052_out_ligand_01.pdbqt
 32 34 0 0 0
SMALL
GASTEIGER

@<TRIPOS>ATOM
      1  C         22.2100  -21.3310  -13.4840 C.3     1  UNL1        0.0500
      2  C         21.5400  -21.7770  -12.2150 C.2     1  UNL1       -0.0400
      3  C         20.2860  -21.2420  -11.8800 C.2     1  UNL1        0.0090
      4  C         19.6400  -21.6190  -10.7000 C.2     1  UNL1        0.0170
      5  C         20.2450  -22.5360   -9.8340 C.2     1  UNL1        0.0340
      6  C         21.5150  -23.0420  -10.1370 C.2     1  UNL1        0.0420
      7  C         22.1520  -22.6730  -11.3260 C.2     1  UNL1        0.0290
      8  C         19.5930  -22.9720   -8.5660 C.2     1  UNL1        0.2560
      9  O         19.6260  -24.1630   -8.2770 O.2     1  UNL1       -0.2670
     10  N         18.9610  -21.9670   -7.8550 N.am    1  UNL1       -0.3230
     11  H         18.8980  -21.0600   -8.2980 H       1  UNL1        0.1690
     12  C         18.3050  -22.0830   -6.6100 C.2     1  UNL1        0.0350
     13  C         18.8170  -21.5890   -5.4090 C.2     1  UNL1        0.0290
     14  C         18.1030  -21.7410   -4.2170 C.2     1  UNL1        0.0030
     15  C         16.8680  -22.3840   -4.2140 C.2     1  UNL1        0.0160
     16  C         16.3270  -22.8760   -5.4080 C.2     1  UNL1        0.0500
     17  C         17.0600  -22.7240   -6.6000 C.2     1  UNL1        0.0450
     18  C         15.0010  -23.5910   -5.4160 C.3     1  UNL1        0.4170
     19  F         13.9480  -22.7300   -5.4710 F       1  UNL1       -0.1660
     20  F         14.8490  -24.4380   -6.4720 F       1  UNL1       -0.1660
     21  F         14.8020  -24.3490   -4.3010 F       1  UNL1       -0.1660
     22  N         23.4740  -23.1710  -11.5960 N.pl3   1  UNL1       -0.1810
     23  H         23.5510  -24.1480  -11.3040 H       1  UNL1        0.1460
     24  S         24.7120  -22.3360  -10.7610 S.O2    1  UNL1        0.2450
     25  O         25.5510  -23.3510  -10.1610 O.2     1  UNL1       -0.2060
     26  O         24.1530  -21.2450   -9.9950 O.2     1  UNL1       -0.2060
     27  C         25.5960  -21.6290  -12.1300 C.2     1  UNL1        0.0740
     28  C         26.2020  -20.3780  -11.9770 C.2     1  UNL1        0.0250
     29  C         26.9060  -19.8220  -13.0430 C.2     1  UNL1        0.0020
     30  C         27.0090  -20.5160  -14.2500 C.2     1  UNL1        0.0000
     31  C         26.4120  -21.7710  -14.3940 C.2     1  UNL1        0.0020
     32  C         25.7060  -22.3350  -13.3320 C.2     1  UNL1        0.0250
@<TRIPOS>BOND
     1    31    30    2
     2    31    32    1
     3    30    29    1
     4     1     2    1
     5    32    27    2
     6    29    28    2
     7     2     3    2
     8     2     7    1
     9    27    28    1
    10    27    24    1
    11     3     4    1
    12    22     7    1
    13    22    23    1
    14    22    24    1
    15     7     6    2
    16    24    25    2
    17    24    26    2
    18     4     5    2
    19     6     5    1
    20     5     8    1
    21     8     9    2
    22     8    10   am
    23    11    10    1
    24    10    12    1
    25    12    17    2
    26    12    13    1
    27    17    16    1
    28    20    18    1
    29    19    18    1
    30    18    16    1
    31    18    21    1
    32    13    14    2
    33    16    15    2
    34    14    15    1
