@<TRIPOS>MOLECULE
51061_out_ligand_01.pdbqt
 41 44 0 0 0
SMALL
GASTEIGER

@<TRIPOS>ATOM
      1  C         23.0740  -22.0550  -10.2000 C.2     1  UNL1        0.2560
      2  O         23.4060  -21.0510   -9.5860 O.2     1  UNL1       -0.2670
      3  N         22.0580  -22.9410   -9.9000 N.am    1  UNL1       -0.3230
      4  H         21.9200  -23.7130  -10.5420 H       1  UNL1        0.1690
      5  C         23.8060  -22.3890  -11.4480 C.2     1  UNL1        0.0400
      6  C         25.0220  -23.0680  -11.2860 C.2     1  UNL1        0.0180
      7  C         25.8140  -23.3450  -12.3950 C.2     1  UNL1        0.0030
      8  C         25.4000  -22.9270  -13.6570 C.2     1  UNL1        0.0310
      9  C         24.1740  -22.2720  -13.8260 C.2     1  UNL1        0.0490
     10  C         23.3310  -22.0250  -12.7270 C.2     1  UNL1       -0.0190
     11  C         21.9840  -21.3700  -12.8920 C.3     1  UNL1        0.0520
     12  N         23.8430  -21.8010  -15.1280 N.pl3   1  UNL1       -0.2800
     13  H         23.1730  -21.0410  -15.2310 H       1  UNL1        0.1790
     14  S         25.0240  -21.7910  -16.3360 S.O2    1  UNL1        0.2630
     15  O         24.3080  -21.9470  -17.5850 O.2     1  UNL1       -0.2000
     16  O         26.0980  -22.6860  -15.9700 O.2     1  UNL1       -0.2000
     17  C         25.6560  -20.1280  -16.2780 C.2     1  UNL1        0.0790
     18  C         25.8150  -19.4070  -17.4650 C.2     1  UNL1        0.0260
     19  C         26.3110  -18.1020  -17.4190 C.2     1  UNL1        0.0080
     20  C         26.6370  -17.5110  -16.1910 C.2     1  UNL1       -0.0620
     21  C         27.1200  -16.0910  -16.1390 C.3     1  UNL1        0.0480
     22  C         26.4340  -18.2310  -15.0050 C.2     1  UNL1        0.0080
     23  C         25.9420  -19.5380  -15.0440 C.2     1  UNL1        0.0260
     24  C         21.1560  -22.8700   -8.8190 C.2     1  UNL1        0.0350
     25  C         20.2030  -23.8940   -8.7170 C.2     1  UNL1        0.0310
     26  C         19.2600  -23.8930   -7.6860 C.2     1  UNL1        0.0270
     27  C         19.2670  -22.8570   -6.7530 C.2     1  UNL1        0.0800
     28  C         20.2050  -21.8260   -6.8440 C.2     1  UNL1        0.0270
     29  C         21.1530  -21.8430   -7.8710 C.2     1  UNL1        0.0310
     30  S         18.0560  -22.8160   -5.4560 S.O2    1  UNL1        0.2630
     31  O         17.7460  -24.1900   -5.1220 O.2     1  UNL1       -0.2000
     32  O         18.4910  -21.8790   -4.4450 O.2     1  UNL1       -0.2000
     33  N         16.6900  -22.2070   -6.2410 N.pl3   1  UNL1       -0.2810
     34  H         16.7570  -21.1930   -6.3360 H       1  UNL1        0.1790
     35  C         16.1590  -22.9380   -7.3390 C.2     1  UNL1        0.0420
     36  C         16.1410  -22.3490   -8.6070 C.2     1  UNL1        0.0330
     37  C         15.6430  -23.0650   -9.6990 C.2     1  UNL1        0.0440
     38  C         15.1810  -24.3630   -9.5120 C.2     1  UNL1        0.1160
     39  F         14.7000  -25.0470  -10.5590 F       1  UNL1       -0.2060
     40  C         15.2060  -24.9610   -8.2550 C.2     1  UNL1        0.0440
     41  C         15.7010  -24.2460   -7.1620 C.2     1  UNL1        0.0330
@<TRIPOS>BOND
     1    15    14    2
     2    18    19    1
     3    18    17    2
     4    19    20    2
     5    14    17    1
     6    14    16    2
     7    14    12    1
     8    17    23    1
     9    20    21    1
    10    20    22    1
    11    13    12    1
    12    12     9    1
    13    23    22    2
    14     9     8    2
    15     9    10    1
    16     8     7    1
    17    11    10    1
    18    10     5    2
    19     7     6    2
    20     5     6    1
    21     5     1    1
    22    39    38    1
    23     4     3    1
    24     1     3   am
    25     1     2    2
    26     3    24    1
    27    37    38    2
    28    37    36    1
    29    38    40    1
    30    24    25    2
    31    24    29    1
    32    25    26    1
    33    36    35    2
    34    40    41    2
    35    29    28    2
    36    26    27    2
    37    35    41    1
    38    35    33    1
    39    28    27    1
    40    27    30    1
    41    34    33    1
    42    33    30    1
    43    30    31    2
    44    30    32    2
