@<TRIPOS>MOLECULE
51087_out_ligand_01.pdbqt
 37 39 0 0 0
SMALL
GASTEIGER

@<TRIPOS>ATOM
      1  C         20.5200  -22.8380   -7.8190 C.2     1  UNL1        0.0400
      2  C         21.0770  -21.7340   -7.1580 C.2     1  UNL1        0.0180
      3  C         22.2710  -21.1870   -7.6090 C.2     1  UNL1        0.0030
      4  C         22.9050  -21.7380   -8.7210 C.2     1  UNL1        0.0250
      5  C         22.3610  -22.8510   -9.3730 C.2     1  UNL1        0.0290
      6  C         21.1760  -23.4480   -8.9090 C.2     1  UNL1       -0.0240
      7  C         20.6160  -24.6830   -9.5620 C.3     1  UNL1        0.0510
      8  C         19.2050  -23.3080   -7.3190 C.2     1  UNL1        0.2560
      9  N         18.4400  -22.3050   -6.7700 N.am    1  UNL1       -0.3220
     10  H         18.8640  -21.3770   -6.7160 H       1  UNL1        0.1690
     11  O         18.9440  -24.4990   -7.3820 O.2     1  UNL1       -0.2670
     12  C         17.1120  -22.3750   -6.2840 C.2     1  UNL1        0.0500
     13  C         16.8100  -22.2490   -4.9210 C.2     1  UNL1        0.0300
     14  C         15.4950  -22.3640   -4.4630 C.2     1  UNL1        0.0020
     15  C         14.4590  -22.6120   -5.3570 C.2     1  UNL1        0.0010
     16  C         14.7350  -22.7340   -6.7190 C.2     1  UNL1        0.0190
     17  C         16.0520  -22.6020   -7.1920 C.2     1  UNL1        0.0580
     18  C         16.3270  -22.7150   -8.6600 C.2     1  UNL1        0.2530
     19  N         16.6940  -21.5530   -9.3110 N.am    1  UNL1       -0.3570
     20  H         16.9880  -20.7610   -8.7460 H       1  UNL1        0.1620
     21  O         16.2660  -23.8050   -9.2170 O.2     1  UNL1       -0.2680
     22  C         17.1540  -21.5910  -10.6900 C.3     1  UNL1        0.1230
     23  C         18.6740  -21.7090  -10.7600 C.3     1  UNL1        0.0190
     24  C         19.3150  -20.7540  -11.7720 C.3     1  UNL1       -0.0030
     25  C         20.7460  -21.1190  -12.1310 C.3     1  UNL1        0.0050
     26  N         23.0860  -23.3950  -10.4820 N.pl3   1  UNL1       -0.1810
     27  H         23.2350  -24.4020  -10.4310 H       1  UNL1        0.1460
     28  S         24.5730  -22.6550  -10.8550 S.O2    1  UNL1        0.2450
     29  O         25.5920  -23.5250  -10.3080 O.2     1  UNL1       -0.2060
     30  O         24.5410  -21.2410  -10.5520 O.2     1  UNL1       -0.2060
     31  C         24.6070  -22.8330  -12.6220 C.2     1  UNL1        0.0740
     32  C         24.0930  -21.8200  -13.4330 C.2     1  UNL1        0.0250
     33  C         24.1360  -21.9570  -14.8190 C.2     1  UNL1        0.0080
     34  C         24.7030  -23.0970  -15.4000 C.2     1  UNL1       -0.0620
     35  C         24.7870  -23.2290  -16.8900 C.3     1  UNL1        0.0480
     36  C         25.2530  -24.0880  -14.5750 C.2     1  UNL1        0.0080
     37  C         25.2040  -23.9590  -13.1880 C.2     1  UNL1        0.0250
@<TRIPOS>BOND
     1    35    34    1
     2    34    33    2
     3    34    36    1
     4    33    32    1
     5    36    37    2
     6    32    31    2
     7    37    31    1
     8    31    28    1
     9    25    24    1
    10    24    23    1
    11    28    30    2
    12    28    26    1
    13    28    29    2
    14    23    22    1
    15    22    19    1
    16    26    27    1
    17    26     5    1
    18     7     6    1
    19     5     6    1
    20     5     4    2
    21    19    20    1
    22    19    18   am
    23    21    18    2
    24     6     1    2
    25     4     3    1
    26    18    17    1
    27     1     8    1
    28     1     2    1
    29     3     2    2
    30    11     8    2
    31     8     9   am
    32    17    16    1
    33    17    12    2
    34     9    10    1
    35     9    12    1
    36    16    15    2
    37    12    13    1
    38    15    14    1
    39    13    14    2
