@<TRIPOS>MOLECULE
51089_out_ligand_01.pdbqt
 44 47 0 0 0
SMALL
GASTEIGER

@<TRIPOS>ATOM
      1  C         21.5090  -21.9630  -10.9370 C.2     1  UNL1        0.2560
      2  O         20.6470  -21.1180  -11.1430 O.2     1  UNL1       -0.2670
      3  N         21.5730  -22.8410   -9.8710 N.am    1  UNL1       -0.3230
      4  H         22.2580  -23.5830   -9.9270 H       1  UNL1        0.1690
      5  C         20.7050  -22.8950   -8.7600 C.2     1  UNL1        0.0350
      6  C         20.6280  -21.8970   -7.7830 C.2     1  UNL1        0.0310
      7  C         19.7380  -22.0200   -6.7110 C.2     1  UNL1        0.0270
      8  C         18.9150  -23.1430   -6.6210 C.2     1  UNL1        0.0800
      9  C         18.9920  -24.1570   -7.5760 C.2     1  UNL1        0.0270
     10  C         19.8890  -24.0300   -8.6410 C.2     1  UNL1        0.0310
     11  S         17.7720  -23.2780   -5.2720 S.O2    1  UNL1        0.2630
     12  O         17.6990  -24.6620   -4.8550 O.2     1  UNL1       -0.2000
     13  O         18.0960  -22.2270   -4.3300 O.2     1  UNL1       -0.2000
     14  N         16.3020  -22.8350   -5.9840 N.pl3   1  UNL1       -0.2810
     15  H         15.5230  -23.0710   -5.3710 H       1  UNL1        0.1790
     16  C         16.1410  -23.0610   -7.3770 C.2     1  UNL1        0.0430
     17  C         15.4220  -24.1680   -7.8260 C.2     1  UNL1        0.0300
     18  C         15.2410  -24.3710   -9.1940 C.2     1  UNL1        0.0030
     19  C         15.7700  -23.4610  -10.1110 C.2     1  UNL1        0.0160
     20  C         16.4750  -22.3300   -9.6680 C.2     1  UNL1        0.0500
     21  C         16.6580  -22.1410   -8.2900 C.2     1  UNL1        0.0460
     22  C         17.0610  -21.3530  -10.6570 C.3     1  UNL1        0.4170
     23  F         16.3660  -20.1830  -10.6950 F       1  UNL1       -0.1660
     24  F         18.3500  -21.0120  -10.3740 F       1  UNL1       -0.1660
     25  F         17.0720  -21.8240  -11.9340 F       1  UNL1       -0.1660
     26  C         22.5850  -22.1360  -11.9550 C.2     1  UNL1        0.0320
     27  C         23.5480  -23.1320  -11.7430 C.2     1  UNL1        0.0190
     28  C         24.5760  -23.3230  -12.6690 C.2     1  UNL1        0.0310
     29  C         24.6320  -22.5310  -13.8160 C.2     1  UNL1        0.0450
     30  C         23.6700  -21.5430  -14.0390 C.2     1  UNL1        0.0310
     31  C         22.6410  -21.3490  -13.1140 C.2     1  UNL1        0.0190
     32  N         25.7080  -22.7280  -14.7330 N.pl3   1  UNL1       -0.2720
     33  S         25.3530  -22.6250  -16.3900 S.O2    1  UNL1        0.2290
     34  C         26.9910  -22.4870  -17.0730 C.3     1  UNL1        0.1860
     35  O         24.6540  -21.3810  -16.6410 O.2     1  UNL1       -0.2060
     36  O         24.8100  -23.8860  -16.8540 O.2     1  UNL1       -0.2060
     37  C         27.0680  -22.3580  -14.2850 C.3     1  UNL1        0.1800
     38  C         27.0900  -21.1300  -13.4060 C.2     1  UNL1       -0.0390
     39  C         27.1160  -19.8480  -13.9800 C.2     1  UNL1        0.0120
     40  C         27.1130  -18.7130  -13.1690 C.2     1  UNL1        0.0430
     41  C         27.0790  -18.8570  -11.7860 C.2     1  UNL1        0.1160
     42  F         27.0700  -17.7660  -11.0090 F       1  UNL1       -0.2060
     43  C         27.0490  -20.1160  -11.1990 C.2     1  UNL1        0.0430
     44  C         27.0570  -21.2530  -12.0070 C.2     1  UNL1        0.0120
@<TRIPOS>BOND
     1    34    33    1
     2    36    33    2
     3    35    33    2
     4    33    32    1
     5    32    37    1
     6    32    29    1
     7    37    38    1
     8    30    29    2
     9    30    31    1
    10    39    38    2
    11    39    40    1
    12    29    28    1
    13    38    44    1
    14    40    41    2
    15    31    26    2
    16    28    27    2
    17    44    43    2
    18    26    27    1
    19    26     1    1
    20    25    22    1
    21    41    43    1
    22    41    42    1
    23     2     1    2
    24     1     3   am
    25    23    22    1
    26    22    24    1
    27    22    20    1
    28    19    20    2
    29    19    18    1
    30     4     3    1
    31     3     5    1
    32    20    21    1
    33    18    17    2
    34     5    10    2
    35     5     6    1
    36    10     9    1
    37    21    16    2
    38    17    16    1
    39     6     7    2
    40     9     8    2
    41    16    14    1
    42     7     8    1
    43     8    11    1
    44    14    15    1
    45    14    11    1
    46    11    12    2
    47    11    13    2
