@<TRIPOS>MOLECULE
51086_out_ligand_01.pdbqt
 43 46 0 0 0
SMALL
GASTEIGER

@<TRIPOS>ATOM
      1  N         21.1680  -22.3400   -7.7170 N.am    1  UNL1       -0.3230
      2  C         19.7930  -22.2010   -7.6790 C.2     1  UNL1        0.2560
      3  O         19.0100  -22.2100   -8.6160 O.2     1  UNL1       -0.2670
      4  H         21.6480  -22.3810   -6.8240 H       1  UNL1        0.1690
      5  C         21.9860  -22.4310   -8.8620 C.2     1  UNL1        0.0350
      6  C         21.7740  -23.3430   -9.8990 C.2     1  UNL1        0.0310
      7  C         22.6180  -23.3580  -11.0150 C.2     1  UNL1        0.0270
      8  C         23.6600  -22.4330  -11.1080 C.2     1  UNL1        0.0750
      9  C         23.8990  -21.5330  -10.0690 C.2     1  UNL1        0.0270
     10  C         23.0610  -21.5350   -8.9500 C.2     1  UNL1        0.0310
     11  S         24.7190  -22.4300  -12.5400 S.O2    1  UNL1        0.2450
     12  O         24.7490  -23.7750  -13.0720 O.2     1  UNL1       -0.2060
     13  O         25.9420  -21.7500  -12.1630 O.2     1  UNL1       -0.2060
     14  N         23.9190  -21.4020  -13.6230 N.pl3   1  UNL1       -0.1790
     15  H         23.0780  -21.8560  -13.9830 H       1  UNL1        0.1460
     16  C         24.7030  -20.7790  -14.6470 C.2     1  UNL1        0.0560
     17  C         25.4120  -19.6100  -14.3680 C.2     1  UNL1        0.0340
     18  C         26.2280  -19.0320  -15.3460 C.2     1  UNL1       -0.0600
     19  C         26.3050  -19.6310  -16.6090 C.2     1  UNL1        0.0090
     20  C         26.9620  -17.7530  -15.0650 C.3     1  UNL1        0.0480
     21  C         25.5980  -20.8060  -16.8890 C.2     1  UNL1        0.0390
     22  C         24.8010  -21.3940  -15.9060 C.2     1  UNL1        0.0900
     23  O         24.0710  -22.5460  -16.0690 O.2     1  UNL1       -0.3540
     24  C         24.2600  -23.2410  -17.2960 C.3     1  UNL1        0.2100
     25  C         19.2490  -22.0580   -6.3050 C.2     1  UNL1        0.0400
     26  C         19.4770  -20.8310   -5.6670 C.2     1  UNL1        0.0180
     27  C         18.9220  -20.5840   -4.4170 C.2     1  UNL1        0.0030
     28  C         18.1170  -21.5510   -3.8190 C.2     1  UNL1        0.0310
     29  C         17.8990  -22.7840   -4.4440 C.2     1  UNL1        0.0490
     30  C         18.5080  -23.0840   -5.6760 C.2     1  UNL1       -0.0190
     31  C         18.3600  -24.4380   -6.3220 C.3     1  UNL1        0.0520
     32  N         16.9580  -23.6810   -3.8590 N.pl3   1  UNL1       -0.2800
     33  H         17.2290  -24.6430   -3.6750 H       1  UNL1        0.1790
     34  S         15.3280  -23.5540   -4.2980 S.O2    1  UNL1        0.2630
     35  O         14.7370  -24.8410   -3.9950 O.2     1  UNL1       -0.2000
     36  O         14.7800  -22.3290   -3.7550 O.2     1  UNL1       -0.2000
     37  C         15.3830  -23.3900   -6.0710 C.2     1  UNL1        0.0790
     38  C         15.4810  -22.1220   -6.6520 C.2     1  UNL1        0.0260
     39  C         15.5360  -22.0050   -8.0440 C.2     1  UNL1        0.0080
     40  C         15.4960  -23.1460   -8.8570 C.2     1  UNL1       -0.0620
     41  C         15.6190  -23.0280  -10.3500 C.3     1  UNL1        0.0480
     42  C         15.4260  -24.4120   -8.2600 C.2     1  UNL1        0.0080
     43  C         15.3780  -24.5370   -6.8700 C.2     1  UNL1        0.0260
@<TRIPOS>BOND
     1    24    23    1
     2    21    19    2
     3    21    22    1
     4    19    18    1
     5    23    22    1
     6    22    16    2
     7    18    20    1
     8    18    17    2
     9    16    17    1
    10    16    14    1
    11    15    14    1
    12    14    11    1
    13    12    11    2
    14    11    13    2
    15    11     8    1
    16     8     7    2
    17     8     9    1
    18     7     6    1
    19    41    40    1
    20     9    10    2
    21     6     5    2
    22    10     5    1
    23     5     1    1
    24    40    42    2
    25    40    39    1
    26     3     2    2
    27    42    43    1
    28    39    38    2
    29     1     2   am
    30     1     4    1
    31     2    25    1
    32    43    37    2
    33    38    37    1
    34    31    30    1
    35    25    30    2
    36    25    26    1
    37    37    34    1
    38    30    29    1
    39    26    27    2
    40    29    32    1
    41    29    28    2
    42    27    28    1
    43    34    35    2
    44    34    32    1
    45    34    36    2
    46    32    33    1
