@<TRIPOS>MOLECULE
51096_out_ligand_01.pdbqt
 36 38 0 0 0
SMALL
GASTEIGER

@<TRIPOS>ATOM
      1  C         22.7530  -23.2280   -8.9460 C.2     1  UNL1        0.0340
      2  C         22.2920  -22.1440   -8.1910 C.2     1  UNL1        0.0310
      3  C         21.0070  -22.1560   -7.6370 C.2     1  UNL1        0.0270
      4  C         20.1760  -23.2570   -7.8430 C.2     1  UNL1        0.0800
      5  C         20.6200  -24.3510   -8.5910 C.2     1  UNL1        0.0270
      6  C         21.9040  -24.3290   -9.1430 C.2     1  UNL1        0.0310
      7  N         24.0370  -23.2970   -9.5260 N.am    1  UNL1       -0.3270
      8  C         24.6620  -22.3390  -10.2990 C.2     1  UNL1        0.2220
      9  O         24.1630  -21.2870  -10.6950 O.2     1  UNL1       -0.2730
     10  H         24.5640  -24.1320   -9.3140 H       1  UNL1        0.1690
     11  C         26.0750  -22.7070  -10.7310 C.3     1  UNL1        0.1080
     12  C         26.1910  -23.8200  -11.7730 C.3     1  UNL1        0.0470
     13  C         25.9600  -23.4440  -13.2180 C.2     1  UNL1       -0.0580
     14  C         25.4600  -24.4130  -14.1000 C.2     1  UNL1        0.0070
     15  C         25.2190  -24.1070  -15.4430 C.2     1  UNL1        0.0080
     16  C         25.4680  -22.8240  -15.9410 C.2     1  UNL1       -0.0550
     17  C         25.9400  -21.8490  -15.0530 C.2     1  UNL1        0.0080
     18  C         26.1760  -22.1530  -13.7080 C.2     1  UNL1        0.0070
     19  C         25.2140  -22.4610  -17.3940 C.3     1  UNL1        0.0100
     20  C         24.9060  -20.9690  -17.5390 C.3     1  UNL1        0.0150
     21  C         24.1040  -23.3120  -18.0230 C.3     1  UNL1        0.0150
     22  S         18.5470  -23.2800   -7.1350 S.O2    1  UNL1        0.2630
     23  O         18.3560  -22.0680   -6.3680 O.2     1  UNL1       -0.2000
     24  O         18.3790  -24.5870   -6.5360 O.2     1  UNL1       -0.2000
     25  N         17.5360  -23.2490   -8.4670 N.pl3   1  UNL1       -0.2810
     26  H         16.6870  -23.7990   -8.3420 H       1  UNL1        0.1790
     27  C         17.6860  -22.4290   -9.6160 C.2     1  UNL1        0.0430
     28  C         16.6480  -21.7260  -10.2280 C.2     1  UNL1        0.0300
     29  C         16.9000  -20.9130  -11.3390 C.2     1  UNL1        0.0030
     30  C         18.1930  -20.7990  -11.8490 C.2     1  UNL1        0.0160
     31  C         19.2490  -21.5020  -11.2540 C.2     1  UNL1        0.0500
     32  C         18.9830  -22.3040  -10.1300 C.2     1  UNL1        0.0460
     33  C         20.6540  -21.3860  -11.7910 C.3     1  UNL1        0.4170
     34  F         20.7140  -20.8350  -13.0370 F       1  UNL1       -0.1660
     35  F         21.4480  -20.6100  -10.9980 F       1  UNL1       -0.1660
     36  F         21.2840  -22.5930  -11.8860 F       1  UNL1       -0.1660
@<TRIPOS>BOND
     1    21    19    1
     2    20    19    1
     3    19    16    1
     4    16    15    2
     5    16    17    1
     6    15    14    1
     7    17    18    2
     8    14    13    2
     9    18    13    1
    10    13    12    1
    11    34    33    1
    12    36    33    1
    13    30    29    2
    14    30    31    1
    15    33    31    1
    16    33    35    1
    17    12    11    1
    18    29    28    1
    19    31    32    2
    20    11     8    1
    21     9     8    2
    22     8     7   am
    23    28    27    2
    24    32    27    1
    25    27    25    1
    26     7    10    1
    27     7     1    1
    28     6     1    2
    29     6     5    1
    30     1     2    1
    31     5     4    2
    32    25    26    1
    33    25    22    1
    34     2     3    2
    35     4     3    1
    36     4    22    1
    37    22    24    2
    38    22    23    2
