@<TRIPOS>MOLECULE
51093_out_ligand_01.pdbqt
 34 36 0 0 0
SMALL
GASTEIGER

@<TRIPOS>ATOM
      1  C         21.9400  -22.5610  -11.2960 C.2     1  UNL1        0.0290
      2  C         21.5180  -21.6220  -12.2460 C.2     1  UNL1        0.0250
      3  C         20.2520  -21.0520  -12.1550 C.2     1  UNL1        0.0030
      4  C         19.4010  -21.4230  -11.1170 C.2     1  UNL1        0.0180
      5  C         19.8220  -22.3630  -10.1600 C.2     1  UNL1        0.0400
      6  C         21.1040  -22.9480  -10.2340 C.2     1  UNL1       -0.0240
      7  C         21.5470  -23.9780   -9.2300 C.3     1  UNL1        0.0510
      8  C         18.8630  -22.7420   -9.0850 C.2     1  UNL1        0.2560
      9  O         18.0530  -23.6340   -9.2930 O.2     1  UNL1       -0.2670
     10  N         19.0180  -22.0140   -7.9210 N.am    1  UNL1       -0.3210
     11  H         19.7860  -21.3500   -7.8850 H       1  UNL1        0.1690
     12  C         18.2640  -22.1090   -6.7270 C.2     1  UNL1        0.0570
     13  C         17.0440  -22.7880   -6.6430 C.2     1  UNL1        0.0470
     14  C         16.3310  -22.8550   -5.4310 C.2     1  UNL1        0.0500
     15  C         16.8520  -22.2190   -4.2940 C.2     1  UNL1        0.0180
     16  C         18.0660  -21.5370   -4.3630 C.2     1  UNL1        0.0270
     17  C         18.7660  -21.4830   -5.5710 C.2     1  UNL1        0.0600
     18 CL         20.2660  -20.6190   -5.6030 Cl      1  UNL1       -0.0820
     19  C         15.0100  -23.5870   -5.3760 C.3     1  UNL1        0.4170
     20  F         14.8360  -24.2900   -4.2210 F       1  UNL1       -0.1660
     21  F         14.8640  -24.4910   -6.3830 F       1  UNL1       -0.1660
     22  F         13.9450  -22.7440   -5.4620 F       1  UNL1       -0.1660
     23  N         23.2280  -23.1800  -11.4650 N.pl3   1  UNL1       -0.1810
     24  H         23.2450  -24.0980  -11.0160 H       1  UNL1        0.1460
     25  S         24.5150  -22.2970  -10.7660 S.O2    1  UNL1        0.2450
     26  O         24.0020  -21.2470   -9.9150 O.2     1  UNL1       -0.2060
     27  O         25.4560  -23.2860  -10.2830 O.2     1  UNL1       -0.2060
     28  C         25.2050  -21.5320  -12.2120 C.2     1  UNL1        0.0740
     29  C         26.0240  -20.4100  -12.0640 C.2     1  UNL1        0.0250
     30  C         26.5820  -19.8130  -13.1940 C.2     1  UNL1        0.0080
     31  C         26.3250  -20.3300  -14.4710 C.2     1  UNL1       -0.0620
     32  C         26.9600  -19.7060  -15.6800 C.3     1  UNL1        0.0480
     33  C         25.5230  -21.4730  -14.6020 C.2     1  UNL1        0.0080
     34  C         24.9610  -22.0760  -13.4750 C.2     1  UNL1        0.0250
@<TRIPOS>BOND
     1    32    31    1
     2    33    31    2
     3    33    34    1
     4    31    30    1
     5    34    28    2
     6    30    29    2
     7     2     3    1
     8     2     1    2
     9    28    29    1
    10    28    25    1
    11     3     4    2
    12    23     1    1
    13    23    24    1
    14    23    25    1
    15     1     6    1
    16     4     5    1
    17    25    27    2
    18    25    26    2
    19     6     5    2
    20     6     7    1
    21     5     8    1
    22     9     8    2
    23     8    10   am
    24    10    11    1
    25    10    12    1
    26    12    13    2
    27    12    17    1
    28    13    14    1
    29    21    19    1
    30    18    17    1
    31    17    16    2
    32    22    19    1
    33    14    19    1
    34    14    15    2
    35    19    20    1
    36    16    15    1
