@<TRIPOS>MOLECULE
51091_out_ligand_01.pdbqt
 41 44 0 0 0
SMALL
GASTEIGER

@<TRIPOS>ATOM
      1  C         19.9550  -22.7420   -7.6680 C.2     1  UNL1        0.2560
      2  O         19.3300  -23.5650   -8.3240 O.2     1  UNL1       -0.2670
      3  N         21.1930  -22.1960   -7.9630 N.am    1  UNL1       -0.3230
      4  H         21.6340  -21.6370   -7.2410 H       1  UNL1        0.1690
      5  C         21.9530  -22.3920   -9.1340 C.2     1  UNL1        0.0350
      6  C         23.2450  -22.9140   -8.9770 C.2     1  UNL1        0.0310
      7  C         24.0780  -23.1090  -10.0820 C.2     1  UNL1        0.0270
      8  C         23.6200  -22.7600  -11.3530 C.2     1  UNL1        0.0800
      9  C         22.3250  -22.2690  -11.5290 C.2     1  UNL1        0.0270
     10  C         21.4990  -22.0790  -10.4180 C.2     1  UNL1        0.0310
     11  S         24.6980  -22.9390  -12.7560 S.O2    1  UNL1        0.2630
     12  O         25.9150  -22.2080  -12.4670 O.2     1  UNL1       -0.2000
     13  O         24.7290  -24.3370  -13.1240 O.2     1  UNL1       -0.2000
     14  N         23.8970  -22.0680  -13.9710 N.pl3   1  UNL1       -0.2790
     15  H         22.9050  -22.3110  -13.9900 H       1  UNL1        0.1790
     16  C         24.5370  -21.9360  -15.2510 C.2     1  UNL1        0.0660
     17  C         24.4180  -22.9640  -16.1880 C.2     1  UNL1        0.0320
     18  C         24.9710  -22.8230  -17.4600 C.2     1  UNL1        0.0040
     19  C         25.6470  -21.6510  -17.8000 C.2     1  UNL1        0.0260
     20  C         25.7870  -20.6220  -16.8630 C.2     1  UNL1        0.0580
     21 CL         26.6380  -19.2000  -17.3560 Cl      1  UNL1       -0.0820
     22  C         25.2350  -20.7610  -15.5810 C.2     1  UNL1        0.0830
     23 CL         25.3960  -19.5070  -14.3890 Cl      1  UNL1       -0.0800
     24  C         19.3710  -22.2750   -6.3850 C.2     1  UNL1        0.0340
     25  C         19.6490  -20.9760   -5.9480 C.2     1  UNL1        0.0170
     26  C         19.0720  -20.5000   -4.7700 C.2     1  UNL1        0.0030
     27  C         18.2240  -21.3230   -4.0280 C.2     1  UNL1        0.0300
     28  C         17.9810  -22.6310   -4.4450 C.2     1  UNL1        0.0430
     29  C         18.5570  -23.1170   -5.6190 C.2     1  UNL1        0.0470
     30  N         17.0600  -23.4490   -3.7360 N.pl3   1  UNL1       -0.2810
     31  H         17.3690  -24.3740   -3.4390 H       1  UNL1        0.1790
     32  S         15.4410  -23.4600   -4.2360 S.O2    1  UNL1        0.2630
     33  O         14.9200  -24.7630   -3.8790 O.2     1  UNL1       -0.2000
     34  O         14.7980  -22.2420   -3.7980 O.2     1  UNL1       -0.2000
     35  C         15.5740  -23.4050   -6.0110 C.2     1  UNL1        0.0790
     36  C         15.7370  -24.5920   -6.7310 C.2     1  UNL1        0.0260
     37  C         15.8370  -24.5460   -8.1220 C.2     1  UNL1        0.0080
     38  C         15.7830  -23.3200   -8.7990 C.2     1  UNL1       -0.0620
     39  C         15.9590  -23.2740  -10.2900 C.3     1  UNL1        0.0480
     40  C         15.6480  -22.1340   -8.0620 C.2     1  UNL1        0.0080
     41  C         15.5420  -22.1730   -6.6690 C.2     1  UNL1        0.0260
@<TRIPOS>BOND
     1    19    18    2
     2    19    20    1
     3    18    17    1
     4    21    20    1
     5    20    22    2
     6    17    16    2
     7    22    16    1
     8    22    23    1
     9    16    14    1
    10    15    14    1
    11    14    11    1
    12    13    11    2
    13    11    12    2
    14    11     8    1
    15     9     8    2
    16     9    10    1
    17     8     7    1
    18    10     5    2
    19    39    38    1
    20     7     6    2
    21     5     6    1
    22     5     3    1
    23    38    37    2
    24    38    40    1
    25     2     1    2
    26    37    36    1
    27    40    41    2
    28     3     1   am
    29     3     4    1
    30     1    24    1
    31    36    35    2
    32    41    35    1
    33    24    25    2
    34    24    29    1
    35    35    32    1
    36    25    26    1
    37    29    28    2
    38    26    27    2
    39    28    27    1
    40    28    30    1
    41    32    33    2
    42    32    34    2
    43    32    30    1
    44    30    31    1
