@<TRIPOS>MOLECULE
51092_out_ligand_01.pdbqt
 43 46 0 0 0
SMALL
GASTEIGER

@<TRIPOS>ATOM
      1  C         23.2760  -22.9220   -9.6980 C.2     1  UNL1        0.2560
      2  O         23.7370  -23.7700   -8.9450 O.2     1  UNL1       -0.2670
      3  N         22.0560  -22.2790   -9.5890 N.am    1  UNL1       -0.3230
      4  H         21.8850  -21.5140  -10.2280 H       1  UNL1        0.1690
      5  C         21.0530  -22.5050   -8.6230 C.2     1  UNL1        0.0350
      6  C         20.2890  -23.6740   -8.7580 C.2     1  UNL1        0.0310
      7  C         19.2820  -23.9810   -7.8380 C.2     1  UNL1        0.0270
      8  C         19.0410  -23.1160   -6.7700 C.2     1  UNL1        0.0800
      9  C         19.7810  -21.9390   -6.6320 C.2     1  UNL1        0.0270
     10  C         20.7900  -21.6430   -7.5550 C.2     1  UNL1        0.0310
     11  S         17.7530  -23.4930   -5.6100 S.O2    1  UNL1        0.2630
     12  O         17.9870  -22.6900   -4.4270 O.2     1  UNL1       -0.2000
     13  O         17.6050  -24.9290   -5.5170 O.2     1  UNL1       -0.2000
     14  N         16.3820  -22.8320   -6.3510 N.pl3   1  UNL1       -0.2810
     15  H         15.5540  -23.0080   -5.7820 H       1  UNL1        0.1790
     16  C         16.2530  -22.9830   -7.7590 C.2     1  UNL1        0.0430
     17  C         15.4910  -24.0300   -8.2710 C.2     1  UNL1        0.0300
     18  C         15.3210  -24.1560   -9.6490 C.2     1  UNL1        0.0030
     19  C         15.9120  -23.2310  -10.5130 C.2     1  UNL1        0.0160
     20  C         16.6830  -22.1730  -10.0060 C.2     1  UNL1        0.0500
     21  C         16.8410  -22.0530   -8.6150 C.2     1  UNL1        0.0460
     22  C         17.2940  -21.1550  -10.9350 C.3     1  UNL1        0.4170
     23  F         16.7280  -19.9210  -10.8220 F       1  UNL1       -0.1660
     24  F         17.1750  -21.5070  -12.2450 F       1  UNL1       -0.1660
     25  F         18.6280  -20.9700  -10.7160 F       1  UNL1       -0.1660
     26  C         24.1020  -22.4870  -10.8580 C.2     1  UNL1        0.0330
     27  C         24.9550  -21.3760  -10.7750 C.2     1  UNL1        0.0250
     28  C         25.7230  -20.9760  -11.8820 C.2     1  UNL1       -0.0390
     29  C         26.6540  -19.8050  -11.7360 C.3     1  UNL1        0.0500
     30  C         25.6210  -21.7150  -13.0740 C.2     1  UNL1        0.0280
     31  C         24.7660  -22.8200  -13.1560 C.2     1  UNL1        0.0260
     32  C         23.9970  -23.1980  -12.0570 C.2     1  UNL1        0.0190
     33  N         26.4230  -21.4220  -14.2240 N.pl3   1  UNL1       -0.1810
     34  H         27.0940  -22.1640  -14.4280 H       1  UNL1        0.1460
     35  S         25.5510  -21.1360  -15.6610 S.O2    1  UNL1        0.2450
     36  O         26.1080  -22.0460  -16.6410 O.2     1  UNL1       -0.2060
     37  O         24.1310  -21.0760  -15.3950 O.2     1  UNL1       -0.2060
     38  C         26.0980  -19.4940  -16.0540 C.2     1  UNL1        0.0740
     39  C         26.4210  -18.5990  -15.0300 C.2     1  UNL1        0.0250
     40  C         26.8580  -17.3150  -15.3570 C.2     1  UNL1        0.0020
     41  C         26.9760  -16.9360  -16.6960 C.2     1  UNL1        0.0000
     42  C         26.6630  -17.8380  -17.7140 C.2     1  UNL1        0.0020
     43  C         26.2250  -19.1240  -17.3960 C.2     1  UNL1        0.0250
@<TRIPOS>BOND
     1    42    43    1
     2    42    41    2
     3    43    38    2
     4    41    40    1
     5    36    35    2
     6    38    35    1
     7    38    39    1
     8    35    37    2
     9    35    33    1
    10    40    39    2
    11    34    33    1
    12    33    30    1
    13    31    30    2
    14    31    32    1
    15    30    28    1
    16    24    22    1
    17    32    26    2
    18    28    29    1
    19    28    27    2
    20    22    23    1
    21    22    25    1
    22    22    20    1
    23    26    27    1
    24    26     1    1
    25    19    20    2
    26    19    18    1
    27     4     3    1
    28    20    21    1
    29     1     3   am
    30     1     2    2
    31    18    17    2
    32     3     5    1
    33     6     5    2
    34     6     7    1
    35     5    10    1
    36    21    16    2
    37    17    16    1
    38     7     8    2
    39    16    14    1
    40    10     9    2
    41     8     9    1
    42     8    11    1
    43    14    15    1
    44    14    11    1
    45    11    13    2
    46    11    12    2
