@<TRIPOS>MOLECULE
51099_out_ligand_01.pdbqt
 42 45 0 0 0
SMALL
GASTEIGER

@<TRIPOS>ATOM
      1  C         20.3040  -21.5680   -6.5740 C.2     1  UNL1        0.2560
      2  O         21.0060  -20.6550   -6.1530 O.2     1  UNL1       -0.2670
      3  N         20.6360  -22.4680   -7.5700 N.am    1  UNL1       -0.3230
      4  H         19.9970  -23.2360   -7.7320 H       1  UNL1        0.1690
      5  C         18.9670  -21.7760   -5.9490 C.2     1  UNL1        0.0340
      6  C         17.8700  -22.2450   -6.6790 C.2     1  UNL1        0.0470
      7  C         16.6390  -22.4350   -6.0470 C.2     1  UNL1        0.0490
      8  C         16.4760  -22.1350   -4.6830 C.2     1  UNL1       -0.0350
      9  C         17.5770  -21.6430   -3.9640 C.2     1  UNL1        0.0100
     10  C         15.1670  -22.3430   -3.9720 C.3     1  UNL1        0.0500
     11  C         18.8090  -21.4660   -4.5930 C.2     1  UNL1        0.0180
     12  N         15.5810  -23.0010   -6.8150 N.pl3   1  UNL1       -0.2800
     13  H         14.7280  -23.2600   -6.3210 H       1  UNL1        0.1790
     14  S         15.9800  -24.1810   -7.9650 S.O2    1  UNL1        0.2630
     15  O         14.7330  -24.6090   -8.5590 O.2     1  UNL1       -0.2000
     16  O         16.8900  -25.1330   -7.3710 O.2     1  UNL1       -0.2000
     17  C         16.8550  -23.2480   -9.1960 C.2     1  UNL1        0.0790
     18  C         18.1500  -23.6240   -9.5580 C.2     1  UNL1        0.0260
     19  C         18.8540  -22.8680  -10.4970 C.2     1  UNL1        0.0080
     20  C         18.2680  -21.7370  -11.0790 C.2     1  UNL1       -0.0620
     21  C         19.0630  -20.8810  -12.0240 C.3     1  UNL1        0.0480
     22  C         16.9690  -21.3680  -10.7020 C.2     1  UNL1        0.0080
     23  C         16.2560  -22.1230   -9.7660 C.2     1  UNL1        0.0260
     24  C         21.8040  -22.4730   -8.3640 C.2     1  UNL1        0.0350
     25  C         22.4940  -21.3190   -8.7490 C.2     1  UNL1        0.0310
     26  C         23.6410  -21.4170   -9.5430 C.2     1  UNL1        0.0270
     27  C         24.0890  -22.6730   -9.9670 C.2     1  UNL1        0.0800
     28  C         23.4240  -23.8360   -9.5780 C.2     1  UNL1        0.0270
     29  C         22.2790  -23.7260   -8.7830 C.2     1  UNL1        0.0310
     30  S         25.5460  -22.7870  -10.9760 S.O2    1  UNL1        0.2630
     31  O         26.4420  -23.7520  -10.3700 O.2     1  UNL1       -0.2000
     32  O         25.9910  -21.4390  -11.2580 O.2     1  UNL1       -0.2000
     33  N         24.9610  -23.3980  -12.4180 N.pl3   1  UNL1       -0.2800
     34  H         24.9520  -24.4140  -12.5000 H       1  UNL1        0.1790
     35  C         24.8700  -22.6020  -13.5870 C.2     1  UNL1        0.0490
     36  C         25.9450  -22.6080  -14.4870 C.2     1  UNL1        0.0370
     37  C         25.9460  -21.7760  -15.6140 C.2     1  UNL1       -0.0600
     38  C         27.1030  -21.7870  -16.5670 C.3     1  UNL1        0.0480
     39  C         24.8350  -20.9600  -15.8540 C.2     1  UNL1        0.0070
     40  C         23.7520  -20.9690  -14.9710 C.2     1  UNL1        0.0090
     41  C         23.7620  -21.7750  -13.8170 C.2     1  UNL1       -0.0350
     42  C         22.5540  -21.7570  -12.9220 C.3     1  UNL1        0.0500
@<TRIPOS>BOND
     1    38    37    1
     2    39    37    2
     3    39    40    1
     4    37    36    1
     5    40    41    2
     6    36    35    2
     7    41    35    1
     8    41    42    1
     9    35    33    1
    10    34    33    1
    11    33    30    1
    12    21    20    1
    13    32    30    2
    14    20    22    2
    15    20    19    1
    16    30    31    2
    17    30    27    1
    18    22    23    1
    19    19    18    2
    20    27    28    2
    21    27    26    1
    22    23    17    2
    23    28    29    1
    24    18    17    1
    25    26    25    2
    26    17    14    1
    27    29    24    2
    28    25    24    1
    29    15    14    2
    30    24     3    1
    31    14    16    2
    32    14    12    1
    33     4     3    1
    34     3     1   am
    35    12    13    1
    36    12     7    1
    37     6     7    1
    38     6     5    2
    39     1     2    2
    40     1     5    1
    41     7     8    2
    42     5    11    1
    43     8    10    1
    44     8     9    1
    45    11     9    2
