@<TRIPOS>MOLECULE
51101_out_ligand_01.pdbqt
 31 33 0 0 0
SMALL
GASTEIGER

@<TRIPOS>ATOM
      1  C         19.8930  -22.5270  -10.7070 C.2     1  UNL1        0.0290
      2  C         18.8030  -23.0050   -9.9740 C.2     1  UNL1        0.0420
      3  C         17.5370  -22.4360  -10.1470 C.2     1  UNL1        0.0330
      4  C         17.3740  -21.3630  -11.0290 C.2     1  UNL1        0.0170
      5  C         18.4700  -20.8740  -11.7450 C.2     1  UNL1        0.0090
      6  C         19.7390  -21.4570  -11.6010 C.2     1  UNL1       -0.0400
      7  C         20.9010  -20.8820  -12.3630 C.3     1  UNL1        0.0500
      8  N         21.1940  -23.0990  -10.4890 N.pl3   1  UNL1       -0.1810
      9  H         21.4200  -23.7540  -11.2410 H       1  UNL1        0.1460
     10  S         21.3260  -23.9950   -9.0390 S.O2    1  UNL1        0.2450
     11  O         20.3590  -25.0710   -9.0200 O.2     1  UNL1       -0.2060
     12  O         22.7400  -24.2250   -8.8320 O.2     1  UNL1       -0.2060
     13  C         20.7910  -22.7750   -7.8630 C.2     1  UNL1        0.0740
     14  C         21.6240  -21.6970   -7.5500 C.2     1  UNL1        0.0250
     15  C         21.2020  -20.7550   -6.6110 C.2     1  UNL1        0.0080
     16  C         19.9620  -20.8940   -5.9720 C.2     1  UNL1       -0.0620
     17  C         19.5120  -19.8620   -4.9780 C.3     1  UNL1        0.0480
     18  C         19.1400  -21.9840   -6.2920 C.2     1  UNL1        0.0080
     19  C         19.5550  -22.9300   -7.2310 C.2     1  UNL1        0.0250
     20  C         16.4060  -22.9720   -9.3420 C.2     1  UNL1        0.2510
     21  O         15.2530  -22.8210   -9.7270 O.2     1  UNL1       -0.2680
     22  N         16.7330  -23.6020   -8.1650 N.am    1  UNL1       -0.3530
     23  H         17.6770  -23.5740   -7.8070 H       1  UNL1        0.1630
     24  C         15.7050  -24.1530   -7.3140 C.3     1  UNL1        0.1620
     25  C         15.8860  -23.6920   -5.8870 C.2     1  UNL1       -0.0350
     26  C         16.9040  -24.2740   -5.1120 C.2     1  UNL1        0.0090
     27  C         17.1260  -23.8660   -3.7970 C.2     1  UNL1        0.0010
     28  C         16.3370  -22.8640   -3.2410 C.2     1  UNL1        0.0010
     29  C         15.3320  -22.2650   -4.0000 C.2     1  UNL1        0.0070
     30  C         15.0990  -22.6620   -5.3270 C.2     1  UNL1       -0.0540
     31  C         14.0020  -21.9910   -6.1100 C.3     1  UNL1        0.0490
@<TRIPOS>BOND
     1     7     6    1
     2     5     6    1
     3     5     4    2
     4     6     1    2
     5     9     8    1
     6     4     3    1
     7     1     8    1
     8     1     2    1
     9     8    10    1
    10     3     2    2
    11     3    20    1
    12    21    20    2
    13    20    22   am
    14    10    11    2
    15    10    12    2
    16    10    13    1
    17    22    23    1
    18    22    24    1
    19    13    14    2
    20    13    19    1
    21    14    15    1
    22    24    25    1
    23    19    18    2
    24    15    16    2
    25    18    16    1
    26    31    30    1
    27    16    17    1
    28    25    30    2
    29    25    26    1
    30    30    29    1
    31    26    27    2
    32    29    28    2
    33    27    28    1
