@<TRIPOS>MOLECULE
51104_out_ligand_01.pdbqt
 33 35 0 0 0
SMALL
GASTEIGER

@<TRIPOS>ATOM
      1  C         22.8390  -22.9650  -10.9140 C.2     1  UNL1        0.0280
      2  C         22.7200  -23.5590   -9.6520 C.2     1  UNL1        0.0260
      3  C         21.5440  -23.4080   -8.9180 C.2     1  UNL1        0.0190
      4  C         20.4730  -22.6850   -9.4550 C.2     1  UNL1        0.0330
      5  C         20.5920  -22.0900  -10.7190 C.2     1  UNL1        0.0250
      6  C         21.7790  -22.2230  -11.4610 C.2     1  UNL1       -0.0390
      7  C         21.8770  -21.5930  -12.8220 C.3     1  UNL1        0.0500
      8  C         19.2330  -22.5440   -8.6440 C.2     1  UNL1        0.2560
      9  O         18.1690  -22.4270   -9.2370 O.2     1  UNL1       -0.2670
     10  N         19.4340  -22.5420   -7.2750 N.am    1  UNL1       -0.3230
     11  H         20.3950  -22.5440   -6.9540 H       1  UNL1        0.1690
     12  C         18.4530  -22.4590   -6.2670 C.2     1  UNL1        0.0350
     13  C         18.7560  -21.6770   -5.1440 C.2     1  UNL1        0.0290
     14  C         17.8400  -21.5410   -4.0990 C.2     1  UNL1        0.0030
     15  C         16.6090  -22.1900   -4.1630 C.2     1  UNL1        0.0160
     16  C         16.2860  -22.9840   -5.2740 C.2     1  UNL1        0.0500
     17  C         17.2170  -23.1070   -6.3220 C.2     1  UNL1        0.0450
     18  C         14.9470  -23.6720   -5.3720 C.3     1  UNL1        0.4170
     19  F         14.8570  -24.4840   -6.4620 F       1  UNL1       -0.1660
     20  F         13.9020  -22.8000   -5.4730 F       1  UNL1       -0.1660
     21  F         14.6670  -24.4550   -4.2920 F       1  UNL1       -0.1660
     22  N         24.0380  -23.1730  -11.6760 N.pl3   1  UNL1       -0.1810
     23  H         23.8490  -23.0480  -12.6730 H       1  UNL1        0.1460
     24  S         25.2980  -22.0830  -11.2930 S.O2    1  UNL1        0.2450
     25  O         26.5010  -22.8120  -10.9580 O.2     1  UNL1       -0.2060
     26  O         24.7250  -21.0970  -10.4010 O.2     1  UNL1       -0.2060
     27  C         25.5470  -21.3160  -12.8760 C.2     1  UNL1        0.0740
     28  C         25.3120  -22.0540  -14.0390 C.2     1  UNL1        0.0250
     29  C         25.5200  -21.4580  -15.2840 C.2     1  UNL1        0.0080
     30  C         25.9770  -20.1350  -15.3710 C.2     1  UNL1       -0.0620
     31  C         26.1740  -19.4970  -16.7160 C.3     1  UNL1        0.0480
     32  C         26.2100  -19.4080  -14.1960 C.2     1  UNL1        0.0080
     33  C         26.0050  -19.9980  -12.9470 C.2     1  UNL1        0.0250
@<TRIPOS>BOND
     1    31    30    1
     2    30    29    2
     3    30    32    1
     4    29    28    1
     5    32    33    2
     6    28    27    2
     7    33    27    1
     8    27    24    1
     9     7     6    1
    10    23    22    1
    11    22    24    1
    12    22     1    1
    13     6     1    2
    14     6     5    1
    15    24    25    2
    16    24    26    2
    17     1     2    1
    18     5     4    2
    19     2     3    2
    20     4     3    1
    21     4     8    1
    22     9     8    2
    23     8    10   am
    24    10    11    1
    25    10    12    1
    26    19    18    1
    27    17    12    2
    28    17    16    1
    29    12    13    1
    30    20    18    1
    31    18    16    1
    32    18    21    1
    33    16    15    2
    34    13    14    2
    35    15    14    1
