@<TRIPOS>MOLECULE
51111_out_ligand_01.pdbqt
 34 36 0 0 0
SMALL
GASTEIGER

@<TRIPOS>ATOM
      1  C         20.0580  -22.6310   -9.7430 C.2     1  UNL1        0.0400
      2  C         19.3720  -21.7600  -10.6050 C.2     1  UNL1        0.0180
      3  C         19.9690  -21.3380  -11.7860 C.2     1  UNL1        0.0030
      4  C         21.2510  -21.7800  -12.1020 C.2     1  UNL1        0.0250
      5  C         21.9420  -22.6530  -11.2500 C.2     1  UNL1        0.0290
      6  C         21.3580  -23.0970  -10.0500 C.2     1  UNL1       -0.0240
      7  C         22.0860  -23.9890   -9.0790 C.3     1  UNL1        0.0510
      8  C         19.3750  -23.0250   -8.4800 C.2     1  UNL1        0.2560
      9  N         18.9450  -21.9470   -7.7260 N.am    1  UNL1       -0.3220
     10  H         19.0880  -21.0390   -8.1480 H       1  UNL1        0.1690
     11  O         19.2470  -24.2150   -8.2310 O.2     1  UNL1       -0.2670
     12  C         18.2610  -21.9650   -6.4850 C.2     1  UNL1        0.0420
     13  C         18.9250  -21.7080   -5.2770 C.2     1  UNL1        0.0300
     14  C         18.2600  -21.7780   -4.0540 C.2     1  UNL1        0.0030
     15  C         16.9160  -22.1230   -4.0170 C.2     1  UNL1        0.0180
     16  C         16.2230  -22.3720   -5.2080 C.2     1  UNL1        0.0470
     17  C         16.8750  -22.2630   -6.4630 C.2     1  UNL1       -0.0190
     18  C         16.0980  -22.4830   -7.7400 C.3     1  UNL1        0.0520
     19  C         14.8050  -22.8080   -5.1050 C.2     1  UNL1        0.2930
     20  O         14.4160  -23.9410   -5.3350 O.2     1  UNL1       -0.2590
     21  O         14.0360  -21.7510   -4.7430 O.3     1  UNL1       -0.3230
     22  C         13.2980  -21.1770   -5.8230 C.3     1  UNL1        0.2130
     23  N         23.2810  -23.0010  -11.6410 N.pl3   1  UNL1       -0.1810
     24  H         23.4860  -23.9890  -11.5010 H       1  UNL1        0.1460
     25  S         24.4990  -22.1010  -10.8500 S.O2    1  UNL1        0.2450
     26  O         25.5530  -23.0330  -10.5120 O.2     1  UNL1       -0.2060
     27  O         23.9060  -21.2160   -9.8720 O.2     1  UNL1       -0.2060
     28  C         25.0710  -21.0930  -12.1970 C.2     1  UNL1        0.0740
     29  C         24.5040  -21.2280  -13.4650 C.2     1  UNL1        0.0250
     30  C         24.9710  -20.4300  -14.5130 C.2     1  UNL1        0.0080
     31  C         26.0090  -19.5130  -14.3000 C.2     1  UNL1       -0.0620
     32  C         26.4890  -18.6370  -15.4220 C.3     1  UNL1        0.0480
     33  C         26.5650  -19.3860  -13.0190 C.2     1  UNL1        0.0080
     34  C         26.1040  -20.1790  -11.9670 C.2     1  UNL1        0.0250
@<TRIPOS>BOND
     1    32    31    1
     2    30    31    2
     3    30    29    1
     4    31    33    1
     5    29    28    2
     6    33    34    2
     7    28    34    1
     8    28    25    1
     9     4     3    2
    10     4     5    1
    11     3     2    1
    12    23    24    1
    13    23     5    1
    14    23    25    1
    15     5     6    2
    16    25    26    2
    17    25    27    2
    18     2     1    2
    19     6     1    1
    20     6     7    1
    21     1     8    1
    22     8    11    2
    23     8     9   am
    24    10     9    1
    25    18    17    1
    26     9    12    1
    27    12    17    2
    28    12    13    1
    29    17    16    1
    30    22    21    1
    31    20    19    2
    32    13    14    2
    33    16    19    1
    34    16    15    2
    35    19    21    1
    36    14    15    1
