@<TRIPOS>MOLECULE
51113_out_ligand_01.pdbqt
 31 34 0 0 0
SMALL
GASTEIGER

@<TRIPOS>ATOM
      1  C         19.2650  -21.6560  -11.4810 C.2     1  UNL1        0.0320
      2  C         18.2030  -20.7460  -11.4020 C.2     1  UNL1        0.0170
      3  C         17.0140  -21.1010  -10.7530 C.2     1  UNL1        0.0100
      4  C         16.8730  -22.3620  -10.1620 C.2     1  UNL1       -0.0300
      5  C         17.9290  -23.2800  -10.2760 C.2     1  UNL1        0.0100
      6  C         19.1180  -22.9280  -10.9210 C.2     1  UNL1        0.0170
      7  C         20.5860  -21.2920  -12.0710 C.2     1  UNL1        0.2510
      8  O         20.6920  -20.2880  -12.7690 O.2     1  UNL1       -0.2680
      9  N         21.6450  -22.1300  -11.7890 N.am    1  UNL1       -0.3570
     10  H         21.5470  -22.8380  -11.0750 H       1  UNL1        0.1620
     11  C         22.9490  -21.9530  -12.3960 C.3     1  UNL1        0.1230
     12  C         24.0580  -22.7120  -11.6730 C.3     1  UNL1        0.0240
     13  C         24.2030  -22.3030  -10.2000 C.3     1  UNL1        0.0400
     14  C         22.9870  -22.7100   -9.3990 C.2     1  UNL1       -0.0580
     15  C         22.4800  -24.0150   -9.5000 C.2     1  UNL1        0.0100
     16  C         21.3440  -24.3840   -8.7790 C.2     1  UNL1        0.0430
     17  C         20.7140  -23.4510   -7.9630 C.2     1  UNL1        0.1160
     18  F         19.6220  -23.8080   -7.2720 F       1  UNL1       -0.2060
     19  C         21.2000  -22.1550   -7.8530 C.2     1  UNL1        0.0430
     20  C         22.3360  -21.7820   -8.5730 C.2     1  UNL1        0.0100
     21  C         15.6320  -22.7210   -9.3700 C.3     1  UNL1        0.3110
     22  N         15.7650  -22.7470   -7.9080 N.3     1  UNL1        0.0970
     23  C         15.6980  -24.0910   -7.3360 C.3     1  UNL1        0.2770
     24  C         15.5450  -24.0290   -5.8110 C.3     1  UNL1        0.0690
     25  C         16.5970  -23.1690   -5.1760 C.2     1  UNL1       -0.0490
     26  C         16.9210  -23.3280   -3.8190 C.2     1  UNL1        0.0070
     27  C         17.2190  -22.1650   -5.9360 C.2     1  UNL1       -0.0240
     28  C         17.8760  -22.5090   -3.2270 C.2     1  UNL1        0.0010
     29  C         18.4950  -21.5060   -3.9700 C.2     1  UNL1        0.0010
     30  C         18.1670  -21.3300   -5.3130 C.2     1  UNL1        0.0090
     31  C         16.9500  -22.0190   -7.4280 C.3     1  UNL1        0.3110
@<TRIPOS>BOND
     1     8     7    2
     2    11     9    1
     3    11    12    1
     4     7     9   am
     5     7     1    1
     6     9    10    1
     7    12    13    1
     8     1     2    2
     9     1     6    1
    10     2     3    1
    11     6     5    2
    12     3     4    2
    13     5     4    1
    14    13    14    1
    15     4    21    1
    16    15    14    2
    17    15    16    1
    18    14    20    1
    19    21    22    1
    20    16    17    2
    21    20    19    2
    22    17    19    1
    23    17    18    1
    24    22    31    1
    25    22    23    1
    26    31    27    1
    27    23    24    1
    28    27    30    1
    29    27    25    2
    30    24    25    1
    31    30    29    2
    32    25    26    1
    33    29    28    1
    34    26    28    2
