@<TRIPOS>MOLECULE
51129_out_ligand_01.pdbqt
 41 44 0 0 0
SMALL
GASTEIGER

@<TRIPOS>ATOM
      1  C         20.1130  -22.7770   -7.6280 C.2     1  UNL1        0.2560
      2  O         19.6960  -23.8280   -8.0960 O.2     1  UNL1       -0.2670
      3  N         21.1300  -21.9910   -8.1390 N.am    1  UNL1       -0.3230
      4  H         21.2900  -21.0880   -7.7060 H       1  UNL1        0.1690
      5  C         22.0010  -22.3130   -9.2010 C.2     1  UNL1        0.0350
      6  C         23.2590  -22.8980   -9.0280 C.2     1  UNL1        0.0310
      7  C         24.0970  -23.1320  -10.1250 C.2     1  UNL1        0.0270
      8  C         23.6790  -22.7620  -11.4020 C.2     1  UNL1        0.0800
      9  C         22.4140  -22.2120  -11.6000 C.2     1  UNL1        0.0270
     10  C         21.5790  -21.9900  -10.5000 C.2     1  UNL1        0.0310
     11  S         24.7700  -22.9990  -12.7830 S.O2    1  UNL1        0.2630
     12  O         26.0250  -22.3500  -12.4640 O.2     1  UNL1       -0.2000
     13  O         24.7300  -24.3950  -13.1640 O.2     1  UNL1       -0.2000
     14  N         24.0430  -22.0580  -13.9640 N.pl3   1  UNL1       -0.2800
     15  H         23.0920  -21.7500  -13.7710 H       1  UNL1        0.1790
     16  C         24.8210  -21.3700  -14.9320 C.2     1  UNL1        0.0490
     17  C         25.2900  -20.0830  -14.6480 C.2     1  UNL1        0.0370
     18  C         26.0320  -19.3660  -15.5950 C.2     1  UNL1       -0.0600
     19  C         26.5620  -17.9980  -15.2780 C.3     1  UNL1        0.0480
     20  C         26.2970  -19.9550  -16.8330 C.2     1  UNL1        0.0070
     21  C         25.8050  -21.2280  -17.1300 C.2     1  UNL1        0.0090
     22  C         25.0350  -21.9380  -16.1950 C.2     1  UNL1       -0.0350
     23  C         24.5230  -23.3040  -16.5620 C.3     1  UNL1        0.0500
     24  C         19.4760  -22.2740   -6.3780 C.2     1  UNL1        0.0340
     25  C         19.7550  -20.9590   -5.9760 C.2     1  UNL1        0.0170
     26  C         19.1490  -20.4260   -4.8400 C.2     1  UNL1        0.0030
     27  C         18.2620  -21.2040   -4.0990 C.2     1  UNL1        0.0300
     28  C         17.9790  -22.5130   -4.4900 C.2     1  UNL1        0.0430
     29  C         18.5730  -23.0480   -5.6380 C.2     1  UNL1        0.0470
     30  N         17.0980  -23.3320   -3.7280 N.pl3   1  UNL1       -0.2810
     31  H         17.1870  -23.3210   -2.7160 H       1  UNL1        0.1790
     32  S         15.4770  -23.4740   -4.2070 S.O2    1  UNL1        0.2630
     33  O         14.9660  -24.7700   -3.8160 O.2     1  UNL1       -0.2000
     34  O         14.8320  -22.2490   -3.7830 O.2     1  UNL1       -0.2000
     35  C         15.5900  -23.4300   -5.9850 C.2     1  UNL1        0.0790
     36  C         15.4390  -22.2130   -6.6540 C.2     1  UNL1        0.0260
     37  C         15.5320  -22.1780   -8.0480 C.2     1  UNL1        0.0080
     38  C         15.7750  -23.3520   -8.7740 C.2     1  UNL1       -0.0620
     39  C         15.8360  -23.3190  -10.2740 C.3     1  UNL1        0.0480
     40  C         15.8900  -24.5720   -8.0890 C.2     1  UNL1        0.0080
     41  C         15.7940  -24.6150   -6.6970 C.2     1  UNL1        0.0260
@<TRIPOS>BOND
     1    21    20    2
     2    21    22    1
     3    20    18    1
     4    23    22    1
     5    22    16    2
     6    18    19    1
     7    18    17    2
     8    16    17    1
     9    16    14    1
    10    14    15    1
    11    14    11    1
    12    13    11    2
    13    11    12    2
    14    11     8    1
    15     9     8    2
    16     9    10    1
    17     8     7    1
    18    10     5    2
    19    39    38    1
    20     7     6    2
    21     5     6    1
    22     5     3    1
    23    38    40    2
    24    38    37    1
    25     3     4    1
    26     3     1   am
    27     2     1    2
    28    40    41    1
    29    37    36    2
    30     1    24    1
    31    41    35    2
    32    36    35    1
    33    24    25    2
    34    24    29    1
    35    35    32    1
    36    25    26    1
    37    29    28    2
    38    26    27    2
    39    28    27    1
    40    28    30    1
    41    32    33    2
    42    32    34    2
    43    32    30    1
    44    30    31    1
