@<TRIPOS>MOLECULE
51167_out_ligand_01.pdbqt
 41 44 0 0 0
SMALL
GASTEIGER

@<TRIPOS>ATOM
      1  N         21.1620  -22.7990  -10.8330 N.am    1  UNL1       -0.3230
      2  C         21.3290  -21.7110  -11.6670 C.2     1  UNL1        0.2560
      3  O         20.6290  -20.7090  -11.7270 O.2     1  UNL1       -0.2670
      4  H         21.9300  -23.4570  -10.7880 H       1  UNL1        0.1690
      5  C         22.5100  -21.8070  -12.5680 C.2     1  UNL1        0.0320
      6  C         23.5320  -22.7280  -12.3120 C.2     1  UNL1        0.0190
      7  C         24.6100  -22.8300  -13.1930 C.2     1  UNL1        0.0310
      8  C         24.6670  -22.0350  -14.3420 C.2     1  UNL1        0.0450
      9  C         23.6610  -21.0940  -14.5780 C.2     1  UNL1        0.0310
     10  C         22.5720  -20.9950  -13.7060 C.2     1  UNL1        0.0190
     11  N         25.8360  -22.1630  -15.1680 N.pl3   1  UNL1       -0.2720
     12  C         26.7970  -21.0260  -15.1380 C.3     1  UNL1        0.1830
     13  C         26.9060  -20.2750  -13.8380 C.2     1  UNL1       -0.0010
     14  C         26.9930  -20.9590  -12.6140 C.2     1  UNL1        0.0120
     15  C         27.0960  -20.2530  -11.4130 C.2     1  UNL1        0.0010
     16  C         27.1210  -18.8570  -11.4190 C.2     1  UNL1        0.0030
     17  C         27.0300  -18.1660  -12.6270 C.2     1  UNL1        0.0430
     18  C         26.9270  -18.8770  -13.8220 C.2     1  UNL1        0.1240
     19  F         26.8320  -18.1920  -14.9720 F       1  UNL1       -0.2050
     20  S         25.7280  -23.0140  -16.6310 S.O2    1  UNL1        0.2290
     21  C         24.8980  -21.8370  -17.6820 C.3     1  UNL1        0.1860
     22  O         27.0520  -23.2550  -17.1640 O.2     1  UNL1       -0.2060
     23  O         24.8110  -24.1200  -16.4240 O.2     1  UNL1       -0.2060
     24  C         20.0620  -23.0800   -9.9990 C.2     1  UNL1        0.0350
     25  C         18.7430  -22.7270  -10.3020 C.2     1  UNL1        0.0310
     26  C         17.6950  -23.0920   -9.4490 C.2     1  UNL1        0.0270
     27  C         17.9700  -23.8210   -8.2910 C.2     1  UNL1        0.0750
     28  C         19.2830  -24.1600   -7.9620 C.2     1  UNL1        0.0270
     29  C         20.3220  -23.7930   -8.8210 C.2     1  UNL1        0.0310
     30  S         16.6450  -24.3040   -7.2090 S.O2    1  UNL1        0.2450
     31  O         17.2090  -25.0980   -6.1420 O.2     1  UNL1       -0.2060
     32  O         15.5570  -24.7830   -8.0370 O.2     1  UNL1       -0.2060
     33  N         16.1690  -22.7720   -6.6270 N.pl3   1  UNL1       -0.1810
     34  H         15.2170  -22.8820   -6.2760 H       1  UNL1        0.1460
     35  C         17.0100  -22.2480   -5.5880 C.2     1  UNL1        0.0280
     36  C         18.1650  -21.5390   -5.9330 C.2     1  UNL1        0.0250
     37  C         18.9830  -21.0130   -4.9350 C.2     1  UNL1        0.0020
     38  C         18.6430  -21.1840   -3.5940 C.2     1  UNL1        0.0010
     39  C         17.4800  -21.8750   -3.2490 C.2     1  UNL1        0.0080
     40  C         16.6500  -22.4160   -4.2420 C.2     1  UNL1       -0.0400
     41  C         15.3920  -23.1340   -3.8490 C.3     1  UNL1        0.0500
@<TRIPOS>BOND
     1    21    20    1
     2    22    20    2
     3    20    23    2
     4    20    11    1
     5    11    12    1
     6    11     8    1
     7    12    13    1
     8    19    18    1
     9     9     8    2
    10     9    10    1
    11     8     7    1
    12    13    18    2
    13    13    14    1
    14    18    17    1
    15    10     5    2
    16     7     6    2
    17    17    16    2
    18    14    15    2
    19     5     6    1
    20     5     2    1
    21     3     2    2
    22     2     1   am
    23    16    15    1
    24     1     4    1
    25     1    24    1
    26    25    24    2
    27    25    26    1
    28    24    29    1
    29    26    27    2
    30    29    28    2
    31    27    28    1
    32    27    30    1
    33    32    30    2
    34    30    33    1
    35    30    31    2
    36    33    34    1
    37    33    35    1
    38    36    35    2
    39    36    37    1
    40    35    40    1
    41    37    38    2
    42    40    41    1
    43    40    39    2
    44    38    39    1
