@<TRIPOS>MOLECULE
51177_out_ligand_01.pdbqt
 35 37 0 0 0
SMALL
GASTEIGER

@<TRIPOS>ATOM
      1  C         19.6450  -22.9080   -9.7960 C.2     1  UNL1        0.0330
      2  C         18.9730  -22.1330  -10.7430 C.2     1  UNL1        0.0170
      3  C         17.5840  -22.0000  -10.6750 C.2     1  UNL1        0.0090
      4  C         16.8350  -22.6430   -9.6710 C.2     1  UNL1       -0.0390
      5  C         15.3440  -22.4450   -9.6700 C.3     1  UNL1        0.0500
      6  C         17.5230  -23.4340   -8.7310 C.2     1  UNL1        0.0860
      7  C         18.9220  -23.5650   -8.7970 C.2     1  UNL1        0.0420
      8  C         21.1210  -23.0890   -9.8430 C.2     1  UNL1        0.2560
      9  N         21.7700  -22.2950  -10.7700 N.am    1  UNL1       -0.3230
     10  H         21.2110  -21.5990  -11.2470 H       1  UNL1        0.1690
     11  O         21.6280  -23.8840   -9.0620 O.2     1  UNL1       -0.2670
     12  C         23.1510  -22.2800  -11.0650 C.2     1  UNL1        0.0350
     13  C         24.0970  -21.5690  -10.3240 C.2     1  UNL1        0.0290
     14  C         25.4500  -21.6100  -10.6720 C.2     1  UNL1        0.0030
     15  C         25.8700  -22.3630  -11.7660 C.2     1  UNL1        0.0180
     16  C         24.9360  -23.0830  -12.5200 C.2     1  UNL1        0.0410
     17  C         23.5790  -23.0400  -12.1630 C.2     1  UNL1        0.0470
     18  C         25.4320  -23.8740  -13.6790 C.2     1  UNL1        0.2930
     19  O         25.3040  -25.0840  -13.7740 O.2     1  UNL1       -0.2590
     20  O         26.0280  -23.0620  -14.5900 O.3     1  UNL1       -0.3180
     21  C         25.1400  -22.2730  -15.3940 C.3     1  UNL1        0.1740
     22  C         24.5110  -23.1300  -16.4770 C.3     1  UNL1        0.0340
     23  S         16.7230  -24.3060   -7.3900 S.O2    1  UNL1        0.2630
     24  O         17.6950  -25.0250   -6.5980 O.2     1  UNL1       -0.2000
     25  O         15.5970  -25.0100   -7.9690 O.2     1  UNL1       -0.2000
     26  N         16.0620  -23.0490   -6.4760 N.pl3   1  UNL1       -0.2800
     27  H         15.0790  -23.2180   -6.2680 H       1  UNL1        0.1790
     28  C         16.8630  -22.4530   -5.4610 C.2     1  UNL1        0.0490
     29  C         17.9290  -21.6360   -5.8530 C.2     1  UNL1        0.0370
     30  C         18.7750  -21.0600   -4.8990 C.2     1  UNL1       -0.0600
     31  C         19.9360  -20.2100   -5.3210 C.3     1  UNL1        0.0480
     32  C         18.5530  -21.3330   -3.5470 C.2     1  UNL1        0.0070
     33  C         17.4870  -22.1460   -3.1530 C.2     1  UNL1        0.0090
     34  C         16.6240  -22.7110   -4.1040 C.2     1  UNL1       -0.0350
     35  C         15.5000  -23.5950   -3.6440 C.3     1  UNL1        0.0500
@<TRIPOS>BOND
     1    22    21    1
     2    21    20    1
     3    20    18    1
     4    19    18    2
     5    18    16    1
     6    16    17    1
     7    16    15    2
     8    17    12    2
     9    15    14    1
    10    10     9    1
    11    12     9    1
    12    12    13    1
    13     9     8   am
    14     2     3    1
    15     2     1    2
    16     3     4    2
    17    14    13    2
    18     8     1    1
    19     8    11    2
    20     1     7    1
    21     4     5    1
    22     4     6    1
    23     7     6    2
    24     6    23    1
    25    25    23    2
    26    23    24    2
    27    23    26    1
    28    26    27    1
    29    26    28    1
    30    29    28    2
    31    29    30    1
    32    28    34    1
    33    31    30    1
    34    30    32    2
    35    34    35    1
    36    34    33    2
    37    32    33    1
