@<TRIPOS>MOLECULE
51173_out_ligand_01.pdbqt
 32 35 0 0 0
SMALL
GASTEIGER

@<TRIPOS>ATOM
      1  C         20.9820  -21.0560  -12.5000 C.3     1  UNL1        0.0500
      2  C         20.1680  -21.5760  -11.3480 C.2     1  UNL1       -0.0390
      3  C         18.7650  -21.4900  -11.4430 C.2     1  UNL1        0.0090
      4  C         17.9410  -21.9560  -10.4170 C.2     1  UNL1        0.0170
      5  C         18.5150  -22.5010   -9.2690 C.2     1  UNL1        0.0340
      6  C         19.9000  -22.6110   -9.1490 C.2     1  UNL1        0.0420
      7  C         20.7280  -22.1470  -10.1850 C.2     1  UNL1        0.0860
      8  S         22.4860  -22.3090   -9.9110 S.O2    1  UNL1        0.2630
      9  O         23.0930  -21.0130   -9.7020 O.2     1  UNL1       -0.2000
     10  O         22.6570  -23.3510   -8.9160 O.2     1  UNL1       -0.2000
     11  N         23.0310  -22.9710  -11.3640 N.pl3   1  UNL1       -0.2800
     12  H         22.5760  -23.8560  -11.5750 H       1  UNL1        0.1790
     13  C         24.4010  -22.8210  -11.7170 C.2     1  UNL1        0.0490
     14  C         25.3480  -23.2660  -10.7880 C.2     1  UNL1        0.0310
     15  C         26.7060  -23.1740  -11.0740 C.2     1  UNL1        0.0030
     16  C         27.1210  -22.6430  -12.2920 C.2     1  UNL1        0.0070
     17  C         26.1840  -22.1940  -13.2390 C.2     1  UNL1       -0.0540
     18  C         26.6880  -21.6300  -14.5410 C.3     1  UNL1        0.0490
     19  C         24.8020  -22.2620  -12.9450 C.2     1  UNL1       -0.0290
     20  C         23.7950  -21.7890  -13.9620 C.3     1  UNL1        0.0510
     21  C         17.6510  -23.0380   -8.1980 C.2     1  UNL1        0.2580
     22  O         16.9190  -23.9600   -8.5520 O.2     1  UNL1       -0.2670
     23  N         17.7590  -22.4690   -6.9130 N.am    1  UNL1       -0.3130
     24  C         18.9840  -21.7380   -6.5450 C.3     1  UNL1        0.1330
     25  C         16.8560  -22.8300   -5.8420 C.2     1  UNL1        0.0430
     26  C         18.8540  -20.8920   -5.2920 C.3     1  UNL1        0.0250
     27  C         18.4350  -21.7820   -4.1420 C.3     1  UNL1        0.0420
     28  C         17.1650  -22.5030   -4.5020 C.2     1  UNL1       -0.0310
     29  C         16.3000  -22.8740   -3.4550 C.2     1  UNL1        0.0090
     30  C         15.1040  -23.5320   -3.7220 C.2     1  UNL1        0.0010
     31  C         14.7670  -23.8250   -5.0370 C.2     1  UNL1        0.0020
     32  C         15.6310  -23.4750   -6.0810 C.2     1  UNL1        0.0300
@<TRIPOS>BOND
     1    18    17    1
     2    20    19    1
     3    17    19    1
     4    17    16    2
     5    19    13    2
     6     1     2    1
     7    16    15    1
     8    13    11    1
     9    13    14    1
    10    12    11    1
    11     3     2    2
    12     3     4    1
    13    11     8    1
    14     2     7    1
    15    15    14    2
    16     4     5    2
    17     7     8    1
    18     7     6    2
    19     8     9    2
    20     8    10    2
    21     5     6    1
    22     5    21    1
    23    22    21    2
    24    21    23   am
    25    23    24    1
    26    23    25    1
    27    24    26    1
    28    32    25    2
    29    32    31    1
    30    25    28    1
    31    26    27    1
    32    31    30    2
    33    28    27    1
    34    28    29    2
    35    30    29    1
