@<TRIPOS>MOLECULE
51174_out_ligand_01.pdbqt
 31 34 0 0 0
SMALL
GASTEIGER

@<TRIPOS>ATOM
      1  C         17.4460  -23.4610   -8.7500 C.2     1  UNL1        0.0860
      2  C         18.8490  -23.4430   -8.7460 C.2     1  UNL1        0.0420
      3  C         19.5390  -22.7600   -9.7490 C.2     1  UNL1        0.0340
      4  C         18.8410  -22.1430  -10.7880 C.2     1  UNL1        0.0170
      5  C         17.4460  -22.1650  -10.7950 C.2     1  UNL1        0.0090
      6  C         16.7240  -22.8120   -9.7750 C.2     1  UNL1       -0.0390
      7  C         15.2240  -22.8220   -9.8720 C.3     1  UNL1        0.0500
      8  S         16.6330  -24.3780   -7.4440 S.O2    1  UNL1        0.2630
      9  O         17.6370  -25.1270   -6.7200 O.2     1  UNL1       -0.2000
     10  O         15.4840  -25.0490   -8.0140 O.2     1  UNL1       -0.2000
     11  N         16.0270  -23.1670   -6.4410 N.pl3   1  UNL1       -0.2810
     12  H         15.3040  -22.6060   -6.8840 H       1  UNL1        0.1790
     13  C         16.8540  -22.5630   -5.4550 C.2     1  UNL1        0.0430
     14  C         16.6040  -22.7310   -4.0950 C.2     1  UNL1        0.0300
     15  C         17.4240  -22.1090   -3.1540 C.2     1  UNL1        0.0030
     16  C         18.4960  -21.3180   -3.5730 C.2     1  UNL1        0.0070
     17  C         18.7630  -21.1540   -4.9360 C.2     1  UNL1       -0.0600
     18  C         19.8960  -20.2790   -5.3870 C.3     1  UNL1        0.0480
     19  C         17.9250  -21.7690   -5.8750 C.2     1  UNL1        0.0370
     20  C         21.0180  -22.7860   -9.7510 C.2     1  UNL1        0.2580
     21  O         21.5470  -23.1570   -8.7070 O.2     1  UNL1       -0.2670
     22  N         21.6730  -22.4090  -10.9150 N.am    1  UNL1       -0.3090
     23  C         23.0700  -22.4920  -11.1100 C.2     1  UNL1        0.0440
     24  C         21.0920  -21.7240  -12.1030 C.3     1  UNL1        0.0930
     25  C         24.0550  -22.9130  -10.2320 C.2     1  UNL1        0.0300
     26  C         23.4040  -22.0840  -12.4040 C.2     1  UNL1       -0.0290
     27  C         25.3860  -22.9040  -10.6630 C.2     1  UNL1        0.0020
     28  C         25.7150  -22.4890  -11.9600 C.2     1  UNL1        0.0010
     29  C         24.7180  -22.0800  -12.8460 C.2     1  UNL1        0.0090
     30  C         22.1820  -21.7540  -13.1970 C.3     1  UNL1        0.0660
     31  C         20.6980  -20.2800  -11.7750 C.3     1  UNL1        0.0330
@<TRIPOS>BOND
     1    30    26    1
     2    30    24    1
     3    29    26    1
     4    29    28    2
     5    26    23    2
     6    24    31    1
     7    24    22    1
     8    28    27    1
     9    23    22    1
    10    23    25    1
    11    22    20   am
    12     5     4    2
    13     5     6    1
    14     4     3    1
    15    27    25    2
    16     7     6    1
    17     6     1    2
    18    20     3    1
    19    20    21    2
    20     3     2    2
    21     1     2    1
    22     1     8    1
    23    10     8    2
    24     8     9    2
    25     8    11    1
    26    12    11    1
    27    11    13    1
    28    19    13    2
    29    19    17    1
    30    13    14    1
    31    18    17    1
    32    17    16    2
    33    14    15    2
    34    16    15    1
