@<TRIPOS>MOLECULE
51183_out_ligand_01.pdbqt
 36 38 0 0 0
SMALL
GASTEIGER

@<TRIPOS>ATOM
      1  C         19.6740  -22.7740   -9.9280 C.2     1  UNL1        0.0330
      2  C         19.0000  -21.9940  -10.8700 C.2     1  UNL1        0.0170
      3  C         17.6090  -21.8800  -10.8110 C.2     1  UNL1        0.0090
      4  C         16.8630  -22.5490   -9.8210 C.2     1  UNL1       -0.0390
      5  C         15.3750  -22.3400   -9.7980 C.3     1  UNL1        0.0500
      6  C         17.5560  -23.3450   -8.8870 C.2     1  UNL1        0.0860
      7  C         18.9550  -23.4530   -8.9420 C.2     1  UNL1        0.0420
      8  C         21.1540  -22.9150   -9.9520 C.2     1  UNL1        0.2560
      9  N         21.7600  -22.3690  -11.0690 N.am    1  UNL1       -0.3220
     10  H         21.1520  -21.8610  -11.6950 H       1  UNL1        0.1690
     11  O         21.6950  -23.4470   -8.9910 O.2     1  UNL1       -0.2670
     12  C         23.1400  -22.3550  -11.3900 C.2     1  UNL1        0.0420
     13  C         24.1090  -22.7970  -10.4770 C.2     1  UNL1        0.0300
     14  C         25.4640  -22.8210  -10.8100 C.2     1  UNL1        0.0030
     15  C         25.8710  -22.4180  -12.0730 C.2     1  UNL1        0.0180
     16  C         24.9240  -21.9700  -13.0050 C.2     1  UNL1        0.0470
     17  C         23.5480  -21.9060  -12.6710 C.2     1  UNL1       -0.0190
     18  C         22.5470  -21.3790  -13.6670 C.3     1  UNL1        0.0520
     19  C         25.4080  -21.6160  -14.3600 C.2     1  UNL1        0.2930
     20  O         25.7280  -20.4920  -14.7040 O.2     1  UNL1       -0.2590
     21  O         25.4570  -22.7420  -15.1140 O.3     1  UNL1       -0.3180
     22  C         25.2970  -22.5120  -16.5200 C.3     1  UNL1        0.1740
     23  C         24.1790  -23.4040  -17.0190 C.3     1  UNL1        0.0340
     24  S         16.7280  -24.2170   -7.5580 S.O2    1  UNL1        0.2630
     25  O         15.6180  -24.9530   -8.1250 O.2     1  UNL1       -0.2000
     26  O         17.7320  -24.9110   -6.7800 O.2     1  UNL1       -0.2000
     27  N         16.1380  -22.9780   -6.5800 N.pl3   1  UNL1       -0.2800
     28  H         15.1360  -23.0460   -6.4310 H       1  UNL1        0.1790
     29  C         16.9470  -22.3930   -5.5600 C.2     1  UNL1        0.0490
     30  C         18.0270  -21.5700   -5.8990 C.2     1  UNL1        0.0370
     31  C         18.8500  -21.0150   -4.9100 C.2     1  UNL1       -0.0600
     32  C         20.0440  -20.1880   -5.2840 C.3     1  UNL1        0.0480
     33  C         18.5750  -21.2850   -3.5680 C.2     1  UNL1        0.0070
     34  C         17.4760  -22.0710   -3.2200 C.2     1  UNL1        0.0090
     35  C         16.6450  -22.6250   -4.2060 C.2     1  UNL1       -0.0350
     36  C         15.4780  -23.4670   -3.7720 C.3     1  UNL1        0.0500
@<TRIPOS>BOND
     1    23    22    1
     2    22    21    1
     3    21    19    1
     4    20    19    2
     5    19    16    1
     6    18    17    1
     7    16    17    1
     8    16    15    2
     9    17    12    2
    10    15    14    1
    11    10     9    1
    12    12     9    1
    13    12    13    1
    14     9     8   am
    15     2     3    1
    16     2     1    2
    17     3     4    2
    18    14    13    2
    19     8     1    1
    20     8    11    2
    21     1     7    1
    22     4     5    1
    23     4     6    1
    24     7     6    2
    25     6    24    1
    26    25    24    2
    27    24    26    2
    28    24    27    1
    29    27    28    1
    30    27    29    1
    31    30    29    2
    32    30    31    1
    33    29    35    1
    34    32    31    1
    35    31    33    2
    36    35    36    1
    37    35    34    2
    38    33    34    1
