@<TRIPOS>MOLECULE
51187_out_ligand_01.pdbqt
 38 41 0 0 0
SMALL
GASTEIGER

@<TRIPOS>ATOM
      1  C         23.0390  -22.6540   -9.4300 C.2     1  UNL1        0.0750
      2  C         22.2450  -23.7960   -9.5530 C.2     1  UNL1        0.0270
      3  C         21.1010  -23.9200   -8.7620 C.2     1  UNL1        0.0310
      4  C         20.7490  -22.9150   -7.8460 C.2     1  UNL1        0.0350
      5  C         21.5690  -21.7890   -7.7180 C.2     1  UNL1        0.0310
      6  C         22.7140  -21.6550   -8.5090 C.2     1  UNL1        0.0270
      7  N         19.5530  -23.0990   -7.1240 N.am    1  UNL1       -0.3230
      8  C         18.8730  -22.1800   -6.3460 C.2     1  UNL1        0.2570
      9  O         19.2470  -21.0320   -6.1210 O.2     1  UNL1       -0.2670
     10  H         19.1530  -24.0310   -7.1770 H       1  UNL1        0.1690
     11  C         17.5680  -22.6310   -5.7430 C.2     1  UNL1        0.0490
     12  C         17.3070  -22.1480   -4.4430 C.2     1  UNL1        0.0180
     13  C         16.1320  -22.4750   -3.7640 C.2     1  UNL1        0.0010
     14  C         15.1890  -23.2870   -4.3750 C.2     1  UNL1        0.0010
     15  C         15.4270  -23.7820   -5.6590 C.2     1  UNL1        0.0190
     16  C         16.6150  -23.4780   -6.3490 C.2     1  UNL1        0.0160
     17  S         16.7730  -24.2470   -7.9590 S.3     1  UNL1       -0.1240
     18  C         15.9490  -22.9600   -8.9640 C.3     1  UNL1        0.1170
     19  C         16.9080  -22.3520   -9.9570 C.2     1  UNL1       -0.0490
     20  C         18.1110  -23.0090  -10.2780 C.2     1  UNL1        0.0080
     21  C         19.0120  -22.4410  -11.1900 C.2     1  UNL1        0.0010
     22  C         18.7250  -21.2140  -11.7820 C.2     1  UNL1        0.0000
     23  C         17.5350  -20.5490  -11.4670 C.2     1  UNL1        0.0010
     24  C         16.6300  -21.1170  -10.5600 C.2     1  UNL1        0.0080
     25  S         24.4620  -22.4450  -10.4720 S.O2    1  UNL1        0.2450
     26  O         24.8880  -21.0700  -10.3360 O.2     1  UNL1       -0.2060
     27  O         25.3610  -23.5550  -10.2220 O.2     1  UNL1       -0.2060
     28  N         23.7790  -22.7460  -12.0060 N.pl3   1  UNL1       -0.1790
     29  H         23.5710  -23.7440  -12.0520 H       1  UNL1        0.1460
     30  C         24.6160  -22.3470  -13.1070 C.2     1  UNL1        0.0560
     31  C         24.8010  -20.9840  -13.3650 C.2     1  UNL1        0.0340
     32  C         25.5790  -20.5690  -14.4560 C.2     1  UNL1       -0.0600
     33  C         26.1800  -21.5380  -15.2710 C.2     1  UNL1        0.0090
     34  C         25.8120  -19.1080  -14.7090 C.3     1  UNL1        0.0480
     35  C         25.9760  -22.8980  -15.0280 C.2     1  UNL1        0.0390
     36  C         25.1710  -23.3060  -13.9630 C.2     1  UNL1        0.0900
     37  O         24.9780  -24.6340  -13.6770 O.2     1  UNL1       -0.3540
     38  C         25.2790  -25.4810  -14.7890 C.3     1  UNL1        0.2100
@<TRIPOS>BOND
     1    33    35    2
     2    33    32    1
     3    35    36    1
     4    38    37    1
     5    34    32    1
     6    32    31    2
     7    36    37    1
     8    36    30    2
     9    31    30    1
    10    30    28    1
    11    29    28    1
    12    28    25    1
    13    22    23    2
    14    22    21    1
    15    23    24    1
    16    21    20    2
    17    24    19    2
    18    25    26    2
    19    25    27    2
    20    25     1    1
    21    20    19    1
    22    19    18    1
    23     2     1    2
    24     2     3    1
    25     1     6    1
    26    18    17    1
    27     3     4    2
    28     6     5    2
    29    17    16    1
    30     4     5    1
    31     4     7    1
    32    10     7    1
    33     7     8   am
    34    16    11    2
    35    16    15    1
    36     8     9    2
    37     8    11    1
    38    11    12    1
    39    15    14    2
    40    12    13    2
    41    14    13    1
