@<TRIPOS>MOLECULE
51195_out_ligand_01.pdbqt
 36 39 0 0 0
SMALL
GASTEIGER

@<TRIPOS>ATOM
      1  C         20.4020  -23.0360   -7.6070 C.2     1  UNL1        0.0350
      2  C         20.7810  -24.0890   -8.4530 C.2     1  UNL1        0.0310
      3  C         21.9510  -24.0080   -9.2140 C.2     1  UNL1        0.0270
      4  C         22.7450  -22.8630   -9.1280 C.2     1  UNL1        0.0800
      5  C         22.4070  -21.8290   -8.2540 C.2     1  UNL1        0.0270
      6  C         21.2320  -21.9160   -7.5020 C.2     1  UNL1        0.0310
      7  N         19.1770  -23.1710   -6.9220 N.am    1  UNL1       -0.3230
      8  C         18.5180  -22.1960   -6.1920 C.2     1  UNL1        0.2570
      9  O         18.9030  -21.0650   -5.9380 O.2     1  UNL1       -0.2670
     10  H         18.6990  -24.0550   -7.0330 H       1  UNL1        0.1690
     11  C         17.1920  -22.6360   -5.6980 C.2     1  UNL1        0.0490
     12  C         16.7800  -22.1620   -4.4400 C.2     1  UNL1        0.0180
     13  C         15.5460  -22.5460   -3.9210 C.2     1  UNL1        0.0010
     14  C         14.7210  -23.3950   -4.6540 C.2     1  UNL1        0.0010
     15  C         15.1270  -23.8600   -5.9080 C.2     1  UNL1        0.0190
     16  C         16.3690  -23.4930   -6.4470 C.2     1  UNL1        0.0160
     17  S         16.7780  -24.1530   -8.0610 S.3     1  UNL1       -0.1240
     18  C         16.0440  -22.8810   -9.1460 C.3     1  UNL1        0.1170
     19  C         17.0480  -22.2670  -10.0910 C.2     1  UNL1       -0.0490
     20  C         18.2800  -22.8980  -10.3230 C.2     1  UNL1        0.0080
     21  C         19.2200  -22.3250  -11.1820 C.2     1  UNL1        0.0010
     22  C         18.9380  -21.1160  -11.8190 C.2     1  UNL1        0.0000
     23  C         17.7180  -20.4810  -11.5980 C.2     1  UNL1        0.0010
     24  C         16.7760  -21.0520  -10.7390 C.2     1  UNL1        0.0080
     25  S         24.1890  -22.7150  -10.1570 S.O2    1  UNL1        0.2630
     26  O         24.5370  -21.3140  -10.2540 O.2     1  UNL1       -0.2000
     27  O         25.1480  -23.7010   -9.7040 O.2     1  UNL1       -0.2000
     28  N         23.6310  -23.2600  -11.6630 N.pl3   1  UNL1       -0.2810
     29  H         22.7160  -23.7010  -11.5810 H       1  UNL1        0.1790
     30  C         23.8740  -22.4500  -12.8090 C.2     1  UNL1        0.0440
     31  C         22.9280  -21.5120  -13.2250 C.2     1  UNL1        0.0300
     32  C         23.1370  -20.7840  -14.3980 C.2     1  UNL1        0.0040
     33  C         24.2840  -21.0060  -15.1610 C.2     1  UNL1        0.0240
     34  C         25.2210  -21.9480  -14.7430 C.2     1  UNL1        0.0360
     35 CL         26.6190  -22.2500  -15.7010 Cl      1  UNL1       -0.0840
     36  C         25.0280  -22.6670  -13.5650 C.2     1  UNL1        0.0540
@<TRIPOS>BOND
     1    35    34    1
     2    33    34    2
     3    33    32    1
     4    34    36    1
     5    32    31    2
     6    36    30    2
     7    31    30    1
     8    30    28    1
     9    22    23    2
    10    22    21    1
    11    28    29    1
    12    28    25    1
    13    23    24    1
    14    21    20    2
    15    24    19    2
    16    20    19    1
    17    26    25    2
    18    25    27    2
    19    25     4    1
    20    19    18    1
    21     3     4    2
    22     3     2    1
    23    18    17    1
    24     4     5    1
    25     2     1    2
    26     5     6    2
    27    17    16    1
    28     1     6    1
    29     1     7    1
    30    10     7    1
    31     7     8   am
    32    16    15    1
    33    16    11    2
    34     8     9    2
    35     8    11    1
    36    15    14    2
    37    11    12    1
    38    14    13    1
    39    12    13    2
