@<TRIPOS>MOLECULE
51211_out_ligand_01.pdbqt
 32 34 0 0 0
SMALL
GASTEIGER

@<TRIPOS>ATOM
      1  C         21.5380  -23.9830   -9.1130 C.3     1  UNL1        0.0510
      2  C         21.1520  -22.9730  -10.1610 C.2     1  UNL1       -0.0240
      3  C         21.9880  -22.6670  -11.2490 C.2     1  UNL1        0.0290
      4  C         21.6050  -21.7130  -12.2020 C.2     1  UNL1        0.0250
      5  C         20.3700  -21.0770  -12.1150 C.2     1  UNL1        0.0030
      6  C         19.5110  -21.3860  -11.0670 C.2     1  UNL1        0.0180
      7  C         19.9000  -22.3260  -10.0980 C.2     1  UNL1        0.0400
      8  C         18.9350  -22.6290   -9.0100 C.2     1  UNL1        0.2560
      9  O         18.0350  -23.4270   -9.2330 O.2     1  UNL1       -0.2670
     10  N         19.2010  -21.9540   -7.8340 N.am    1  UNL1       -0.3230
     11  H         20.0410  -21.3880   -7.8170 H       1  UNL1        0.1690
     12  C         18.4700  -22.0130   -6.6310 C.2     1  UNL1        0.0350
     13  C         19.0460  -21.4140   -5.5040 C.2     1  UNL1        0.0290
     14  C         18.3860  -21.4270   -4.2740 C.2     1  UNL1        0.0030
     15  C         17.1410  -22.0390   -4.1570 C.2     1  UNL1        0.0160
     16  C         16.5450  -22.6450   -5.2710 C.2     1  UNL1        0.0500
     17  C         17.2200  -22.6230   -6.5070 C.2     1  UNL1        0.0450
     18  C         15.1930  -23.3090   -5.1720 C.3     1  UNL1        0.4170
     19  F         14.9570  -24.1690   -6.1990 F       1  UNL1       -0.1660
     20  F         14.1550  -22.4240   -5.1840 F       1  UNL1       -0.1660
     21  F         15.0450  -24.0350   -4.0290 F       1  UNL1       -0.1660
     22  N         23.2830  -23.2640  -11.3970 N.pl3   1  UNL1       -0.1810
     23  H         23.3450  -24.2260  -11.0650 H       1  UNL1        0.1460
     24  S         24.5730  -22.3290  -10.7940 S.O2    1  UNL1        0.2450
     25  O         25.5810  -23.2390  -10.2910 O.2     1  UNL1       -0.2060
     26  O         24.0450  -21.2550   -9.9800 O.2     1  UNL1       -0.2060
     27  C         25.1860  -21.6180  -12.3020 C.2     1  UNL1        0.0740
     28  C         24.9620  -22.2880  -13.5090 C.2     1  UNL1        0.0250
     29  C         25.4370  -21.7350  -14.6970 C.2     1  UNL1        0.0020
     30  C         26.1240  -20.5190  -14.6760 C.2     1  UNL1        0.0000
     31  C         26.3350  -19.8500  -13.4690 C.2     1  UNL1        0.0020
     32  C         25.8630  -20.3960  -12.2750 C.2     1  UNL1        0.0250
@<TRIPOS>BOND
     1    29    30    2
     2    29    28    1
     3    30    31    1
     4    28    27    2
     5    31    32    2
     6    27    32    1
     7    27    24    1
     8     4     5    2
     9     4     3    1
    10     5     6    1
    11    22     3    1
    12    22    23    1
    13    22    24    1
    14     3     2    2
    15     6     7    2
    16    24    25    2
    17    24    26    2
    18     2     7    1
    19     2     1    1
    20     7     8    1
    21     9     8    2
    22     8    10   am
    23    10    11    1
    24    10    12    1
    25    12    17    2
    26    12    13    1
    27    17    16    1
    28    19    18    1
    29    13    14    2
    30    16    18    1
    31    16    15    2
    32    20    18    1
    33    18    21    1
    34    14    15    1
