@<TRIPOS>MOLECULE
51215_out_ligand_01.pdbqt
 35 37 0 0 0
SMALL
GASTEIGER

@<TRIPOS>ATOM
      1  C         17.5850  -23.1180   -9.0870 C.2     1  UNL1        0.0860
      2  C         18.9610  -23.3850   -8.9540 C.2     1  UNL1        0.0420
      3  C         19.8610  -22.9430   -9.9270 C.2     1  UNL1        0.0330
      4  C         19.3900  -22.2470  -11.0390 C.2     1  UNL1        0.0170
      5  C         18.0280  -21.9600  -11.1600 C.2     1  UNL1        0.0090
      6  C         17.1030  -22.3800  -10.1850 C.2     1  UNL1       -0.0390
      7  C         15.6620  -22.0010  -10.3800 C.3     1  UNL1        0.0500
      8  C         21.3170  -23.2180   -9.8230 C.2     1  UNL1        0.2520
      9  O         21.7250  -24.0400   -9.0130 O.2     1  UNL1       -0.2680
     10  N         22.1220  -22.5190  -10.6990 N.am    1  UNL1       -0.3490
     11  H         21.6770  -22.0990  -11.5030 H       1  UNL1        0.1630
     12  C         23.5260  -22.8690  -10.8580 C.3     1  UNL1        0.1140
     13  C         24.3930  -22.0030   -9.9430 C.3     1  UNL1        0.0370
     14  C         23.9180  -22.7680  -12.3220 C.2     1  UNL1       -0.0360
     15  C         23.3820  -21.7440  -13.1090 C.2     1  UNL1        0.0100
     16  C         23.7390  -21.6090  -14.4550 C.2     1  UNL1        0.0080
     17  C         24.6620  -22.4770  -15.0630 C.2     1  UNL1       -0.0510
     18  C         25.2000  -23.4980  -14.2640 C.2     1  UNL1        0.0080
     19  C         24.8400  -23.6380  -12.9160 C.2     1  UNL1        0.0100
     20  C         25.0340  -22.3000  -16.5460 C.3     1  UNL1       -0.0240
     21  C         24.1670  -23.2250  -17.4340 C.3     1  UNL1        0.0190
     22  C         26.5210  -22.6650  -16.7380 C.3     1  UNL1        0.0190
     23  C         24.8330  -20.8600  -17.0700 C.3     1  UNL1        0.0190
     24  S         16.5420  -23.7540   -7.7760 S.O2    1  UNL1        0.2630
     25  O         15.8590  -24.9500   -8.2120 O.2     1  UNL1       -0.2000
     26  O         15.7920  -22.6220   -7.2660 O.2     1  UNL1       -0.2000
     27  N         17.6490  -24.1530   -6.5680 N.pl3   1  UNL1       -0.2810
     28  H         17.6510  -25.1490   -6.3490 H       1  UNL1        0.1790
     29  C         17.8870  -23.2410   -5.5040 C.2     1  UNL1        0.0430
     30  C         17.5380  -23.5670   -4.1960 C.2     1  UNL1        0.0300
     31  C         17.8120  -22.6730   -3.1620 C.2     1  UNL1        0.0030
     32  C         18.4350  -21.4550   -3.4370 C.2     1  UNL1        0.0070
     33  C         18.7800  -21.1140   -4.7510 C.2     1  UNL1       -0.0600
     34  C         19.4850  -19.8210   -5.0380 C.3     1  UNL1        0.0480
     35  C         18.5070  -22.0210   -5.7830 C.2     1  UNL1        0.0370
@<TRIPOS>BOND
     1    21    20    1
     2    23    20    1
     3    22    20    1
     4    20    17    1
     5    17    16    2
     6    17    18    1
     7    16    15    1
     8    18    19    2
     9    15    14    2
    10    19    14    1
    11    14    12    1
    12    11    10    1
    13     5     4    2
    14     5     6    1
    15     4     3    1
    16    12    10    1
    17    12    13    1
    18    10     8   am
    19     7     6    1
    20     6     1    2
    21     3     8    1
    22     3     2    2
    23     8     9    2
    24     1     2    1
    25     1    24    1
    26    25    24    2
    27    24    26    2
    28    24    27    1
    29    27    28    1
    30    27    29    1
    31    35    29    2
    32    35    33    1
    33    29    30    1
    34    34    33    1
    35    33    32    2
    36    30    31    2
    37    32    31    1
