@<TRIPOS>MOLECULE
51219_out_ligand_01.pdbqt
 32 34 0 0 0
SMALL
GASTEIGER

@<TRIPOS>ATOM
      1  C         22.7940  -23.7530   -9.1110 C.3     1  UNL1        0.0510
      2  C         22.1600  -22.9310  -10.2030 C.2     1  UNL1       -0.0240
      3  C         22.8200  -22.7160  -11.4250 C.2     1  UNL1        0.0290
      4  C         22.2420  -21.9280  -12.4300 C.2     1  UNL1        0.0250
      5  C         20.9960  -21.3390  -12.2320 C.2     1  UNL1        0.0030
      6  C         20.3260  -21.5320  -11.0270 C.2     1  UNL1        0.0180
      7  C         20.9020  -22.3230  -10.0180 C.2     1  UNL1        0.0400
      8  C         20.1500  -22.4770   -8.7420 C.2     1  UNL1        0.2560
      9  O         20.7040  -22.1870   -7.6910 O.2     1  UNL1       -0.2670
     10  N         18.8690  -22.9700   -8.9120 N.am    1  UNL1       -0.3230
     11  H         18.6030  -23.2280   -9.8530 H       1  UNL1        0.1690
     12  C         17.9050  -23.2070   -7.9100 C.2     1  UNL1        0.0350
     13  C         17.9900  -24.2370   -6.9730 C.2     1  UNL1        0.0300
     14  C         16.9920  -24.4050   -6.0070 C.2     1  UNL1        0.0180
     15  C         15.8840  -23.5470   -5.9630 C.2     1  UNL1        0.0480
     16  C         15.8060  -22.5070   -6.8980 C.2     1  UNL1        0.0180
     17  C         16.8060  -22.3400   -7.8620 C.2     1  UNL1        0.0300
     18  C         14.8190  -23.7140   -4.9080 C.3     1  UNL1        0.4170
     19  F         13.7070  -24.3490   -5.3730 F       1  UNL1       -0.1660
     20  F         15.2340  -24.4370   -3.8300 F       1  UNL1       -0.1660
     21  F         14.3870  -22.5210   -4.4150 F       1  UNL1       -0.1660
     22  N         24.1350  -23.2550  -11.6430 N.pl3   1  UNL1       -0.1810
     23  H         24.2470  -23.5430  -12.6170 H       1  UNL1        0.1460
     24  S         25.3960  -22.1400  -11.3380 S.O2    1  UNL1        0.2450
     25  O         26.6140  -22.8380  -10.9910 O.2     1  UNL1       -0.2060
     26  O         24.8230  -21.1210  -10.4810 O.2     1  UNL1       -0.2060
     27  C         25.6150  -21.4470  -12.9570 C.2     1  UNL1        0.0740
     28  C         25.5510  -22.2690  -14.0860 C.2     1  UNL1        0.0250
     29  C         25.7120  -21.7060  -15.3520 C.2     1  UNL1        0.0020
     30  C         25.9260  -20.3330  -15.4850 C.2     1  UNL1        0.0000
     31  C         25.9760  -19.5150  -14.3550 C.2     1  UNL1        0.0020
     32  C         25.8160  -20.0690  -13.0850 C.2     1  UNL1        0.0250
@<TRIPOS>BOND
     1    30    29    2
     2    30    31    1
     3    29    28    1
     4    31    32    2
     5    28    27    2
     6    32    27    1
     7    27    24    1
     8    23    22    1
     9     4     5    2
    10     4     3    1
    11     5     6    1
    12    22     3    1
    13    22    24    1
    14     3     2    2
    15    24    25    2
    16    24    26    2
    17     6     7    2
    18     2     7    1
    19     2     1    1
    20     7     8    1
    21    11    10    1
    22    10     8   am
    23    10    12    1
    24     8     9    2
    25    12    17    2
    26    12    13    1
    27    17    16    1
    28    13    14    2
    29    16    15    2
    30    14    15    1
    31    15    18    1
    32    19    18    1
    33    18    21    1
    34    18    20    1
