@<TRIPOS>MOLECULE
51217_out_ligand_01.pdbqt
 32 34 0 0 0
SMALL
GASTEIGER

@<TRIPOS>ATOM
      1  C         21.9280  -22.4880  -11.4010 C.2     1  UNL1        0.0230
      2  C         21.2400  -21.6350  -12.2650 C.2     1  UNL1        0.0240
      3  C         19.9450  -21.2190  -11.9550 C.2     1  UNL1        0.0030
      4  C         19.3430  -21.6380  -10.7670 C.2     1  UNL1        0.0170
      5  C         20.0480  -22.4660   -9.8840 C.2     1  UNL1        0.0340
      6  C         21.3410  -22.8980  -10.2050 C.2     1  UNL1        0.0410
      7  C         19.4480  -22.9320   -8.6050 C.2     1  UNL1        0.2560
      8  O         19.4880  -24.1310   -8.3560 O.2     1  UNL1       -0.2670
      9  N         18.9310  -21.9270   -7.8080 N.am    1  UNL1       -0.3230
     10  H         19.1030  -20.9760   -8.1070 H       1  UNL1        0.1690
     11  C         18.2750  -22.0740   -6.5680 C.2     1  UNL1        0.0350
     12  C         18.7940  -21.6230   -5.3540 C.2     1  UNL1        0.0290
     13  C         18.0810  -21.8080   -4.1660 C.2     1  UNL1        0.0030
     14  C         16.8450  -22.4500   -4.1790 C.2     1  UNL1        0.0160
     15  C         16.3100  -22.9210   -5.3840 C.2     1  UNL1        0.0500
     16  C         17.0330  -22.7220   -6.5740 C.2     1  UNL1        0.0450
     17  C         14.9640  -23.6000   -5.4190 C.3     1  UNL1        0.4170
     18  F         14.8230  -24.4330   -6.4900 F       1  UNL1       -0.1660
     19  F         14.7120  -24.3630   -4.3200 F       1  UNL1       -0.1660
     20  F         13.9380  -22.7100   -5.5040 F       1  UNL1       -0.1660
     21  N         23.2720  -22.8780  -11.7110 N.pl3   1  UNL1       -0.1810
     22  H         23.3970  -23.8890  -11.6360 H       1  UNL1        0.1460
     23  S         24.4520  -22.1270  -10.7310 S.O2    1  UNL1        0.2450
     24  O         25.3940  -23.1570  -10.3470 O.2     1  UNL1       -0.2060
     25  O         23.8060  -21.2770   -9.7550 O.2     1  UNL1       -0.2060
     26  C         25.2400  -21.0740  -11.9240 C.2     1  UNL1        0.0740
     27  C         26.2570  -20.2030  -11.5260 C.2     1  UNL1        0.0250
     28  C         26.8590  -19.3750  -12.4750 C.2     1  UNL1        0.0080
     29  C         26.4390  -19.4030  -13.8120 C.2     1  UNL1       -0.0620
     30  C         27.1040  -18.5310  -14.8380 C.3     1  UNL1        0.0480
     31  C         25.4200  -20.2870  -14.1960 C.2     1  UNL1        0.0080
     32  C         24.8140  -21.1180  -13.2530 C.2     1  UNL1        0.0250
@<TRIPOS>BOND
     1    30    29    1
     2    31    29    2
     3    31    32    1
     4    29    28    1
     5    32    26    2
     6    28    27    2
     7     2     3    1
     8     2     1    2
     9     3     4    2
    10    26    27    1
    11    26    23    1
    12    21    22    1
    13    21     1    1
    14    21    23    1
    15     1     6    1
    16     4     5    1
    17    23    24    2
    18    23    25    2
    19     6     5    2
    20     5     7    1
    21     7     8    2
    22     7     9   am
    23    10     9    1
    24     9    11    1
    25    16    11    2
    26    16    15    1
    27    11    12    1
    28    18    17    1
    29    20    17    1
    30    17    15    1
    31    17    19    1
    32    15    14    2
    33    12    13    2
    34    14    13    1
