@<TRIPOS>MOLECULE
5122_out_ligand_01.pdbqt
 39 43 0 0 0
SMALL
GASTEIGER

@<TRIPOS>ATOM
      1  C         23.0020  -22.1360  -11.8870 C.ar    1  UNL1        0.1720
      2  N         23.1950  -21.3260  -12.8700 N.ar    1  UNL1       -0.2240
      3  C         24.5080  -21.0310  -13.2520 C.ar    1  UNL1        0.0750
      4  C         24.7300  -20.2940  -14.4210 C.2     1  UNL1        0.0320
      5  C         26.0300  -19.9840  -14.8310 C.2     1  UNL1        0.0020
      6  C         27.1210  -20.4150  -14.0780 C.2     1  UNL1        0.0010
      7  C         26.9120  -21.1630  -12.9210 C.2     1  UNL1        0.0190
      8  C         25.6040  -21.4700  -12.5230 C.ar    1  UNL1        0.0610
      9  C         25.3400  -22.2850  -11.3270 C.ar    1  UNL1        0.2620
     10  O         26.2850  -22.5840  -10.5990 O.2     1  UNL1       -0.2670
     11  N         24.0160  -22.6550  -11.0950 N.ar    1  UNL1       -0.2880
     12  C         23.7880  -23.4990   -9.9150 C.3     1  UNL1        0.1730
     13  C         22.6610  -23.0130   -9.0230 C.2     1  UNL1       -0.0400
     14  C         22.7410  -21.7630   -8.3890 C.2     1  UNL1        0.0100
     15  C         21.7290  -21.3350   -7.5270 C.2     1  UNL1        0.0170
     16  C         20.6240  -22.1530   -7.2760 C.2     1  UNL1        0.0320
     17  C         20.5160  -23.3890   -7.9270 C.2     1  UNL1        0.0170
     18  C         21.5300  -23.8140   -8.7900 C.2     1  UNL1        0.0100
     19  C         19.5990  -21.6810   -6.3050 C.2     1  UNL1        0.2520
     20  O         19.7340  -20.6030   -5.7410 O.2     1  UNL1       -0.2680
     21  N         18.5540  -22.5530   -6.0510 N.am    1  UNL1       -0.3520
     22  H         18.6590  -23.5090   -6.3530 H       1  UNL1        0.1630
     23  C         17.6500  -22.3110   -4.9440 C.3     1  UNL1        0.0840
     24  C         16.2210  -22.0340   -5.4120 C.3     1  UNL1        0.0250
     25  C         15.3830  -22.4210   -4.2060 C.3     1  UNL1        0.0020
     26  C         16.0460  -23.7010   -3.7200 C.3     1  UNL1        0.0020
     27  C         17.5350  -23.5270   -4.0120 C.3     1  UNL1        0.0250
     28  S         21.3470  -22.5900  -11.5370 S.3     1  UNL1       -0.0820
     29  C         20.4660  -21.0380  -11.8170 C.3     1  UNL1        0.1850
     30  C         19.0130  -21.0880  -11.3530 C.2     1  UNL1        0.2310
     31  O         18.1860  -20.2820  -11.7710 O.2     1  UNL1       -0.2720
     32  N         18.7610  -22.1500  -10.4960 N.am    1  UNL1       -0.3270
     33  H         19.5810  -22.6410  -10.1530 H       1  UNL1        0.1690
     34  C         17.5300  -22.5530   -9.9500 C.2     1  UNL1        0.0340
     35  C         16.2980  -21.9840  -10.2800 C.2     1  UNL1        0.0290
     36  C         15.1240  -22.4440   -9.6790 C.2     1  UNL1        0.0020
     37  C         15.1670  -23.4780   -8.7460 C.2     1  UNL1        0.0000
     38  C         16.3890  -24.0580   -8.4160 C.2     1  UNL1        0.0020
     39  C         17.5640  -23.5880   -9.0070 C.2     1  UNL1        0.0290
@<TRIPOS>BOND
     1     5     4    1
     2     5     6    2
     3     4     3    2
     4     6     7    1
     5     3     2   ar
     6     3     8   ar
     7     7     8    2
     8     2     1   ar
     9     8     9   ar
    10     1    28    1
    11     1    11   ar
    12    29    28    1
    13    29    30    1
    14    31    30    2
    15    30    32   am
    16     9    11   ar
    17     9    10    2
    18    11    12    1
    19    32    33    1
    20    32    34    1
    21    35    34    2
    22    35    36    1
    23    34    39    1
    24    12    13    1
    25    36    37    2
    26    13    18    2
    27    13    14    1
    28    39    38    2
    29    18    17    1
    30    37    38    1
    31    14    15    2
    32    17    16    2
    33    15    16    1
    34    16    19    1
    35    22    21    1
    36    19    21   am
    37    19    20    2
    38    21    23    1
    39    24    23    1
    40    24    25    1
    41    23    27    1
    42    25    26    1
    43    27    26    1
