@<TRIPOS>MOLECULE
51227_out_ligand_01.pdbqt
 32 34 0 0 0
SMALL
GASTEIGER

@<TRIPOS>ATOM
      1  C         22.6220  -22.6090  -11.4560 C.2     1  UNL1        0.0290
      2  C         21.9870  -23.0210  -10.2810 C.2     1  UNL1        0.0420
      3  C         20.6770  -22.6090  -10.0200 C.2     1  UNL1        0.0340
      4  C         20.0100  -21.7730  -10.9220 C.2     1  UNL1        0.0170
      5  C         20.6490  -21.3690  -12.0970 C.2     1  UNL1        0.0090
      6  C         21.9610  -21.7820  -12.3770 C.2     1  UNL1       -0.0400
      7  C         22.6130  -21.3560  -13.6630 C.3     1  UNL1        0.0500
      8  C         20.0290  -23.0670   -8.7620 C.2     1  UNL1        0.2560
      9  O         20.2900  -24.1970   -8.3660 O.2     1  UNL1       -0.2670
     10  N         19.1630  -22.1480   -8.2000 N.am    1  UNL1       -0.3220
     11  H         18.9720  -21.3320   -8.7620 H       1  UNL1        0.1690
     12  C         18.4050  -22.2720   -7.0080 C.2     1  UNL1        0.0410
     13  C         18.8510  -21.7200   -5.7990 C.2     1  UNL1        0.0300
     14  C         18.1220  -21.8710   -4.6180 C.2     1  UNL1        0.0020
     15  C         16.9330  -22.5840   -4.6270 C.2     1  UNL1        0.0010
     16  C         16.4640  -23.1310   -5.8200 C.2     1  UNL1        0.0100
     17  C         17.1690  -22.9730   -7.0330 C.2     1  UNL1       -0.0280
     18  C         16.6000  -23.5830   -8.3150 C.3     1  UNL1        0.0130
     19  C         15.8790  -22.5940   -9.2430 C.3     1  UNL1        0.0150
     20  C         15.6690  -24.7520   -7.9800 C.3     1  UNL1        0.0150
     21  N         23.9390  -23.1050  -11.7520 N.pl3   1  UNL1       -0.1810
     22  H         24.0900  -23.1280  -12.7630 H       1  UNL1        0.1460
     23  S         25.2010  -22.1460  -11.1090 S.O2    1  UNL1        0.2450
     24  O         26.2630  -22.9900  -10.6050 O.2     1  UNL1       -0.2060
     25  O         24.5670  -21.1390  -10.2830 O.2     1  UNL1       -0.2060
     26  C         25.7870  -21.3540  -12.5860 C.2     1  UNL1        0.0740
     27  C         25.9300  -19.9640  -12.6150 C.2     1  UNL1        0.0250
     28  C         26.3720  -19.3430  -13.7840 C.2     1  UNL1        0.0080
     29  C         26.6750  -20.1020  -14.9240 C.2     1  UNL1       -0.0620
     30  C         27.1180  -19.4290  -16.1900 C.3     1  UNL1        0.0480
     31  C         26.5010  -21.4930  -14.8890 C.2     1  UNL1        0.0080
     32  C         26.0570  -22.1230  -13.7230 C.2     1  UNL1        0.0250
@<TRIPOS>BOND
     1    30    29    1
     2    29    31    2
     3    29    28    1
     4    31    32    1
     5    28    27    2
     6    32    26    2
     7     7     6    1
     8    22    21    1
     9    27    26    1
    10    26    23    1
    11     6     5    1
    12     6     1    2
    13     5     4    2
    14    21     1    1
    15    21    23    1
    16     1     2    1
    17    23    24    2
    18    23    25    2
    19     4     3    1
    20     2     3    2
    21     3     8    1
    22    19    18    1
    23    11    10    1
    24     8     9    2
    25     8    10   am
    26    18    20    1
    27    18    17    1
    28    10    12    1
    29    17    12    2
    30    17    16    1
    31    12    13    1
    32    16    15    2
    33    13    14    2
    34    15    14    1
