@<TRIPOS>MOLECULE
51220_out_ligand_01.pdbqt
 37 40 0 0 0
SMALL
GASTEIGER

@<TRIPOS>ATOM
      1  C         20.3600  -23.2240   -7.7880 C.2     1  UNL1        0.0350
      2  C         20.7690  -24.2230   -8.6740 C.2     1  UNL1        0.0310
      3  C         21.9420  -24.0720   -9.4190 C.2     1  UNL1        0.0270
      4  C         22.7160  -22.9200   -9.2620 C.2     1  UNL1        0.0750
      5  C         22.2900  -21.8880   -8.4270 C.2     1  UNL1        0.0270
      6  C         21.1140  -22.0450   -7.6900 C.2     1  UNL1        0.0310
      7  N         19.2340  -23.3330   -6.9470 N.am    1  UNL1       -0.3230
      8  C         18.5580  -22.3110   -6.3110 C.2     1  UNL1        0.2570
      9  O         18.8770  -21.1290   -6.2740 O.2     1  UNL1       -0.2670
     10  H         18.8080  -24.2520   -6.8940 H       1  UNL1        0.1690
     11  C         17.3210  -22.7220   -5.5940 C.2     1  UNL1        0.0490
     12  C         17.1720  -22.2260   -4.2870 C.2     1  UNL1        0.0180
     13  C         16.0540  -22.5600   -3.5240 C.2     1  UNL1        0.0010
     14  C         15.0740  -23.3870   -4.0620 C.2     1  UNL1        0.0010
     15  C         15.2050  -23.8720   -5.3650 C.2     1  UNL1        0.0190
     16  C         16.3180  -23.5370   -6.1540 C.2     1  UNL1        0.0160
     17  S         16.3210  -24.1930   -7.8240 S.3     1  UNL1       -0.1240
     18  C         15.7570  -22.7290   -8.7700 C.3     1  UNL1        0.1170
     19  C         16.7440  -22.2880   -9.8220 C.2     1  UNL1       -0.0490
     20  C         16.5870  -21.0580  -10.4790 C.2     1  UNL1        0.0080
     21  C         17.5100  -20.6440  -11.4400 C.2     1  UNL1        0.0010
     22  C         18.5990  -21.4550  -11.7560 C.2     1  UNL1        0.0000
     23  C         18.7640  -22.6800  -11.1120 C.2     1  UNL1        0.0010
     24  C         17.8430  -23.0960  -10.1500 C.2     1  UNL1        0.0080
     25  S         24.2750  -22.7810  -10.1070 S.O2    1  UNL1        0.2450
     26  O         24.6140  -21.3780  -10.1950 O.2     1  UNL1       -0.2060
     27  O         25.1820  -23.7410   -9.5150 O.2     1  UNL1       -0.2060
     28  N         23.9140  -23.3650  -11.6620 N.pl3   1  UNL1       -0.1800
     29  H         23.0270  -23.8740  -11.6530 H       1  UNL1        0.1460
     30  C         24.1130  -22.4820  -12.7780 C.2     1  UNL1        0.0460
     31  C         23.0660  -21.6470  -13.1800 C.2     1  UNL1        0.0260
     32  C         23.2050  -20.8390  -14.3080 C.2     1  UNL1        0.0040
     33  C         24.3900  -20.8680  -15.0430 C.2     1  UNL1        0.0260
     34  C         25.4450  -21.6950  -14.6470 C.2     1  UNL1        0.0570
     35 CL         26.8760  -21.6850  -15.6180 Cl      1  UNL1       -0.0820
     36  C         25.3170  -22.5000  -13.5080 C.2     1  UNL1        0.0770
     37 CL         26.6160  -23.5220  -12.9750 Cl      1  UNL1       -0.0810
@<TRIPOS>BOND
     1    35    34    1
     2    33    34    2
     3    33    32    1
     4    34    36    1
     5    32    31    2
     6    36    37    1
     7    36    30    2
     8    31    30    1
     9    30    28    1
    10    22    21    2
    11    22    23    1
    12    28    29    1
    13    28    25    1
    14    21    20    1
    15    23    24    2
    16    20    19    2
    17    26    25    2
    18    24    19    1
    19    25    27    2
    20    25     4    1
    21    19    18    1
    22     3     4    2
    23     3     2    1
    24     4     5    1
    25    18    17    1
    26     2     1    2
    27     5     6    2
    28    17    16    1
    29     1     6    1
    30     1     7    1
    31     7    10    1
    32     7     8   am
    33     8     9    2
    34     8    11    1
    35    16    11    2
    36    16    15    1
    37    11    12    1
    38    15    14    2
    39    12    13    2
    40    14    13    1
