@<TRIPOS>MOLECULE
51226_out_ligand_01.pdbqt
 42 45 0 0 0
SMALL
GASTEIGER

@<TRIPOS>ATOM
      1  N         20.9060  -22.5910  -11.2410 N.am    1  UNL1       -0.3230
      2  C         22.0830  -21.9320  -10.9350 C.2     1  UNL1        0.2560
      3  O         22.3850  -21.4000   -9.8760 O.2     1  UNL1       -0.2670
      4  H         20.7340  -22.7880  -12.2190 H       1  UNL1        0.1690
      5  C         19.8410  -22.8700  -10.3600 C.2     1  UNL1        0.0350
      6  C         19.9420  -23.7500   -9.2800 C.2     1  UNL1        0.0310
      7  C         18.8440  -23.9840   -8.4470 C.2     1  UNL1        0.0270
      8  C         17.6390  -23.3160   -8.6870 C.2     1  UNL1        0.0750
      9  C         17.5160  -22.4470   -9.7710 C.2     1  UNL1        0.0270
     10  C         18.6150  -22.2340  -10.6100 C.2     1  UNL1        0.0310
     11  S         16.2620  -23.5900   -7.5940 S.O2    1  UNL1        0.2450
     12  O         15.5210  -24.7180   -8.1180 O.2     1  UNL1       -0.2060
     13  O         15.6420  -22.3080   -7.3400 O.2     1  UNL1       -0.2060
     14  N         17.0820  -24.1420   -6.2070 N.pl3   1  UNL1       -0.1810
     15  H         16.4710  -24.8190   -5.7510 H       1  UNL1        0.1460
     16  C         17.5020  -23.1230   -5.2880 C.2     1  UNL1        0.0290
     17  C         16.9840  -23.0340   -3.9870 C.2     1  UNL1       -0.0400
     18  C         17.4490  -22.0050   -3.1530 C.2     1  UNL1        0.0090
     19  C         15.9320  -23.9710   -3.4630 C.3     1  UNL1        0.0500
     20  C         18.4080  -21.0930   -3.6040 C.2     1  UNL1        0.0070
     21  C         18.8970  -21.1670   -4.9100 C.2     1  UNL1       -0.0600
     22  C         19.9480  -20.2030   -5.3830 C.3     1  UNL1        0.0480
     23  C         18.4380  -22.1900   -5.7470 C.2     1  UNL1        0.0310
     24  C         23.0290  -21.8180  -12.0750 C.2     1  UNL1        0.0320
     25  C         22.5620  -21.3050  -13.2890 C.2     1  UNL1        0.0190
     26  C         23.4280  -21.2120  -14.3820 C.2     1  UNL1        0.0310
     27  C         24.7640  -21.5990  -14.2570 C.2     1  UNL1        0.0450
     28  C         25.2360  -22.0980  -13.0370 C.2     1  UNL1        0.0310
     29  C         24.3690  -22.2090  -11.9450 C.2     1  UNL1        0.0190
     30  N         25.6110  -21.5300  -15.4100 N.pl3   1  UNL1       -0.2720
     31  C         26.8530  -20.7240  -15.3110 C.3     1  UNL1        0.1830
     32  C         26.7880  -19.3770  -15.9840 C.2     1  UNL1       -0.0010
     33  C         26.6710  -19.2450  -17.3760 C.2     1  UNL1        0.0120
     34  C         26.5850  -17.9790  -17.9620 C.2     1  UNL1        0.0010
     35  C         26.6000  -16.8340  -17.1650 C.2     1  UNL1        0.0030
     36  C         26.6970  -16.9530  -15.7810 C.2     1  UNL1        0.0430
     37  C         26.7830  -18.2170  -15.2040 C.2     1  UNL1        0.1240
     38  F         26.8590  -18.3110  -13.8680 F       1  UNL1       -0.2050
     39  S         25.5940  -22.8630  -16.4620 S.O2    1  UNL1        0.2290
     40  C         24.4210  -22.3670  -17.7110 C.3     1  UNL1        0.1860
     41  O         25.0150  -23.9940  -15.7690 O.2     1  UNL1       -0.2060
     42  O         26.8860  -22.9780  -17.1050 O.2     1  UNL1       -0.2060
@<TRIPOS>BOND
     1    34    33    1
     2    34    35    2
     3    40    39    1
     4    33    32    2
     5    35    36    1
     6    42    39    2
     7    39    41    2
     8    39    30    1
     9    32    31    1
    10    32    37    1
    11    36    37    2
    12    30    31    1
    13    30    27    1
    14    37    38    1
    15    26    27    2
    16    26    25    1
    17    27    28    1
    18    25    24    2
    19    28    29    2
    20     4     1    1
    21    24    29    1
    22    24     2    1
    23     1     2   am
    24     1     5    1
    25     2     3    2
    26    10     5    2
    27    10     9    1
    28     5     6    1
    29     9     8    2
    30     6     7    2
    31     8     7    1
    32     8    11    1
    33    12    11    2
    34    11    13    2
    35    11    14    1
    36    14    15    1
    37    14    16    1
    38    23    16    2
    39    23    21    1
    40    22    21    1
    41    16    17    1
    42    21    20    2
    43    17    19    1
    44    17    18    2
    45    20    18    1
