@<TRIPOS>MOLECULE
51236_out_ligand_01.pdbqt
 30 32 0 0 0
SMALL
GASTEIGER

@<TRIPOS>ATOM
      1  C         20.6650  -24.0570   -9.4280 C.3     1  UNL1        0.0510
      2  C         20.3410  -22.8690  -10.2960 C.2     1  UNL1       -0.0240
      3  C         21.2720  -22.3430  -11.2140 C.2     1  UNL1        0.0290
      4  C         20.9260  -21.2690  -12.0450 C.2     1  UNL1        0.0250
      5  C         19.6630  -20.6900  -11.9750 C.2     1  UNL1        0.0030
      6  C         18.7410  -21.1700  -11.0530 C.2     1  UNL1        0.0170
      7  C         19.0830  -22.2320  -10.2050 C.2     1  UNL1        0.0390
      8  C         18.0500  -22.6290   -9.2170 C.2     1  UNL1        0.2520
      9  O         16.9500  -23.0120   -9.5960 O.2     1  UNL1       -0.2680
     10  N         18.4110  -22.4620   -7.8950 N.am    1  UNL1       -0.3520
     11  H         19.2500  -21.9290   -7.7000 H       1  UNL1        0.1630
     12  C         17.4450  -22.6410   -6.8040 C.3     1  UNL1        0.0840
     13  C         16.9180  -24.0810   -6.8540 C.3     1  UNL1        0.0250
     14  C         15.7940  -24.4960   -5.8990 C.3     1  UNL1        0.0020
     15  C         14.6810  -23.4900   -5.6240 C.3     1  UNL1        0.0000
     16  C         15.0300  -22.1680   -4.9360 C.3     1  UNL1        0.0000
     17  C         16.0760  -22.1930   -3.8270 C.3     1  UNL1        0.0000
     18  C         17.4990  -22.6440   -4.1590 C.3     1  UNL1        0.0020
     19  C         18.1010  -22.1890   -5.4850 C.3     1  UNL1        0.0250
     20  N         22.5920  -22.8930  -11.3580 N.pl3   1  UNL1       -0.1810
     21  H         22.9490  -22.8370  -12.3120 H       1  UNL1        0.1460
     22  S         23.7650  -22.2390  -10.3010 S.O2    1  UNL1        0.2450
     23  O         24.5000  -23.3040   -9.6560 O.2     1  UNL1       -0.2060
     24  O         23.1200  -21.1840   -9.5500 O.2     1  UNL1       -0.2060
     25  C         24.8580  -21.4810  -11.4790 C.2     1  UNL1        0.0740
     26  C         25.9680  -20.7690  -11.0120 C.2     1  UNL1        0.0250
     27  C         26.8300  -20.1680  -11.9280 C.2     1  UNL1        0.0020
     28  C         26.5790  -20.2740  -13.2980 C.2     1  UNL1        0.0000
     29  C         25.4640  -20.9780  -13.7570 C.2     1  UNL1        0.0020
     30  C         24.5960  -21.5830  -12.8480 C.2     1  UNL1        0.0250
@<TRIPOS>BOND
     1    29    28    2
     2    29    30    1
     3    28    27    1
     4    30    25    2
     5    21    20    1
     6     4     5    2
     7     4     3    1
     8     5     6    1
     9    27    26    2
    10    25    26    1
    11    25    22    1
    12    20     3    1
    13    20    22    1
    14     3     2    2
    15     6     7    2
    16    22    23    2
    17    22    24    2
    18     2     7    1
    19     2     1    1
    20     7     8    1
    21     9     8    2
    22     8    10   am
    23    10    11    1
    24    10    12    1
    25    13    12    1
    26    13    14    1
    27    12    19    1
    28    14    15    1
    29    15    16    1
    30    19    18    1
    31    16    17    1
    32    18    17    1
