@<TRIPOS>MOLECULE
51233_out_ligand_01.pdbqt
 31 33 0 0 0
SMALL
GASTEIGER

@<TRIPOS>ATOM
      1  C         21.1380  -22.5180  -11.0480 C.2     1  UNL1        0.0290
      2  C         20.8800  -21.4440  -11.9110 C.2     1  UNL1        0.0250
      3  C         19.6520  -20.7880  -11.8900 C.2     1  UNL1        0.0030
      4  C         18.6730  -21.2010  -10.9950 C.2     1  UNL1        0.0180
      5  C         18.9220  -22.2760  -10.1250 C.2     1  UNL1        0.0400
      6  C         20.1620  -22.9560  -10.1350 C.2     1  UNL1       -0.0240
      7  C         20.4190  -24.0670   -9.1500 C.3     1  UNL1        0.0510
      8  N         22.4530  -23.0930  -11.1060 N.pl3   1  UNL1       -0.1810
      9  H         22.4760  -24.0870  -10.8910 H       1  UNL1        0.1460
     10  S         23.6160  -22.2950  -10.1440 S.O2    1  UNL1        0.2450
     11  O         24.3750  -23.3160   -9.4550 O.2     1  UNL1       -0.2060
     12  O         22.9970  -21.1900   -9.4450 O.2     1  UNL1       -0.2060
     13  C         24.6550  -21.6090  -11.4120 C.2     1  UNL1        0.0740
     14  C         24.3270  -21.8300  -12.7510 C.2     1  UNL1        0.0250
     15  C         25.1360  -21.2960  -13.7540 C.2     1  UNL1        0.0080
     16  C         26.2720  -20.5450  -13.4240 C.2     1  UNL1       -0.0620
     17  C         27.1210  -19.9400  -14.5060 C.3     1  UNL1        0.0480
     18  C         26.5750  -20.3100  -12.0750 C.2     1  UNL1        0.0080
     19  C         25.7700  -20.8420  -11.0660 C.2     1  UNL1        0.0250
     20  C         17.8400  -22.6540   -9.1750 C.2     1  UNL1        0.2560
     21  O         16.8640  -23.2520   -9.6060 O.2     1  UNL1       -0.2670
     22  N         18.0830  -22.2490   -7.8760 N.am    1  UNL1       -0.3230
     23  H         18.9260  -21.7130   -7.7160 H       1  UNL1        0.1690
     24  C         17.2690  -22.4620   -6.7450 C.2     1  UNL1        0.0360
     25  C         15.9270  -22.0880   -6.6680 C.2     1  UNL1        0.0360
     26  C         15.1760  -22.3330   -5.5070 C.2     1  UNL1       -0.0590
     27  C         13.7460  -21.8860   -5.4300 C.3     1  UNL1        0.0480
     28  C         15.7900  -22.9470   -4.4090 C.2     1  UNL1        0.0130
     29  C         17.1280  -23.3460   -4.4730 C.2     1  UNL1       -0.0590
     30  C         17.7890  -23.9810   -3.2850 C.3     1  UNL1        0.0480
     31  C         17.8610  -23.0910   -5.6400 C.2     1  UNL1        0.0360
@<TRIPOS>BOND
     1    17    16    1
     2    15    16    2
     3    15    14    1
     4    16    18    1
     5    14    13    2
     6    18    19    2
     7     2     3    1
     8     2     1    2
     9     3     4    2
    10    13    19    1
    11    13    10    1
    12     8     1    1
    13     8     9    1
    14     8    10    1
    15     1     6    1
    16     4     5    1
    17    10    11    2
    18    10    12    2
    19     6     5    2
    20     6     7    1
    21     5    20    1
    22    21    20    2
    23    20    22   am
    24    22    23    1
    25    22    24    1
    26    24    25    2
    27    24    31    1
    28    25    26    1
    29    31    29    2
    30    26    27    1
    31    26    28    2
    32    29    28    1
    33    29    30    1
