@<TRIPOS>MOLECULE
51247_out_ligand_01.pdbqt
 41 44 0 0 0
SMALL
GASTEIGER

@<TRIPOS>ATOM
      1  C         22.5580  -22.3680  -11.4920 C.2     1  UNL1        0.2560
      2  O         21.9010  -22.2130  -12.5140 O.2     1  UNL1       -0.2670
      3  N         22.0760  -22.5650  -10.2110 N.am    1  UNL1       -0.3230
      4  H         22.7540  -22.5530   -9.4580 H       1  UNL1        0.1690
      5  C         20.7310  -22.7200   -9.8150 C.2     1  UNL1        0.0350
      6  C         19.6770  -21.9380  -10.2950 C.2     1  UNL1        0.0310
      7  C         18.3670  -22.1620   -9.8560 C.2     1  UNL1        0.0270
      8  C         18.1070  -23.1910   -8.9500 C.2     1  UNL1        0.0800
      9  C         19.1500  -23.9720   -8.4510 C.2     1  UNL1        0.0270
     10  C         20.4560  -23.7360   -8.8890 C.2     1  UNL1        0.0310
     11  S         16.4520  -23.4510   -8.3640 S.O2    1  UNL1        0.2630
     12  O         16.3910  -24.7560   -7.7430 O.2     1  UNL1       -0.2000
     13  O         15.5580  -23.1100   -9.4520 O.2     1  UNL1       -0.2000
     14  N         16.2490  -22.2320   -7.2130 N.pl3   1  UNL1       -0.2800
     15  H         15.4600  -21.6270   -7.4400 H       1  UNL1        0.1790
     16  C         16.4730  -22.5260   -5.8350 C.2     1  UNL1        0.0540
     17  C         15.4550  -23.1000   -5.0490 C.2     1  UNL1       -0.0340
     18  C         14.0750  -23.3980   -5.5700 C.3     1  UNL1        0.0500
     19  C         15.7410  -23.4480   -3.7200 C.2     1  UNL1        0.0090
     20  C         16.9930  -23.1920   -3.1680 C.2     1  UNL1        0.0010
     21  C         17.9710  -22.5630   -3.9320 C.2     1  UNL1        0.0090
     22  C         17.7180  -22.1980   -5.2620 C.2     1  UNL1       -0.0340
     23  C         18.8030  -21.4810   -6.0180 C.3     1  UNL1        0.0500
     24  C         24.0430  -22.3220  -11.5960 C.2     1  UNL1        0.0340
     25  C         24.7430  -21.3610  -10.8600 C.2     1  UNL1        0.0170
     26  C         26.1370  -21.3270  -10.9040 C.2     1  UNL1        0.0030
     27  C         26.8330  -22.2520  -11.6840 C.2     1  UNL1        0.0300
     28  C         26.1330  -23.1830  -12.4480 C.2     1  UNL1        0.0430
     29  C         24.7400  -23.2170  -12.4170 C.2     1  UNL1        0.0470
     30  N         26.8370  -24.1770  -13.1850 N.pl3   1  UNL1       -0.2810
     31  H         27.8420  -24.0640  -13.3040 H       1  UNL1        0.1790
     32  S         26.1080  -24.8000  -14.5840 S.O2    1  UNL1        0.2630
     33  O         27.1050  -25.6430  -15.2090 O.2     1  UNL1       -0.2000
     34  O         24.7910  -25.2990  -14.2570 O.2     1  UNL1       -0.2000
     35  C         25.9130  -23.3540  -15.6070 C.2     1  UNL1        0.0790
     36  C         26.8050  -22.2870  -15.4720 C.2     1  UNL1        0.0260
     37  C         26.6360  -21.1460  -16.2580 C.2     1  UNL1        0.0080
     38  C         25.5810  -21.0660  -17.1770 C.2     1  UNL1       -0.0620
     39  C         25.4200  -19.8510  -18.0450 C.3     1  UNL1        0.0480
     40  C         24.7150  -22.1580  -17.3270 C.2     1  UNL1        0.0080
     41  C         24.8810  -23.3050  -16.5490 C.2     1  UNL1        0.0260
@<TRIPOS>BOND
     1    39    38    1
     2    40    38    2
     3    40    41    1
     4    38    37    1
     5    41    35    2
     6    37    36    2
     7    35    36    1
     8    35    32    1
     9    33    32    2
    10    32    34    2
    11    32    30    1
    12    31    30    1
    13    30    28    1
    14     2     1    2
    15    28    29    1
    16    28    27    2
    17    29    24    2
    18    27    26    1
    19    24     1    1
    20    24    25    1
    21     1     3   am
    22    26    25    2
    23     6     7    1
    24     6     5    2
    25     3     5    1
    26     3     4    1
    27     7     8    2
    28     5    10    1
    29    13    11    2
    30     8     9    1
    31     8    11    1
    32    10     9    2
    33    11    12    2
    34    11    14    1
    35    15    14    1
    36    14    16    1
    37    23    22    1
    38    16    22    2
    39    16    17    1
    40    18    17    1
    41    22    21    1
    42    17    19    2
    43    21    20    2
    44    19    20    1
