@<TRIPOS>MOLECULE
51250_out_ligand_01.pdbqt
 41 44 0 0 0
SMALL
GASTEIGER

@<TRIPOS>ATOM
      1  C         20.0780  -22.6580   -7.9950 C.2     1  UNL1        0.2560
      2  O         19.4020  -23.2450   -8.8270 O.2     1  UNL1       -0.2670
      3  N         21.4080  -22.2960   -8.0800 N.am    1  UNL1       -0.3230
      4  H         21.8180  -21.8810   -7.2500 H       1  UNL1        0.1690
      5  C         22.2780  -22.4750   -9.1730 C.2     1  UNL1        0.0350
      6  C         23.5050  -23.1380   -9.0910 C.2     1  UNL1        0.0310
      7  C         24.3160  -23.2740  -10.2220 C.2     1  UNL1        0.0270
      8  C         23.8910  -22.7520  -11.4450 C.2     1  UNL1        0.0750
      9  C         22.6710  -22.0820  -11.5430 C.2     1  UNL1        0.0270
     10  C         21.8680  -21.9490  -10.4070 C.2     1  UNL1        0.0310
     11  S         24.9300  -22.9250  -12.8730 S.O2    1  UNL1        0.2450
     12  O         26.1720  -22.2210  -12.6280 O.2     1  UNL1       -0.2060
     13  O         24.9100  -24.3220  -13.2450 O.2     1  UNL1       -0.2060
     14  N         24.0430  -22.1000  -14.0660 N.pl3   1  UNL1       -0.1800
     15  H         23.1030  -22.5030  -14.1000 H       1  UNL1        0.1460
     16  C         24.6870  -21.9310  -15.3370 C.2     1  UNL1        0.0460
     17  C         24.5810  -22.9570  -16.2800 C.2     1  UNL1        0.0260
     18  C         25.1370  -22.7990  -17.5490 C.2     1  UNL1        0.0040
     19  C         25.7920  -21.6140  -17.8790 C.2     1  UNL1        0.0260
     20  C         25.9000  -20.5800  -16.9420 C.2     1  UNL1        0.0570
     21 CL         26.7370  -19.1470  -17.4280 Cl      1  UNL1       -0.0820
     22  C         25.3440  -20.7310  -15.6650 C.2     1  UNL1        0.0770
     23 CL         25.4740  -19.4820  -14.4680 Cl      1  UNL1       -0.0810
     24  C         19.4510  -22.3120   -6.6950 C.2     1  UNL1        0.0400
     25  C         19.7420  -21.0450   -6.1740 C.2     1  UNL1        0.0180
     26  C         19.1410  -20.6240   -4.9920 C.2     1  UNL1        0.0030
     27  C         18.2370  -21.4600   -4.3430 C.2     1  UNL1        0.0310
     28  C         17.9430  -22.7250   -4.8620 C.2     1  UNL1        0.0490
     29  C         18.5860  -23.1980   -6.0190 C.2     1  UNL1       -0.0190
     30  C         18.3660  -24.6010   -6.5200 C.3     1  UNL1        0.0520
     31  N         16.9950  -23.5470   -4.1920 N.pl3   1  UNL1       -0.2800
     32  H         17.1260  -23.7210   -3.1950 H       1  UNL1        0.1790
     33  S         15.3660  -23.4360   -4.6210 S.O2    1  UNL1        0.2630
     34  O         14.7590  -24.6830   -4.2050 O.2     1  UNL1       -0.2000
     35  O         14.8330  -22.1660   -4.1770 O.2     1  UNL1       -0.2000
     36  C         15.4380  -23.4310   -6.3950 C.2     1  UNL1        0.0790
     37  C         15.6370  -22.2290   -7.0770 C.2     1  UNL1        0.0250
     38  C         15.6970  -22.2350   -8.4710 C.2     1  UNL1        0.0020
     39  C         15.5700  -23.4360   -9.1720 C.2     1  UNL1        0.0000
     40  C         15.3890  -24.6380   -8.4850 C.2     1  UNL1        0.0020
     41  C         15.3260  -24.6400   -7.0920 C.2     1  UNL1        0.0250
@<TRIPOS>BOND
     1    19    18    2
     2    19    20    1
     3    18    17    1
     4    21    20    1
     5    20    22    2
     6    17    16    2
     7    22    16    1
     8    22    23    1
     9    16    14    1
    10    15    14    1
    11    14    11    1
    12    13    11    2
    13    11    12    2
    14    11     8    1
    15     9     8    2
    16     9    10    1
    17     8     7    1
    18    10     5    2
    19     7     6    2
    20     5     6    1
    21     5     3    1
    22    39    40    2
    23    39    38    1
    24     2     1    2
    25    40    41    1
    26    38    37    2
    27     3     1   am
    28     3     4    1
    29     1    24    1
    30    41    36    2
    31    37    36    1
    32    24    25    2
    33    24    29    1
    34    30    29    1
    35    36    33    1
    36    25    26    1
    37    29    28    2
    38    26    27    2
    39    28    27    1
    40    28    31    1
    41    33    34    2
    42    33    31    1
    43    33    35    2
    44    31    32    1
