@<TRIPOS>MOLECULE
51285_out_ligand_01.pdbqt
 34 36 0 0 0
SMALL
GASTEIGER

@<TRIPOS>ATOM
      1  C         20.4250  -22.3900  -10.1130 C.2     1  UNL1        0.0400
      2  C         19.9380  -21.5540  -11.1310 C.2     1  UNL1        0.0180
      3  C         20.7250  -21.2790  -12.2430 C.2     1  UNL1        0.0030
      4  C         21.9940  -21.8430  -12.3390 C.2     1  UNL1        0.0250
      5  C         22.4900  -22.6730  -11.3250 C.2     1  UNL1        0.0290
      6  C         21.7130  -22.9650  -10.1880 C.2     1  UNL1       -0.0240
      7  C         22.1910  -23.8980   -9.1050 C.3     1  UNL1        0.0510
      8  C         19.5210  -22.6670   -8.9650 C.2     1  UNL1        0.2560
      9  N         19.7650  -21.8630   -7.8680 N.am    1  UNL1       -0.3230
     10  H         20.5410  -21.2170   -7.9370 H       1  UNL1        0.1690
     11  O         18.6850  -23.5530   -9.0760 O.2     1  UNL1       -0.2670
     12  C         19.0790  -21.8630   -6.6340 C.2     1  UNL1        0.0370
     13  C         19.4150  -21.0440   -5.5590 C.2     1  UNL1        0.0290
     14  C         18.6840  -21.1100   -4.3720 C.2     1  UNL1        0.0040
     15  C         17.6120  -21.9960   -4.2540 C.2     1  UNL1        0.0290
     16  C         17.2600  -22.8260   -5.3220 C.2     1  UNL1        0.0360
     17  C         18.0000  -22.7530   -6.5060 C.2     1  UNL1        0.0590
     18  N         16.1610  -23.6930   -5.1290 N.am    1  UNL1       -0.3270
     19  C         14.8240  -23.4190   -5.3510 C.2     1  UNL1        0.2180
     20  C         13.9290  -24.5890   -5.0180 C.3     1  UNL1        0.1170
     21  O         14.3440  -22.3610   -5.7460 O.2     1  UNL1       -0.2740
     22  H         16.3890  -24.6170   -4.7830 H       1  UNL1        0.1690
     23  N         23.7860  -23.2520  -11.5520 N.pl3   1  UNL1       -0.1810
     24  H         23.9220  -23.5160  -12.5280 H       1  UNL1        0.1460
     25  S         25.0960  -22.2390  -11.1310 S.O2    1  UNL1        0.2450
     26  O         24.5450  -21.1900  -10.3000 O.2     1  UNL1       -0.2060
     27  O         26.2380  -23.0280  -10.7290 O.2     1  UNL1       -0.2060
     28  C         25.4740  -21.5370  -12.7200 C.2     1  UNL1        0.0740
     29  C         25.3220  -22.2970  -13.8790 C.2     1  UNL1        0.0250
     30  C         25.6130  -21.7250  -15.1190 C.2     1  UNL1        0.0080
     31  C         26.0410  -20.3950  -15.2050 C.2     1  UNL1       -0.0620
     32  C         26.3750  -19.7830  -16.5360 C.3     1  UNL1        0.0480
     33  C         26.1930  -19.6460  -14.0310 C.2     1  UNL1        0.0080
     34  C         25.9040  -20.2110  -12.7890 C.2     1  UNL1        0.0250
@<TRIPOS>BOND
     1    32    31    1
     2    31    30    2
     3    31    33    1
     4    30    29    1
     5    33    34    2
     6    29    28    2
     7    34    28    1
     8    28    25    1
     9    24    23    1
    10     4     3    2
    11     4     5    1
    12     3     2    1
    13    23     5    1
    14    23    25    1
    15     5     6    2
    16     2     1    2
    17    25    27    2
    18    25    26    2
    19     6     1    1
    20     6     7    1
    21     1     8    1
    22    11     8    2
    23     8     9   am
    24    10     9    1
    25     9    12    1
    26    12    17    2
    27    12    13    1
    28    17    16    1
    29    21    19    2
    30    13    14    2
    31    19    18   am
    32    19    20    1
    33    16    18    1
    34    16    15    2
    35    18    22    1
    36    14    15    1
