@<TRIPOS>MOLECULE
51301_out_ligand_01.pdbqt
 36 39 0 0 0
SMALL
GASTEIGER

@<TRIPOS>ATOM
      1  C         19.0490  -22.4000  -10.3840 C.2     1  UNL1        0.0320
      2  C         19.9490  -23.2950   -9.7890 C.2     1  UNL1        0.0190
      3  C         21.2730  -23.3530  -10.2330 C.2     1  UNL1        0.0310
      4  C         21.7020  -22.5180  -11.2670 C.2     1  UNL1        0.0420
      5  C         20.8050  -21.6470  -11.8830 C.2     1  UNL1        0.0310
      6  C         19.4790  -21.5900  -11.4430 C.2     1  UNL1        0.0190
      7  N         23.0430  -22.6060  -11.7280 N.pl3   1  UNL1       -0.2810
      8  H         23.2330  -22.3100  -12.6860 H       1  UNL1        0.1790
      9  S         24.2760  -22.0840  -10.6960 S.O2    1  UNL1        0.2630
     10  O         23.6260  -21.3170   -9.6540 O.2     1  UNL1       -0.2000
     11  O         25.1480  -23.1940  -10.3790 O.2     1  UNL1       -0.2000
     12  C         25.1650  -20.9300  -11.7140 C.2     1  UNL1        0.0820
     13  C         26.2540  -20.2210  -11.1460 C.2     1  UNL1        0.0280
     14  C         26.9850  -19.3060  -11.9150 C.2     1  UNL1        0.0330
     15  C         26.5910  -19.1490  -13.2240 C.ar    1  UNL1        0.0630
     16  N         27.1150  -18.3260  -14.2140 N.ar    1  UNL1       -0.3070
     17  C         25.5250  -19.8610  -13.7770 C.ar    1  UNL1        0.0640
     18  C         26.3820  -18.5190  -15.3960 C.ar    1  UNL1        0.3250
     19  H         27.8920  -17.6910  -14.1360 H       1  UNL1        0.1700
     20  O         26.5680  -17.9640  -16.4650 O.2     1  UNL1       -0.2470
     21  N         25.3970  -19.4750  -15.1070 N.ar    1  UNL1       -0.3060
     22  H         24.7240  -19.8070  -15.7820 H       1  UNL1        0.1700
     23  C         24.7870  -20.7660  -13.0550 C.2     1  UNL1        0.0570
     24  C         17.6300  -22.3000   -9.9420 C.2     1  UNL1        0.2510
     25  N         17.2710  -23.1010   -8.8820 N.am    1  UNL1       -0.3530
     26  H         17.9950  -23.5200   -8.3260 H       1  UNL1        0.1630
     27  O         16.8700  -21.5190  -10.4970 O.2     1  UNL1       -0.2680
     28  C         15.9630  -23.0080   -8.2750 C.3     1  UNL1        0.1610
     29  C         16.0750  -22.7580   -6.7940 C.2     1  UNL1       -0.0380
     30  C         14.9740  -22.9500   -5.9540 C.2     1  UNL1        0.0090
     31  C         15.0790  -22.7030   -4.5850 C.2     1  UNL1        0.0030
     32  C         16.2850  -22.2530   -4.0410 C.2     1  UNL1        0.0370
     33  C         17.3890  -22.0370   -4.8680 C.2     1  UNL1        0.0680
     34  C         17.2790  -22.2910   -6.2390 C.2     1  UNL1        0.0450
     35  O         18.6150  -21.5820   -4.4760 O.2     1  UNL1       -0.3560
     36  C         19.3170  -20.7560   -5.3970 C.3     1  UNL1        0.2100
@<TRIPOS>BOND
     1    20    18    2
     2    22    21    1
     3    18    21   ar
     4    18    16   ar
     5    21    17   ar
     6    16    19    1
     7    16    15   ar
     8    17    15   ar
     9    17    23    1
    10    15    14    1
    11    23    12    2
    12     8     7    1
    13    14    13    2
    14     5     6    1
    15     5     4    2
    16     7     4    1
    17     7     9    1
    18    12    13    1
    19    12     9    1
    20     6     1    2
    21     4     3    1
    22     9    11    2
    23     9    10    2
    24    27    24    2
    25     1    24    1
    26     1     2    1
    27     3     2    2
    28    24    25   am
    29    25    26    1
    30    25    28    1
    31    28    29    1
    32    29    34    2
    33    29    30    1
    34    34    33    1
    35    30    31    2
    36    36    35    1
    37    33    35    1
    38    33    32    2
    39    31    32    1
