@<TRIPOS>MOLECULE
51305_out_ligand_01.pdbqt
 33 36 0 0 0
SMALL
GASTEIGER

@<TRIPOS>ATOM
      1  C         18.4400  -21.7900  -10.5050 C.2     1  UNL1        0.0330
      2  C         17.2940  -21.2550  -11.1120 C.2     1  UNL1        0.0170
      3  C         16.0260  -21.6030  -10.6430 C.2     1  UNL1        0.0030
      4  C         15.8980  -22.4920   -9.5760 C.2     1  UNL1        0.0250
      5  C         17.0430  -23.0410   -8.9900 C.2     1  UNL1        0.0760
      6  C         18.3170  -22.6890   -9.4420 C.2     1  UNL1        0.0410
      7  C         19.8020  -21.4570  -11.0000 C.2     1  UNL1        0.2560
      8  N         20.7100  -22.4970  -10.9340 N.am    1  UNL1       -0.3230
      9  H         20.3480  -23.4020  -10.6640 H       1  UNL1        0.1690
     10  O         19.9900  -20.3300  -11.4390 O.2     1  UNL1       -0.2670
     11  C         22.0770  -22.4590  -11.2820 C.2     1  UNL1        0.0350
     12  C         23.1040  -22.9040  -10.4450 C.2     1  UNL1        0.0290
     13  C         24.4370  -22.8640  -10.8680 C.2     1  UNL1        0.0030
     14  C         24.7550  -22.3720  -12.1320 C.2     1  UNL1        0.0170
     15  C         23.7410  -21.9070  -12.9720 C.2     1  UNL1        0.0340
     16  C         22.4030  -21.9630  -12.5510 C.2     1  UNL1        0.0460
     17  C         24.1160  -21.3860  -14.3100 C.2     1  UNL1        0.2490
     18  N         23.3400  -20.3870  -14.8330 N.am    1  UNL1       -0.3660
     19  H         22.7660  -19.8080  -14.2380 H       1  UNL1        0.1590
     20  H         23.7090  -19.9520  -15.6700 H       1  UNL1        0.1590
     21  O         25.0970  -21.7990  -14.9130 O.2     1  UNL1       -0.2680
     22  S         16.8630  -24.1700   -7.6220 S.O2    1  UNL1        0.2480
     23  O         18.2000  -24.6180   -7.2890 O.2     1  UNL1       -0.2050
     24  O         15.8260  -25.1200   -7.9740 O.2     1  UNL1       -0.2050
     25  N         16.2730  -23.1400   -6.4020 N.pl3   1  UNL1       -0.1710
     26  C         15.3530  -23.7700   -5.3930 C.3     1  UNL1        0.1180
     27  C         15.5150  -22.9600   -4.0980 C.3     1  UNL1        0.0560
     28  C         16.8300  -22.2880   -4.3120 C.2     1  UNL1       -0.0350
     29  C         17.5700  -21.5660   -3.3870 C.2     1  UNL1        0.0090
     30  C         17.2440  -22.4060   -5.6390 C.2     1  UNL1        0.0310
     31  C         18.7410  -20.9440   -3.8180 C.2     1  UNL1        0.0010
     32  C         19.1400  -21.0300   -5.1610 C.2     1  UNL1        0.0020
     33  C         18.3790  -21.7510   -6.0860 C.2     1  UNL1        0.0250
@<TRIPOS>BOND
     1    20    18    1
     2    21    17    2
     3    18    17   am
     4    18    19    1
     5    17    15    1
     6    15    16    1
     7    15    14    2
     8    16    11    2
     9    14    13    1
    10    10     7    2
    11    11     8    1
    12    11    12    1
    13     2     3    1
    14     2     1    2
    15     7     8   am
    16     7     1    1
    17     8     9    1
    18    13    12    2
    19     3     4    2
    20     1     6    1
    21     4     5    1
    22     6     5    2
    23     5    22    1
    24    24    22    2
    25    22    23    2
    26    22    25    1
    27    25    30    1
    28    25    26    1
    29    33    30    1
    30    33    32    2
    31    30    28    2
    32    26    27    1
    33    32    31    1
    34    28    27    1
    35    28    29    1
    36    31    29    2
