@<TRIPOS>MOLECULE
51303_out_ligand_01.pdbqt
 31 33 0 0 0
SMALL
GASTEIGER

@<TRIPOS>ATOM
      1  C         22.1510  -21.8780   -9.4830 C.2     1  UNL1        0.0430
      2  C         23.5290  -21.7310   -9.7130 C.2     1  UNL1        0.0180
      3  C         24.0490  -21.8730  -10.9970 C.2     1  UNL1        0.0010
      4  C         23.1980  -22.1700  -12.0570 C.2     1  UNL1        0.0010
      5  C         21.8280  -22.3380  -11.8320 C.2     1  UNL1        0.0130
      6  C         21.2750  -22.2030  -10.5440 C.2     1  UNL1       -0.0100
      7  C         21.6940  -21.6800   -8.0790 C.2     1  UNL1        0.2570
      8  N         20.3270  -21.7720   -7.8990 N.am    1  UNL1       -0.3230
      9  H         19.7720  -21.9460   -8.7270 H       1  UNL1        0.1690
     10  O         22.5390  -21.4290   -7.2280 O.2     1  UNL1       -0.2670
     11  C         19.6110  -21.7070   -6.6870 C.2     1  UNL1        0.0350
     12  C         19.8210  -20.7400   -5.7050 C.2     1  UNL1        0.0290
     13  C         19.0670  -20.7510   -4.5260 C.2     1  UNL1        0.0030
     14  C         18.1040  -21.7370   -4.3150 C.2     1  UNL1        0.0170
     15  C         17.8960  -22.7210   -5.2840 C.2     1  UNL1        0.0340
     16  C         18.6420  -22.6930   -6.4720 C.2     1  UNL1        0.0460
     17  C         16.8910  -23.8030   -5.1170 C.2     1  UNL1        0.2490
     18  N         16.0040  -23.6880   -4.0820 N.am    1  UNL1       -0.3660
     19  H         15.4250  -24.5010   -3.9110 H       1  UNL1        0.1590
     20  H         16.1740  -23.0730   -3.3000 H       1  UNL1        0.1590
     21  O         16.8750  -24.7830   -5.8510 O.2     1  UNL1       -0.2680
     22  C         19.8320  -22.4420  -10.3590 C.2     1  UNL1       -0.0250
     23  C         19.3600  -23.6610   -9.8510 C.2     1  UNL1        0.0130
     24  C         17.9950  -23.8710   -9.6380 C.2     1  UNL1        0.0170
     25  C         17.0630  -22.8680   -9.9380 C.2     1  UNL1        0.0480
     26  C         17.5280  -21.6490  -10.4520 C.2     1  UNL1        0.0170
     27  C         18.8940  -21.4420  -10.6650 C.2     1  UNL1        0.0130
     28  C         15.5930  -23.0870   -9.6760 C.3     1  UNL1        0.4170
     29  F         15.2710  -22.9180   -8.3630 F       1  UNL1       -0.1660
     30  F         15.1750  -24.3420  -10.0050 F       1  UNL1       -0.1660
     31  F         14.7900  -22.2350  -10.3710 F       1  UNL1       -0.1660
@<TRIPOS>BOND
     1     4     5    2
     2     4     3    1
     3     5     6    1
     4     3     2    2
     5    27    26    1
     6    27    22    2
     7     6    22    1
     8     6     1    2
     9    26    25    2
    10    31    28    1
    11    22    23    1
    12    30    28    1
    13    25    28    1
    14    25    24    1
    15    23    24    2
    16     2     1    1
    17    28    29    1
    18     1     7    1
    19     9     8    1
    20     7     8   am
    21     7    10    2
    22     8    11    1
    23    11    16    2
    24    11    12    1
    25    16    15    1
    26    21    17    2
    27    12    13    2
    28    15    17    1
    29    15    14    2
    30    17    18   am
    31    13    14    1
    32    18    19    1
    33    18    20    1
