@<TRIPOS>MOLECULE
51317_out_ligand_01.pdbqt
 32 35 0 0 0
SMALL
GASTEIGER

@<TRIPOS>ATOM
      1  C         19.4590  -22.3390  -10.4030 C.2     1  UNL1        0.0320
      2  C         18.0820  -22.0710  -10.3940 C.2     1  UNL1        0.0180
      3  C         17.2600  -22.6740   -9.4370 C.2     1  UNL1        0.0260
      4  C         17.8170  -23.5510   -8.4980 C.2     1  UNL1        0.0800
      5  C         19.1840  -23.8320   -8.5030 C.2     1  UNL1        0.0260
      6  C         20.0010  -23.2290   -9.4620 C.2     1  UNL1        0.0180
      7  C         20.3830  -21.7240  -11.3970 C.2     1  UNL1        0.2510
      8  N         21.6730  -22.2080  -11.4260 N.am    1  UNL1       -0.3530
      9  H         21.8900  -23.0640  -10.9360 H       1  UNL1        0.1630
     10  O         19.9660  -20.8600  -12.1590 O.2     1  UNL1       -0.2680
     11  C         22.5970  -21.8180  -12.4700 C.3     1  UNL1        0.1610
     12  C         24.0040  -22.2270  -12.1140 C.2     1  UNL1       -0.0380
     13  C         24.7210  -21.5190  -11.1390 C.2     1  UNL1        0.0090
     14  C         26.0270  -21.8860  -10.8200 C.2     1  UNL1        0.0030
     15  C         26.6320  -22.9680  -11.4680 C.2     1  UNL1        0.0370
     16  C         25.9330  -23.6850  -12.4380 C.2     1  UNL1        0.0680
     17  C         24.6250  -23.3070  -12.7600 C.2     1  UNL1        0.0450
     18  O         26.4090  -24.7610  -13.1430 O.2     1  UNL1       -0.3560
     19  C         26.4000  -24.6540  -14.5620 C.3     1  UNL1        0.2100
     20  S         16.7460  -24.3070   -7.2860 S.O2    1  UNL1        0.2650
     21  O         17.6230  -25.0870   -6.4380 O.2     1  UNL1       -0.2000
     22  O         15.6500  -24.9290   -8.0010 O.2     1  UNL1       -0.2000
     23  N         16.1360  -22.9290   -6.4390 N.pl3   1  UNL1       -0.2710
     24  C         14.7800  -23.1000   -5.8420 C.3     1  UNL1        0.1420
     25  C         14.8670  -23.6510   -4.4290 C.3     1  UNL1        0.0260
     26  C         15.6460  -22.6990   -3.5380 C.3     1  UNL1        0.0420
     27  C         16.8970  -22.1780   -4.1940 C.2     1  UNL1       -0.0310
     28  C         17.8500  -21.5240   -3.3930 C.2     1  UNL1        0.0090
     29  C         17.0990  -22.2580   -5.5830 C.2     1  UNL1        0.0510
     30  C         18.9890  -20.9600   -3.9630 C.2     1  UNL1        0.0010
     31  C         19.1800  -21.0250   -5.3390 C.2     1  UNL1        0.0020
     32  C         18.2340  -21.6640   -6.1440 C.2     1  UNL1        0.0310
@<TRIPOS>BOND
     1    19    18    1
     2    18    16    1
     3    17    16    1
     4    17    12    2
     5    11    12    1
     6    11     8    1
     7    16    15    2
     8    10     7    2
     9    12    13    1
    10    15    14    1
    11     8     7   am
    12     8     9    1
    13     7     1    1
    14    13    14    2
    15     1     2    2
    16     1     6    1
    17     2     3    1
    18     6     5    2
    19     3     4    2
    20     5     4    1
    21     4    20    1
    22    22    20    2
    23    20    23    1
    24    20    21    2
    25    23    24    1
    26    23    29    1
    27    32    29    1
    28    32    31    2
    29    24    25    1
    30    29    27    2
    31    31    30    1
    32    25    26    1
    33    27    26    1
    34    27    28    1
    35    30    28    2
