@<TRIPOS>MOLECULE
51310_out_ligand_01.pdbqt
 27 29 0 0 0
SMALL
GASTEIGER

@<TRIPOS>ATOM
      1  N         17.7330  -20.6430  -11.8200 N.1     1  UNL1       -0.1910
      2  C         18.4710  -21.3240  -11.2370 C.1     1  UNL1        0.1020
      3  C         19.3740  -22.1950  -10.5390 C.2     1  UNL1        0.0720
      4  C         20.7530  -22.0000  -10.7240 C.2     1  UNL1        0.0490
      5  C         21.6620  -22.8230  -10.0600 C.2     1  UNL1        0.0750
      6  C         21.2130  -23.8140   -9.1940 C.2     1  UNL1        0.0270
      7  C         19.8380  -24.0050   -9.0140 C.2     1  UNL1        0.0320
      8  C         18.8880  -23.2320   -9.7060 C.2     1  UNL1        0.0490
      9  N         17.5120  -23.3750   -9.4760 N.pl3   1  UNL1       -0.3880
     10  H         17.2240  -24.3460   -9.3710 H       1  UNL1        0.1590
     11  C         16.8140  -22.5070   -8.5320 C.3     1  UNL1        0.1340
     12  C         16.7640  -23.1730   -7.1560 C.3     1  UNL1        0.0030
     13  C         16.7570  -24.6940   -7.1110 C.3     1  UNL1        0.0170
     14  C         15.5020  -23.9430   -6.7880 C.3     1  UNL1        0.0170
     15  C         17.4700  -22.4110   -6.0380 C.2     1  UNL1       -0.0450
     16  C         17.0230  -22.4750   -4.7040 C.2     1  UNL1        0.0080
     17  C         17.6830  -21.7960   -3.6730 C.2     1  UNL1        0.0040
     18  C         18.8100  -21.0320   -3.9590 C.2     1  UNL1        0.0420
     19  C         19.2630  -20.9560   -5.2690 C.2     1  UNL1        0.1170
     20  F         20.3510  -20.2280   -5.5510 F       1  UNL1       -0.2060
     21  C         18.6100  -21.6320   -6.2970 C.2     1  UNL1        0.0500
     22  S         23.4010  -22.5570  -10.2820 S.O2    1  UNL1        0.2390
     23  O         23.7290  -21.2450   -9.7760 O.2     1  UNL1       -0.2060
     24  O         23.7610  -22.9940  -11.6080 O.2     1  UNL1       -0.2060
     25  N         24.0530  -23.6440   -9.1770 N.3     1  UNL1       -0.2250
     26  H         24.0000  -23.3350   -8.2080 H       1  UNL1        0.1360
     27  H         25.0100  -23.8670   -9.4570 H       1  UNL1        0.1360
@<TRIPOS>BOND
     1     1     2    3
     2    24    22    2
     3     2     3    1
     4     4     3    2
     5     4     5    1
     6     3     8    1
     7    22     5    1
     8    22    23    2
     9    22    25    1
    10     5     6    2
    11     8     9    1
    12     8     7    2
    13     9    10    1
    14     9    11    1
    15    27    25    1
    16     6     7    1
    17    25    26    1
    18    11    12    1
    19    12    13    1
    20    12    14    1
    21    12    15    1
    22    13    14    1
    23    21    15    2
    24    21    19    1
    25    15    16    1
    26    20    19    1
    27    19    18    2
    28    16    17    2
    29    18    17    1
