@<TRIPOS>MOLECULE
51315_out_ligand_01.pdbqt
 40 44 0 0 0
SMALL
GASTEIGER

@<TRIPOS>ATOM
      1  N         20.5190  -22.1620  -10.5560 N.am    1  UNL1       -0.3230
      2  C         19.4610  -21.3510  -10.9220 C.2     1  UNL1        0.2560
      3  O         19.5050  -20.3340  -11.6040 O.2     1  UNL1       -0.2670
      4  H         20.2930  -23.0180  -10.0660 H       1  UNL1        0.1690
      5  C         21.8850  -21.9680  -10.8500 C.2     1  UNL1        0.0350
      6  C         22.8730  -21.7810   -9.8790 C.2     1  UNL1        0.0310
      7  C         24.2120  -21.6060  -10.2490 C.2     1  UNL1        0.0270
      8  C         24.5680  -21.6430  -11.5970 C.2     1  UNL1        0.0790
      9  C         23.5890  -21.8010  -12.5810 C.2     1  UNL1        0.0270
     10  C         22.2540  -21.9680  -12.2030 C.2     1  UNL1        0.0310
     11  S         26.2710  -21.4190  -12.0680 S.O2    1  UNL1        0.2600
     12  O         26.8610  -20.4870  -11.1290 O.2     1  UNL1       -0.2000
     13  O         26.8380  -22.7350  -12.2680 O.2     1  UNL1       -0.2000
     14  N         26.1520  -20.6430  -13.5780 N.3     1  UNL1       -0.3060
     15  C         26.4110  -19.1950  -13.6100 C.3     1  UNL1        0.1630
     16  C         26.4920  -21.4300  -14.8010 C.3     1  UNL1        0.0990
     17  C         26.8250  -20.5620  -16.0150 C.3     1  UNL1        0.0560
     18  C         27.1120  -21.4450  -17.2320 C.3     1  UNL1        0.2740
     19  N         26.0390  -22.3960  -17.5430 N.3     1  UNL1        0.0840
     20  C         24.8770  -21.7500  -18.1520 C.3     1  UNL1        0.3090
     21  C         25.6750  -23.2090  -16.3750 C.3     1  UNL1        0.2740
     22  C         25.3470  -22.3940  -15.1230 C.3     1  UNL1        0.0560
     23  C         18.1300  -21.7980  -10.4300 C.2     1  UNL1        0.0330
     24  C         16.9440  -21.4050  -11.0670 C.2     1  UNL1        0.0170
     25  C         15.7120  -21.8670  -10.5980 C.2     1  UNL1        0.0030
     26  C         15.6600  -22.7330   -9.5060 C.2     1  UNL1        0.0250
     27  C         16.8480  -23.1410   -8.8900 C.2     1  UNL1        0.0760
     28  C         18.0850  -22.6710   -9.3380 C.2     1  UNL1        0.0410
     29  S         16.7680  -24.2410   -7.4900 S.O2    1  UNL1        0.2480
     30  O         15.7400  -25.2240   -7.7640 O.2     1  UNL1       -0.2050
     31  O         18.1320  -24.6490   -7.2180 O.2     1  UNL1       -0.2050
     32  N         16.2190  -23.1970   -6.2620 N.pl3   1  UNL1       -0.1710
     33  C         15.3620  -23.8250   -5.1960 C.3     1  UNL1        0.1180
     34  C         15.5790  -22.9940   -3.9220 C.3     1  UNL1        0.0560
     35  C         16.8680  -22.2990   -4.2180 C.2     1  UNL1       -0.0350
     36  C         17.6390  -21.5490   -3.3440 C.2     1  UNL1        0.0090
     37  C         17.2130  -22.4300   -5.5620 C.2     1  UNL1        0.0310
     38  C         18.7760  -20.9130   -3.8450 C.2     1  UNL1        0.0010
     39  C         19.1060  -21.0140   -5.2040 C.2     1  UNL1        0.0020
     40  C         18.3110  -21.7640   -6.0770 C.2     1  UNL1        0.0250
@<TRIPOS>BOND
     1    20    19    1
     2    19    18    1
     3    19    21    1
     4    18    17    1
     5    21    22    1
     6    17    16    1
     7    22    16    1
     8    16    14    1
     9    15    14    1
    10    14    11    1
    11     9    10    1
    12     9     8    2
    13    13    11    2
    14    10     5    2
    15    11     8    1
    16    11    12    2
    17     3     2    2
    18     8     7    1
    19    24    25    1
    20    24    23    2
    21     2     1   am
    22     2    23    1
    23     5     1    1
    24     5     6    1
    25    25    26    2
    26     1     4    1
    27    23    28    1
    28     7     6    2
    29    26    27    1
    30    28    27    2
    31    27    29    1
    32    30    29    2
    33    29    31    2
    34    29    32    1
    35    32    37    1
    36    32    33    1
    37    40    37    1
    38    40    39    2
    39    37    35    2
    40    39    38    1
    41    33    34    1
    42    35    34    1
    43    35    36    1
    44    38    36    2
