@<TRIPOS>MOLECULE
51321_out_ligand_01.pdbqt
 39 43 0 0 0
SMALL
GASTEIGER

@<TRIPOS>ATOM
      1  O         22.1680  -24.0290   -9.0230 O.2     1  UNL1       -0.2670
      2  C         21.6800  -22.9980   -9.4620 C.2     1  UNL1        0.2570
      3  N         22.2380  -22.1080  -10.3610 N.am    1  UNL1       -0.3230
      4  H         21.6650  -21.3200  -10.6370 H       1  UNL1        0.1690
      5  C         23.5300  -22.1600  -10.9270 C.2     1  UNL1        0.0360
      6  C         24.5360  -21.4280  -10.2790 C.2     1  UNL1        0.0290
      7  C         25.8540  -21.4430  -10.7460 C.2     1  UNL1        0.0040
      8  C         26.1770  -22.1850  -11.8780 C.2     1  UNL1        0.0250
      9  C         25.1710  -22.8940  -12.5410 C.2     1  UNL1        0.0820
     10  C         23.8530  -22.8920  -12.0700 C.2     1  UNL1        0.0540
     11  S         25.5870  -23.8200  -13.9950 S.O2    1  UNL1        0.2640
     12  O         26.9980  -23.5930  -14.2400 O.2     1  UNL1       -0.2000
     13  O         25.0590  -25.1610  -13.9030 O.2     1  UNL1       -0.2000
     14  N         24.8030  -23.0290  -15.2360 N.pl3   1  UNL1       -0.2680
     15  H         24.0130  -23.5660  -15.5780 H       1  UNL1        0.1800
     16  C         25.0970  -21.7570  -15.7400 C.2     1  UNL1        0.1080
     17  N         25.8200  -21.6310  -16.7930 N.2     1  UNL1       -0.2760
     18  C         26.0800  -20.2750  -17.2720 C.3     1  UNL1        0.1510
     19  C         27.1210  -19.5710  -16.4080 C.3     1  UNL1        0.0220
     20  C         26.9470  -19.7570  -14.8980 C.3     1  UNL1        0.0020
     21  C         25.5110  -19.6160  -14.3950 C.3     1  UNL1        0.0080
     22  C         24.4850  -20.5990  -14.9710 C.3     1  UNL1        0.0790
     23  C         20.3040  -22.6490   -9.0410 C.2     1  UNL1        0.0470
     24  C         20.0210  -22.8050   -7.6850 C.2     1  UNL1        0.0500
     25  C         18.7330  -22.5490   -7.2580 C.2     1  UNL1        0.0700
     26  N         17.7460  -22.1790   -8.1060 N.2     1  UNL1       -0.2470
     27  C         18.0350  -21.9800   -9.4030 C.2     1  UNL1        0.0680
     28  C         17.0170  -21.5410  -10.2400 C.2     1  UNL1        0.0320
     29  C         19.3190  -22.1870   -9.9440 C.2     1  UNL1        0.0080
     30  C         17.2340  -21.2840  -11.5960 C.2     1  UNL1        0.0020
     31  C         18.5010  -21.4590  -12.1360 C.2     1  UNL1        0.0010
     32  C         19.5380  -21.9020  -11.3170 C.2     1  UNL1        0.0150
     33  C         18.3450  -22.6860   -5.8540 C.2     1  UNL1        0.0140
     34  C         17.7350  -23.8750   -5.4170 C.2     1  UNL1        0.0150
     35  C         17.3730  -24.0530   -4.0790 C.2     1  UNL1        0.0010
     36  C         17.6120  -23.0420   -3.1540 C.2     1  UNL1        0.0020
     37  C         18.2060  -21.8480   -3.5670 C.2     1  UNL1        0.0250
     38  C         18.5700  -21.6700   -4.9060 C.2     1  UNL1        0.0460
     39 CL         19.3060  -20.1630   -5.3410 Cl      1  UNL1       -0.0830
@<TRIPOS>BOND
     1    18    17    1
     2    18    19    1
     3    17    16    2
     4    19    20    1
     5    16    14    1
     6    16    22    1
     7    15    14    1
     8    14    11    1
     9    22    21    1
    10    20    21    1
    11    12    11    2
    12    11    13    2
    13    11     9    1
    14     9    10    1
    15     9     8    2
    16    31    30    1
    17    31    32    2
    18    10     5    2
    19     8     7    1
    20    30    28    2
    21    32    29    1
    22     5     3    1
    23     5     6    1
    24     7     6    2
    25     4     3    1
    26     3     2   am
    27    28    27    1
    28    29    27    1
    29    29    23    2
    30     2    23    1
    31     2     1    2
    32    27    26    2
    33    23    24    1
    34    26    25    1
    35    24    25    2
    36    25    33    1
    37    33    34    2
    38    33    38    1
    39    34    35    1
    40    39    38    1
    41    38    37    2
    42    35    36    2
    43    37    36    1
