@<TRIPOS>MOLECULE
51325_out_ligand_01.pdbqt
 35 38 0 0 0
SMALL
GASTEIGER

@<TRIPOS>ATOM
      1  C         21.2360  -21.8650  -11.4420 C.2     1  UNL1        0.0360
      2  C         21.2460  -21.3470  -12.7440 C.2     1  UNL1        0.0290
      3  C         22.4370  -21.2660  -13.4720 C.2     1  UNL1        0.0040
      4  C         23.6330  -21.7060  -12.9090 C.2     1  UNL1        0.0250
      5  C         23.6270  -22.2320  -11.6170 C.2     1  UNL1        0.0820
      6  C         22.4390  -22.3050  -10.8760 C.2     1  UNL1        0.0540
      7  N         20.0580  -22.0190  -10.6800 N.am    1  UNL1       -0.3260
      8  C         18.8210  -21.4490  -10.9440 C.2     1  UNL1        0.2310
      9  O         18.5800  -20.5880  -11.7970 O.2     1  UNL1       -0.2720
     10  H         20.1430  -22.5090   -9.7910 H       1  UNL1        0.1690
     11  C         17.6990  -22.0230  -10.0890 C.3     1  UNL1        0.1820
     12  S         18.2320  -23.4480   -9.0830 S.3     1  UNL1       -0.1200
     13  C         18.2660  -22.7740   -7.4050 C.2     1  UNL1        0.0130
     14  C         19.3810  -21.9620   -7.1000 C.2     1  UNL1        0.0190
     15  C         19.4870  -21.3230   -5.8760 C.2     1  UNL1        0.0020
     16  C         18.4520  -21.4490   -4.9530 C.2     1  UNL1        0.0120
     17  C         17.3080  -22.2160   -5.2290 C.2     1  UNL1       -0.0230
     18  C         16.3010  -22.2420   -4.2450 C.2     1  UNL1        0.0120
     19  C         17.1760  -22.9380   -6.4540 C.2     1  UNL1        0.0130
     20  C         15.1320  -22.9680   -4.4170 C.2     1  UNL1        0.0030
     21  C         14.9720  -23.7160   -5.5680 C.2     1  UNL1        0.0250
     22  C         15.9700  -23.7250   -6.5620 C.2     1  UNL1        0.0460
     23 CL         15.6250  -24.8230   -7.8570 Cl      1  UNL1       -0.0830
     24  S         25.1540  -22.7490  -10.8770 S.O2    1  UNL1        0.2640
     25  O         26.1370  -21.6950  -11.0120 O.2     1  UNL1       -0.2000
     26  O         24.8370  -23.2930   -9.5690 O.2     1  UNL1       -0.2000
     27  N         25.6150  -24.0640  -11.7940 N.pl3   1  UNL1       -0.2680
     28  H         25.8090  -24.8720  -11.2080 H       1  UNL1        0.1800
     29  C         25.8760  -24.0750  -13.1730 C.2     1  UNL1        0.1080
     30  N         25.0780  -24.6940  -13.9650 N.2     1  UNL1       -0.2760
     31  C         25.3310  -24.6960  -15.4060 C.3     1  UNL1        0.1510
     32  C         25.1410  -23.3050  -16.0050 C.3     1  UNL1        0.0220
     33  C         26.3760  -22.4160  -15.8640 C.3     1  UNL1        0.0020
     34  C         26.7580  -22.0900  -14.4140 C.3     1  UNL1        0.0080
     35  C         27.1200  -23.3280  -13.5990 C.3     1  UNL1        0.0790
@<TRIPOS>BOND
     1    32    33    1
     2    32    31    1
     3    33    34    1
     4    31    30    1
     5    34    35    1
     6    30    29    2
     7    35    29    1
     8     3     4    2
     9     3     2    1
    10    29    27    1
    11     4     5    1
    12     2     1    2
    13     9     8    2
    14    27    28    1
    15    27    24    1
    16     5    24    1
    17     5     6    2
    18     1     6    1
    19     1     7    1
    20    25    24    2
    21     8     7   am
    22     8    11    1
    23    24    26    2
    24     7    10    1
    25    11    12    1
    26    12    13    1
    27    23    22    1
    28    13    14    2
    29    13    19    1
    30    14    15    1
    31    22    19    1
    32    22    21    2
    33    19    17    2
    34    15    16    2
    35    21    20    1
    36    17    16    1
    37    17    18    1
    38    20    18    2
