@<TRIPOS>MOLECULE
51326_out_ligand_01.pdbqt
 34 36 0 0 0
SMALL
GASTEIGER

@<TRIPOS>ATOM
      1  C         18.6610  -22.8120   -6.1040 C.2     1  UNL1        0.0750
      2  C         18.9170  -23.8130   -7.0480 C.2     1  UNL1        0.0260
      3  C         19.9440  -23.6380   -7.9800 C.2     1  UNL1        0.0180
      4  C         20.7070  -22.4620   -7.9680 C.2     1  UNL1        0.0320
      5  C         20.4570  -21.4770   -6.9990 C.2     1  UNL1        0.0180
      6  C         19.4340  -21.6490   -6.0640 C.2     1  UNL1        0.0260
      7  C         21.8140  -22.2340   -8.9420 C.2     1  UNL1        0.2560
      8  O         22.9040  -21.8800   -8.5080 O.2     1  UNL1       -0.2670
      9  N         21.4680  -22.4010  -10.2710 N.am    1  UNL1       -0.3230
     10  H         20.4860  -22.5310  -10.4780 H       1  UNL1        0.1690
     11  C         22.3220  -22.3110  -11.3910 C.2     1  UNL1        0.0350
     12  C         21.8910  -21.5140  -12.4630 C.2     1  UNL1        0.0310
     13  C         22.6760  -21.3750  -13.6090 C.2     1  UNL1        0.0270
     14  C         23.9050  -22.0330  -13.6860 C.2     1  UNL1        0.0790
     15  C         24.3310  -22.8560  -12.6420 C.2     1  UNL1        0.0270
     16  C         23.5410  -22.9840  -11.4940 C.2     1  UNL1        0.0310
     17  S         24.8970  -21.8890  -15.1600 S.O2    1  UNL1        0.2600
     18  O         24.0290  -22.1500  -16.2890 O.2     1  UNL1       -0.2000
     19  O         26.1000  -22.6640  -14.9480 O.2     1  UNL1       -0.2000
     20  N         25.3150  -20.2400  -15.1850 N.3     1  UNL1       -0.3150
     21  C         25.9180  -19.6860  -13.9590 C.3     1  UNL1        0.1620
     22  C         25.9290  -19.7220  -16.4180 C.3     1  UNL1        0.1620
     23  S         17.3510  -23.0650   -4.9220 S.O2    1  UNL1        0.2480
     24  O         17.5950  -22.1950   -3.7890 O.2     1  UNL1       -0.2050
     25  O         17.2220  -24.4990   -4.7630 O.2     1  UNL1       -0.2050
     26  N         15.9900  -22.4530   -5.7790 N.pl3   1  UNL1       -0.1720
     27  C         14.7000  -22.4840   -5.0290 C.3     1  UNL1        0.1090
     28  C         13.7190  -21.5050   -5.6570 C.3     1  UNL1        0.0220
     29  C         15.9050  -22.9380   -7.1360 C.2     1  UNL1        0.0250
     30  C         16.1730  -22.0380   -8.1690 C.2     1  UNL1        0.0240
     31  C         16.0560  -22.4440   -9.5000 C.2     1  UNL1        0.0020
     32  C         15.6630  -23.7490   -9.7970 C.2     1  UNL1        0.0000
     33  C         15.3820  -24.6460   -8.7660 C.2     1  UNL1        0.0020
     34  C         15.4960  -24.2410   -7.4350 C.2     1  UNL1        0.0240
@<TRIPOS>BOND
     1    22    20    1
     2    18    17    2
     3    20    17    1
     4    20    21    1
     5    17    19    2
     6    17    14    1
     7    14    13    2
     8    14    15    1
     9    13    12    1
    10    15    16    2
    11    12    11    2
    12    16    11    1
    13    11     9    1
    14    10     9    1
    15     9     7   am
    16    32    31    2
    17    32    33    1
    18    31    30    1
    19     7     8    2
    20     7     4    1
    21    33    34    2
    22    30    29    2
    23     3     4    2
    24     3     2    1
    25     4     5    1
    26    34    29    1
    27    29    26    1
    28     2     1    2
    29     5     6    2
    30     1     6    1
    31     1    23    1
    32    26    27    1
    33    26    23    1
    34    28    27    1
    35    23    25    2
    36    23    24    2
