@<TRIPOS>MOLECULE
51349_out_ligand_01.pdbqt
 34 37 0 0 0
SMALL
GASTEIGER

@<TRIPOS>ATOM
      1  C         20.7150  -21.6210  -11.7160 C.2     1  UNL1        0.0330
      2  C         19.4650  -21.1590  -12.1530 C.2     1  UNL1        0.0170
      3  C         18.3240  -21.3680  -11.3730 C.2     1  UNL1        0.0030
      4  C         18.4260  -22.0360  -10.1540 C.2     1  UNL1        0.0250
      5  C         19.6760  -22.4900   -9.7180 C.2     1  UNL1        0.0760
      6  C         20.8260  -22.2740  -10.4820 C.2     1  UNL1        0.0410
      7  C         21.9520  -21.4150  -12.5200 C.2     1  UNL1        0.2510
      8  O         21.8890  -20.8410  -13.6010 O.2     1  UNL1       -0.2680
      9  N         23.1280  -21.8590  -11.9540 N.am    1  UNL1       -0.3530
     10  H         23.1410  -22.0990  -10.9740 H       1  UNL1        0.1630
     11  C         24.4070  -21.5850  -12.5740 C.3     1  UNL1        0.1610
     12  C         24.7080  -22.5950  -13.6530 C.2     1  UNL1       -0.0400
     13  C         25.1310  -23.8900  -13.3250 C.2     1  UNL1        0.0090
     14  C         25.4220  -24.8130  -14.3290 C.2     1  UNL1        0.0010
     15  C         25.3010  -24.4480  -15.6710 C.2     1  UNL1        0.0160
     16  C         24.8820  -23.1560  -16.0250 C.2     1  UNL1        0.0480
     17  C         24.5950  -22.2360  -15.0070 C.2     1  UNL1        0.0250
     18  C         24.7840  -22.7630  -17.4800 C.3     1  UNL1        0.4170
     19  F         23.8290  -23.4660  -18.1520 F       1  UNL1       -0.1660
     20  F         24.4840  -21.4480  -17.6740 F       1  UNL1       -0.1660
     21  F         25.9470  -22.9880  -18.1520 F       1  UNL1       -0.1660
     22  S         19.7860  -23.3120   -8.1370 S.O2    1  UNL1        0.2480
     23  O         20.7800  -22.5640   -7.3950 O.2     1  UNL1       -0.2050
     24  O         19.9500  -24.7290   -8.3860 O.2     1  UNL1       -0.2050
     25  N         18.1940  -23.0640   -7.4700 N.pl3   1  UNL1       -0.1720
     26  C         17.3190  -24.2630   -7.6850 C.3     1  UNL1        0.1140
     27  C         15.9600  -24.0600   -7.0420 C.3     1  UNL1        0.0200
     28  C         16.1460  -23.9640   -5.5400 C.3     1  UNL1        0.0420
     29  C         17.1580  -22.9060   -5.1960 C.2     1  UNL1       -0.0360
     30  C         17.1000  -22.3420   -3.9070 C.2     1  UNL1        0.0090
     31  C         18.1560  -22.5020   -6.1090 C.2     1  UNL1        0.0310
     32  C         17.9720  -21.3250   -3.5380 C.2     1  UNL1        0.0010
     33  C         18.8980  -20.8580   -4.4550 C.2     1  UNL1        0.0020
     34  C         18.9720  -21.4280   -5.7330 C.2     1  UNL1        0.0250
@<TRIPOS>BOND
     1    21    18    1
     2    19    18    1
     3    20    18    1
     4    18    16    1
     5    16    15    2
     6    16    17    1
     7    15    14    1
     8    17    12    2
     9    14    13    2
    10    12    13    1
    11    12    11    1
    12     8     7    2
    13    11     9    1
    14     7     9   am
    15     7     1    1
    16     2     1    2
    17     2     3    1
    18     9    10    1
    19     1     6    1
    20     3     4    2
    21     6     5    2
    22     4     5    1
    23     5    22    1
    24    24    22    2
    25    22    25    1
    26    22    23    2
    27    26    25    1
    28    26    27    1
    29    25    31    1
    30    27    28    1
    31    31    34    1
    32    31    29    2
    33    34    33    2
    34    28    29    1
    35    29    30    1
    36    33    32    1
    37    30    32    2
