@<TRIPOS>MOLECULE
51347_out_ligand_01.pdbqt
 34 38 0 0 0
SMALL
GASTEIGER

@<TRIPOS>ATOM
      1  C         18.9100  -22.0900  -10.5520 C.2     1  UNL1        0.0320
      2  C         17.5290  -21.9160  -10.3840 C.2     1  UNL1        0.0180
      3  C         16.8490  -22.6030   -9.3760 C.2     1  UNL1        0.0260
      4  C         17.5630  -23.4530   -8.5280 C.2     1  UNL1        0.0800
      5  C         18.9430  -23.6290   -8.6820 C.2     1  UNL1        0.0260
      6  C         19.6170  -22.9420   -9.6930 C.2     1  UNL1        0.0180
      7  C         19.5890  -21.3290  -11.6380 C.2     1  UNL1        0.2510
      8  O         18.9880  -20.4520  -12.2430 O.2     1  UNL1       -0.2680
      9  N         20.8910  -21.6930  -11.9180 N.am    1  UNL1       -0.3540
     10  H         21.2060  -22.5970  -11.5890 H       1  UNL1        0.1620
     11  C         21.5920  -21.1280  -13.0600 C.3     1  UNL1        0.1570
     12  C         23.0840  -21.4780  -13.1590 C.3     1  UNL1        0.1710
     13  C         23.4320  -22.6990  -12.3110 C.3     1  UNL1        0.2090
     14  O         24.8330  -22.9950  -12.3800 O.2     1  UNL1       -0.3460
     15  C         25.2990  -22.9330  -13.6670 C.2     1  UNL1        0.1020
     16  C         26.5550  -23.4890  -13.9060 C.2     1  UNL1        0.0390
     17  C         24.5830  -22.3460  -14.7130 C.2     1  UNL1        0.1020
     18  C         27.0830  -23.4830  -15.1980 C.2     1  UNL1        0.0030
     19  C         26.3560  -22.9220  -16.2490 C.2     1  UNL1        0.0030
     20  C         25.1050  -22.3530  -16.0070 C.2     1  UNL1        0.0390
     21  O         23.3580  -21.7560  -14.5480 O.2     1  UNL1       -0.3390
     22  S         16.7230  -24.3430   -7.2290 S.O2    1  UNL1        0.2650
     23  O         17.7710  -25.0280   -6.4990 O.2     1  UNL1       -0.2000
     24  O         15.6350  -25.0800   -7.8370 O.2     1  UNL1       -0.2000
     25  N         16.0590  -23.0570   -6.2870 N.pl3   1  UNL1       -0.2710
     26  C         14.7380  -23.3440   -5.6550 C.3     1  UNL1        0.1420
     27  C         14.9100  -23.9710   -4.2820 C.3     1  UNL1        0.0260
     28  C         15.6660  -23.0260   -3.3620 C.3     1  UNL1        0.0420
     29  C         16.8560  -22.3890   -4.0280 C.2     1  UNL1       -0.0310
     30  C         17.7970  -21.7230   -3.2230 C.2     1  UNL1        0.0090
     31  C         17.0070  -22.3730   -5.4250 C.2     1  UNL1        0.0510
     32  C         18.8750  -21.0520   -3.7960 C.2     1  UNL1        0.0010
     33  C         19.0130  -21.0210   -5.1800 C.2     1  UNL1        0.0020
     34  C         18.0800  -21.6720   -5.9890 C.2     1  UNL1        0.0310
@<TRIPOS>BOND
     1    19    20    2
     2    19    18    1
     3    20    17    1
     4    18    16    2
     5    17    21    1
     6    17    15    2
     7    21    12    1
     8    16    15    1
     9    15    14    1
    10    12    11    1
    11    12    13    1
    12    11     9    1
    13    14    13    1
    14     8     7    2
    15     9     7   am
    16     9    10    1
    17     7     1    1
    18     1     2    2
    19     1     6    1
    20     2     3    1
    21     6     5    2
    22     3     4    2
    23     5     4    1
    24     4    22    1
    25    24    22    2
    26    22    23    2
    27    22    25    1
    28    25    26    1
    29    25    31    1
    30    34    31    1
    31    34    33    2
    32    26    27    1
    33    31    29    2
    34    33    32    1
    35    27    28    1
    36    29    28    1
    37    29    30    1
    38    32    30    2
