@<TRIPOS>MOLECULE
51344_out_ligand_01.pdbqt
 34 37 0 0 0
SMALL
GASTEIGER

@<TRIPOS>ATOM
      1  O         19.5870  -20.3140  -11.4010 O.2     1  UNL1       -0.2680
      2  C         18.8050  -21.2270  -11.1780 C.2     1  UNL1        0.2450
      3  N         19.0600  -22.4680  -10.6280 N.am    1  UNL1       -0.3240
      4  H         18.2740  -23.1050  -10.5560 H       1  UNL1        0.1690
      5  C         20.2920  -22.9510  -10.1430 C.2     1  UNL1        0.0360
      6  C         20.4090  -23.9000   -9.1220 C.2     1  UNL1        0.0290
      7  C         21.6690  -24.3450   -8.7040 C.2     1  UNL1        0.0040
      8  C         22.8270  -23.8330   -9.2910 C.2     1  UNL1        0.0250
      9  C         22.7120  -22.8640  -10.2900 C.2     1  UNL1        0.0820
     10  C         21.4540  -22.4410  -10.7350 C.2     1  UNL1        0.0540
     11  S         24.1750  -22.1920  -11.0330 S.O2    1  UNL1        0.2640
     12  O         25.1530  -23.2420  -11.2030 O.2     1  UNL1       -0.2000
     13  O         24.5110  -20.9810  -10.3090 O.2     1  UNL1       -0.2000
     14  N         23.6390  -21.6730  -12.5220 N.3     1  UNL1       -0.2680
     15  H         22.6220  -21.6350  -12.5720 H       1  UNL1        0.1800
     16  C         24.4200  -21.3220  -13.6190 C.3     1  UNL1        0.1080
     17  N         25.3430  -20.4170  -13.5980 N.3     1  UNL1       -0.2760
     18  C         25.9090  -20.4180  -14.9630 C.3     1  UNL1        0.1510
     19  C         24.8590  -21.0760  -15.8440 C.3     1  UNL1        0.0290
     20  C         24.2130  -22.0650  -14.9010 C.3     1  UNL1        0.0800
     21  C         17.3800  -21.0840  -11.5480 C.2     1  UNL1        0.0770
     22  C         16.3430  -21.5940  -10.8710 C.2     1  UNL1        0.0420
     23  C         16.3840  -22.3480   -9.6640 C.2     1  UNL1        0.0760
     24  C         16.0190  -23.6490   -9.3340 C.2     1  UNL1        0.0400
     25  C         16.3200  -23.8640   -7.9640 C.2     1  UNL1        0.0410
     26  C         16.8540  -22.6860   -7.4930 C.2     1  UNL1        0.0890
     27  O         16.8860  -21.7790   -8.5110 O.2     1  UNL1       -0.3100
     28  C         17.4020  -22.2550   -6.2080 C.2     1  UNL1        0.0360
     29  C         18.5790  -21.4860   -6.1680 C.2     1  UNL1        0.0170
     30  C         19.1150  -21.0440   -4.9500 C.2     1  UNL1        0.0010
     31  C         18.4900  -21.3740   -3.7500 C.2     1  UNL1        0.0030
     32  C         17.3280  -22.1440   -3.7690 C.2     1  UNL1        0.0430
     33  C         16.7930  -22.5780   -4.9870 C.2     1  UNL1        0.1290
     34  F         15.6840  -23.3360   -4.9480 F       1  UNL1       -0.2050
@<TRIPOS>BOND
     1    19    18    1
     2    19    20    1
     3    18    17    1
     4    20    16    1
     5    16    17    1
     6    16    14    1
     7    15    14    1
     8    14    11    1
     9    21     2    1
    10    21    22    2
    11     1     2    2
    12    12    11    2
    13     2     3   am
    14    11    13    2
    15    11     9    1
    16    22    23    1
    17    10     9    1
    18    10     5    2
    19     3     4    1
    20     3     5    1
    21     9     8    2
    22     5     6    1
    23    23    24    2
    24    23    27    1
    25    24    25    1
    26     8     7    1
    27     6     7    2
    28    27    26    1
    29    25    26    2
    30    26    28    1
    31    28    29    2
    32    28    33    1
    33    29    30    1
    34    33    34    1
    35    33    32    2
    36    30    31    2
    37    32    31    1
