@<TRIPOS>MOLECULE
51355_out_ligand_01.pdbqt
 35 39 0 0 0
SMALL
GASTEIGER

@<TRIPOS>ATOM
      1  N         15.3180  -23.8910   -9.8610 N.1     1  UNL1       -0.1910
      2  C         16.0530  -23.5130   -9.0430 C.1     1  UNL1        0.1030
      3  C         16.9070  -23.1510   -7.9450 C.ar    1  UNL1        0.0850
      4  C         18.2080  -22.7120   -8.0580 C.ar    1  UNL1        0.0980
      5  S         18.9820  -22.5900   -6.5500 S.2     1  UNL1       -0.0750
      6  C         17.5550  -22.9900   -5.6950 C.ar    1  UNL1       -0.0070
      7  C         16.5090  -23.2910   -6.5560 C.ar    1  UNL1       -0.0210
      8  C         15.1480  -23.7420   -6.0950 C.3     1  UNL1        0.0410
      9  C         14.4230  -22.7180   -5.2230 C.3     1  UNL1        0.0050
     10  C         15.1730  -22.2150   -3.9820 C.3     1  UNL1        0.0010
     11  C         16.2700  -23.1430   -3.4670 C.3     1  UNL1        0.0050
     12  C         17.6080  -22.9680   -4.1900 C.3     1  UNL1        0.0470
     13  N         19.0620  -22.3710   -9.0870 N.am    1  UNL1       -0.3160
     14  C         20.0180  -23.2180   -9.6070 C.2     1  UNL1        0.2560
     15  O         20.1810  -24.3920   -9.3050 O.2     1  UNL1       -0.2670
     16  H         18.7910  -21.5540   -9.6200 H       1  UNL1        0.1690
     17  C         20.8570  -22.6330  -10.6900 C.2     1  UNL1        0.0330
     18  C         20.2610  -21.7450  -11.5950 C.2     1  UNL1        0.0170
     19  C         21.0150  -21.1620  -12.6160 C.2     1  UNL1        0.0030
     20  C         22.3660  -21.4770  -12.7510 C.2     1  UNL1        0.0250
     21  C         22.9490  -22.4000  -11.8770 C.2     1  UNL1        0.0800
     22  C         22.2080  -22.9690  -10.8340 C.2     1  UNL1        0.0420
     23  S         24.6830  -22.7910  -12.0260 S.O2    1  UNL1        0.2610
     24  O         24.7810  -23.8680  -12.9870 O.2     1  UNL1       -0.2000
     25  O         25.2050  -22.9360  -10.6840 O.2     1  UNL1       -0.2000
     26  N         25.3480  -21.3980  -12.7140 N.3     1  UNL1       -0.3020
     27  C         26.5240  -20.7940  -12.0530 C.3     1  UNL1        0.1400
     28  C         26.6080  -19.3150  -12.4300 C.3     1  UNL1        0.0600
     29  C         26.5990  -19.1220  -13.9250 C.2     1  UNL1       -0.0490
     30  C         27.1200  -17.9460  -14.4850 C.2     1  UNL1        0.0080
     31  C         26.0150  -20.0930  -14.7590 C.2     1  UNL1       -0.0330
     32  C         27.0880  -17.7480  -15.8640 C.2     1  UNL1        0.0010
     33  C         26.5270  -18.7160  -16.6940 C.2     1  UNL1        0.0010
     34  C         25.9930  -19.8820  -16.1460 C.2     1  UNL1        0.0090
     35  C         25.4420  -21.3760  -14.1930 C.3     1  UNL1        0.1740
@<TRIPOS>BOND
     1    33    34    2
     2    33    32    1
     3    34    31    1
     4    32    30    2
     5    31    35    1
     6    31    29    2
     7    30    29    1
     8    35    26    1
     9    29    28    1
    10    24    23    2
    11    20    19    2
    12    20    21    1
    13    26    27    1
    14    26    23    1
    15    19    18    1
    16    28    27    1
    17    23    21    1
    18    23    25    2
    19    21    22    2
    20    18    17    2
    21    22    17    1
    22    17    14    1
    23     1     2    3
    24    16    13    1
    25    14    15    2
    26    14    13   am
    27    13     4    1
    28     2     3    1
    29     4     3   ar
    30     4     5   ar
    31     3     7   ar
    32     7     8    1
    33     7     6   ar
    34     5     6   ar
    35     8     9    1
    36     6    12    1
    37     9    10    1
    38    12    11    1
    39    10    11    1
