@<TRIPOS>MOLECULE
51354_out_ligand_01.pdbqt
 31 33 0 0 0
SMALL
GASTEIGER

@<TRIPOS>ATOM
      1  C         19.3590  -22.3180  -10.0550 C.2     1  UNL1        0.0340
      2  C         18.4540  -21.6020  -10.8530 C.2     1  UNL1        0.0200
      3  C         17.0810  -21.6780  -10.6050 C.2     1  UNL1        0.0450
      4  C         16.6090  -22.4580   -9.5540 C.2     1  UNL1        0.1390
      5  F         15.2890  -22.5040   -9.3340 F       1  UNL1       -0.2040
      6  C         17.5030  -23.1510   -8.7470 C.2     1  UNL1        0.1190
      7  C         18.8820  -23.0880   -8.9870 C.2     1  UNL1        0.0450
      8  C         20.8160  -22.1970  -10.3480 C.2     1  UNL1        0.2560
      9  N         21.1490  -22.2190  -11.6890 N.am    1  UNL1       -0.3230
     10  H         20.3910  -22.1670  -12.3570 H       1  UNL1        0.1690
     11  O         21.5800  -22.0520   -9.4020 O.2     1  UNL1       -0.2670
     12  C         22.4480  -22.1990  -12.2430 C.2     1  UNL1        0.0350
     13  C         23.4140  -23.0070  -11.6260 C.2     1  UNL1        0.0290
     14  C         24.7270  -23.0440  -12.1020 C.2     1  UNL1        0.0030
     15  C         25.0900  -22.2690  -13.2010 C.2     1  UNL1        0.0170
     16  C         24.1350  -21.4580  -13.8240 C.2     1  UNL1        0.0340
     17  C         22.8200  -21.4170  -13.3380 C.2     1  UNL1        0.0460
     18  C         24.4910  -20.6040  -14.9860 C.2     1  UNL1        0.2490
     19  N         25.1530  -19.4350  -14.7180 N.am    1  UNL1       -0.3660
     20  H         25.6370  -19.2950  -13.8430 H       1  UNL1        0.1590
     21  H         25.5120  -18.9480  -15.5290 H       1  UNL1        0.1590
     22  O         24.2360  -20.9310  -16.1370 O.2     1  UNL1       -0.2680
     23  S         16.8770  -24.1300   -7.4230 S.O2    1  UNL1        0.2630
     24  O         17.9970  -24.8390   -6.8360 O.2     1  UNL1       -0.2000
     25  O         15.7320  -24.8560   -7.9240 O.2     1  UNL1       -0.2000
     26  N         16.3630  -22.9760   -6.2820 N.3     1  UNL1       -0.3070
     27  C         17.4250  -22.2530   -5.5300 C.3     1  UNL1        0.1350
     28  C         17.4250  -22.6320   -4.0550 C.3     1  UNL1        0.0210
     29  C         16.0910  -22.3040   -3.3890 C.3     1  UNL1        0.0030
     30  C         14.9150  -22.4120   -4.3580 C.3     1  UNL1        0.0210
     31  C         15.1980  -23.4170   -5.4670 C.3     1  UNL1        0.1350
@<TRIPOS>BOND
     1    22    18    2
     2    21    19    1
     3    18    19   am
     4    18    16    1
     5    19    20    1
     6    16    17    1
     7    16    15    2
     8    17    12    2
     9    15    14    1
    10    10     9    1
    11    12     9    1
    12    12    13    1
    13    14    13    2
    14     9     8   am
    15     2     3    1
    16     2     1    2
    17     3     4    2
    18     8     1    1
    19     8    11    2
    20     1     7    1
    21     4     5    1
    22     4     6    1
    23     7     6    2
    24     6    23    1
    25    25    23    2
    26    23    24    2
    27    23    26    1
    28    26    27    1
    29    26    31    1
    30    27    28    1
    31    31    30    1
    32    30    29    1
    33    28    29    1
