@<TRIPOS>MOLECULE
51351_out_ligand_01.pdbqt
 34 37 0 0 0
SMALL
GASTEIGER

@<TRIPOS>ATOM
      1  N         18.0620  -23.0440   -6.4130 N.am    1  UNL1       -0.2430
      2  C         18.3560  -24.2010   -7.1040 C.2     1  UNL1        0.2660
      3  O         17.8520  -25.3090   -7.0920 O.2     1  UNL1       -0.2670
      4  C         19.5570  -23.9330   -7.8900 C.2     1  UNL1        0.0480
      5  C         20.2530  -24.7410   -8.7680 C.2     1  UNL1        0.0190
      6  C         21.4020  -24.2040   -9.3610 C.2     1  UNL1        0.0180
      7  C         21.8280  -22.8830   -9.0710 C.2     1  UNL1        0.0330
      8  C         21.1110  -22.0950   -8.1580 C.2     1  UNL1        0.0350
      9  C         19.9770  -22.6550   -7.5930 C.2     1  UNL1        0.0490
     10  C         19.0380  -22.0940   -6.6290 C.2     1  UNL1        0.2660
     11  O         19.1830  -20.9630   -6.2000 O.2     1  UNL1       -0.2670
     12  C         23.0710  -22.3840   -9.7280 C.2     1  UNL1        0.2560
     13  O         23.5600  -21.3420   -9.3110 O.2     1  UNL1       -0.2670
     14  N         23.5770  -23.1930  -10.7300 N.am    1  UNL1       -0.3230
     15  H         23.1600  -24.1070  -10.8460 H       1  UNL1        0.1690
     16  C         24.6930  -22.9290  -11.5540 C.2     1  UNL1        0.0350
     17  C         25.9610  -23.0980  -10.9810 C.2     1  UNL1        0.0290
     18  C         27.1210  -22.8680  -11.7250 C.2     1  UNL1        0.0030
     19  C         27.0250  -22.4630  -13.0540 C.2     1  UNL1        0.0170
     20  C         25.7650  -22.2900  -13.6380 C.2     1  UNL1        0.0340
     21  C         24.6030  -22.5350  -12.8910 C.2     1  UNL1        0.0460
     22  C         25.6250  -21.8800  -15.0600 C.2     1  UNL1        0.2490
     23  N         24.3580  -21.8580  -15.5780 N.am    1  UNL1       -0.3660
     24  H         23.6030  -22.3660  -15.1420 H       1  UNL1        0.1590
     25  H         24.3050  -21.7190  -16.5800 H       1  UNL1        0.1590
     26  O         26.5920  -21.6010  -15.7540 O.2     1  UNL1       -0.2680
     27  C         16.9860  -22.8890   -5.4900 C.2     1  UNL1        0.0520
     28  C         17.0520  -23.2920   -4.1390 C.2     1  UNL1       -0.0350
     29  C         15.9660  -23.0130   -3.2830 C.2     1  UNL1        0.0090
     30  C         18.1950  -24.0610   -3.5300 C.3     1  UNL1        0.0500
     31  C         14.8080  -22.4010   -3.7540 C.2     1  UNL1        0.0070
     32  C         14.6980  -22.0630   -5.0990 C.2     1  UNL1       -0.0600
     33  C         13.4640  -21.3880   -5.6210 C.3     1  UNL1        0.0480
     34  C         15.7890  -22.3010   -5.9490 C.2     1  UNL1        0.0370
@<TRIPOS>BOND
     1    25    23    1
     2    26    22    2
     3    23    24    1
     4    23    22   am
     5    22    20    1
     6    20    19    2
     7    20    21    1
     8    19    18    1
     9    21    16    2
    10    18    17    2
    11    16    17    1
    12    16    14    1
    13    15    14    1
    14    14    12   am
    15    12    13    2
    16    12     7    1
    17     6     7    2
    18     6     5    1
    19     7     8    1
    20     5     4    2
    21     8     9    2
    22     4     9    1
    23     4     2    1
    24     9    10    1
    25     2     3    2
    26     2     1   am
    27    10     1   am
    28    10    11    2
    29     1    27    1
    30    34    27    2
    31    34    32    1
    32    33    32    1
    33    27    28    1
    34    32    31    2
    35    28    30    1
    36    28    29    2
    37    31    29    1
