@<TRIPOS>MOLECULE
51366_out_ligand_01.pdbqt
 34 38 0 0 0
SMALL
GASTEIGER

@<TRIPOS>ATOM
      1  C         22.1780  -22.8630  -10.5830 C.2     1  UNL1        0.2560
      2  O         22.7190  -23.5830   -9.7520 O.2     1  UNL1       -0.2670
      3  N         20.9270  -22.2780  -10.4910 N.am    1  UNL1       -0.3230
      4  H         20.6820  -21.6050  -11.2040 H       1  UNL1        0.1690
      5  C         19.9890  -22.4280   -9.4470 C.2     1  UNL1        0.0350
      6  C         20.2930  -22.2810   -8.0980 C.2     1  UNL1        0.0300
      7  C         19.2980  -22.4390   -7.1240 C.2     1  UNL1        0.0100
      8  C         17.9690  -22.7510   -7.4630 C.2     1  UNL1       -0.0490
      9  C         17.6820  -22.9050   -8.8260 C.2     1  UNL1        0.0100
     10  C         18.6770  -22.7480   -9.8020 C.2     1  UNL1        0.0300
     11  C         16.9060  -22.8970   -6.3620 C.3     1  UNL1       -0.0120
     12  C         17.2640  -21.9820   -5.1530 C.3     1  UNL1        0.0190
     13  C         16.2490  -22.1480   -4.0090 C.3     1  UNL1       -0.0130
     14  C         16.2380  -23.6160   -3.5500 C.3     1  UNL1        0.0090
     15  C         14.8490  -21.7630   -4.5090 C.3     1  UNL1        0.0090
     16  C         15.8320  -24.5310   -4.7160 C.3     1  UNL1       -0.0130
     17  C         14.4360  -24.1330   -5.2120 C.3     1  UNL1        0.0090
     18  C         16.8470  -24.3730   -5.8620 C.3     1  UNL1        0.0190
     19  C         14.4460  -22.6710   -5.6790 C.3     1  UNL1       -0.0130
     20  C         15.4650  -22.5100   -6.8200 C.3     1  UNL1        0.0190
     21  C         22.9340  -22.5210  -11.8200 C.2     1  UNL1        0.0320
     22  C         24.2010  -23.0580  -12.0820 C.2     1  UNL1        0.0170
     23  C         24.8770  -22.7110  -13.2550 C.2     1  UNL1        0.0100
     24  C         24.3030  -21.8160  -14.1700 C.2     1  UNL1       -0.0400
     25  C         23.0370  -21.2790  -13.8960 C.2     1  UNL1        0.0100
     26  C         22.3610  -21.6200  -12.7230 C.2     1  UNL1        0.0170
     27  C         25.0140  -21.4490  -15.4480 C.3     1  UNL1        0.1620
     28  N         24.2520  -21.8820  -16.5950 N.am    1  UNL1       -0.3440
     29  C         24.3390  -23.1500  -17.0790 C.2     1  UNL1        0.2920
     30  N         23.5330  -23.3470  -18.1520 N.am    1  UNL1       -0.2540
     31  O         25.0470  -24.0420  -16.6370 O.2     1  UNL1       -0.2540
     32  H         23.4970  -22.5870  -18.8170 H       1  UNL1        0.1280
     33  H         23.6870  -24.2520  -18.5820 H       1  UNL1        0.1280
     34  H         23.4520  -21.3370  -16.8720 H       1  UNL1        0.1640
@<TRIPOS>BOND
     1    32    30    1
     2    33    30    1
     3    30    29   am
     4    29    31    2
     5    29    28   am
     6    34    28    1
     7    28    27    1
     8    27    24    1
     9    24    25    2
    10    24    23    1
    11    25    26    1
    12    23    22    2
    13    26    21    2
    14    22    21    1
    15    21     1    1
    16     4     3    1
    17     1     3   am
    18     1     2    2
    19     3     5    1
    20    10     5    2
    21    10     9    1
    22     5     6    1
    23     9     8    2
    24     6     7    2
    25     8     7    1
    26     8    11    1
    27    20    11    1
    28    20    19    1
    29    11    18    1
    30    11    12    1
    31    18    16    1
    32    19    17    1
    33    19    15    1
    34    17    16    1
    35    12    13    1
    36    16    14    1
    37    15    13    1
    38    13    14    1
