@<TRIPOS>MOLECULE
51372_out_ligand_01.pdbqt
 35 38 0 0 0
SMALL
GASTEIGER

@<TRIPOS>ATOM
      1  C         21.6820  -23.3710   -9.9030 C.2     1  UNL1        0.0340
      2  C         21.1980  -24.0740   -8.7980 C.2     1  UNL1        0.0310
      3  C         19.8470  -23.9930   -8.4390 C.2     1  UNL1        0.0270
      4  C         18.9750  -23.2100   -9.1990 C.2     1  UNL1        0.0800
      5  C         19.4490  -22.4870  -10.2920 C.2     1  UNL1        0.0270
      6  C         20.7990  -22.5740  -10.6430 C.2     1  UNL1        0.0310
      7  N         23.0240  -23.4000  -10.3290 N.am    1  UNL1       -0.3270
      8  C         23.9640  -22.3840  -10.2620 C.2     1  UNL1        0.2310
      9  O         23.7780  -21.2530   -9.8220 O.2     1  UNL1       -0.2720
     10  H         23.3720  -24.2940  -10.6590 H       1  UNL1        0.1690
     11  C         25.3090  -22.7770  -10.8570 C.3     1  UNL1        0.1820
     12  S         25.8420  -21.5880  -12.1390 S.3     1  UNL1       -0.1200
     13  C         25.5230  -22.5970  -13.5970 C.2     1  UNL1        0.0130
     14  C         25.4530  -23.9750  -13.3110 C.2     1  UNL1        0.0190
     15  C         25.2420  -24.9010  -14.3180 C.2     1  UNL1        0.0020
     16  C         25.0940  -24.4620  -15.6250 C.2     1  UNL1        0.0120
     17  C         25.1400  -23.0970  -15.9480 C.2     1  UNL1       -0.0230
     18  C         24.9730  -22.7530  -17.2990 C.2     1  UNL1        0.0120
     19  C         25.3490  -22.1020  -14.9440 C.2     1  UNL1        0.0130
     20  C         24.9940  -21.4310  -17.7190 C.2     1  UNL1        0.0030
     21  C         25.1820  -20.4290  -16.7820 C.2     1  UNL1        0.0250
     22  C         25.3550  -20.7450  -15.4240 C.2     1  UNL1        0.0460
     23 CL         25.5600  -19.3470  -14.4140 Cl      1  UNL1       -0.0830
     24  S         17.2720  -23.0760   -8.7210 S.O2    1  UNL1        0.2640
     25  O         16.4280  -23.3800   -9.8540 O.2     1  UNL1       -0.2000
     26  O         17.1250  -21.8210   -8.0110 O.2     1  UNL1       -0.2000
     27  N         17.0940  -24.2560   -7.5580 N.pl3   1  UNL1       -0.2680
     28  H         17.4340  -25.1540   -7.8860 H       1  UNL1        0.1800
     29  C         16.6100  -24.0940   -6.2540 C.2     1  UNL1        0.1080
     30  N         15.3480  -24.0490   -6.0400 N.2     1  UNL1       -0.2760
     31  C         14.8550  -23.8730   -4.6790 C.3     1  UNL1        0.1510
     32  C         15.1630  -22.4750   -4.1500 C.3     1  UNL1        0.0220
     33  C         16.5750  -22.3350   -3.5840 C.3     1  UNL1        0.0020
     34  C         17.6920  -22.5740   -4.5990 C.3     1  UNL1        0.0080
     35  C         17.6760  -23.9800   -5.1880 C.3     1  UNL1        0.0790
@<TRIPOS>BOND
     1    20    18    2
     2    20    21    1
     3    18    17    1
     4    21    22    2
     5    17    16    2
     6    17    19    1
     7    16    15    1
     8    22    19    1
     9    22    23    1
    10    19    13    2
    11    15    14    2
    12    13    14    1
    13    13    12    1
    14    12    11    1
    15    11     8    1
    16    10     7    1
    17     6     5    1
    18     6     1    2
    19     7     8   am
    20     7     1    1
    21     5     4    2
    22     8     9    2
    23     1     2    1
    24    25    24    2
    25     4    24    1
    26     4     3    1
    27     2     3    2
    28    24    26    2
    29    24    27    1
    30    28    27    1
    31    27    29    1
    32    29    30    2
    33    29    35    1
    34    30    31    1
    35    35    34    1
    36    31    32    1
    37    34    33    1
    38    32    33    1
