@<TRIPOS>MOLECULE
51388_out_ligand_01.pdbqt
 38 41 0 0 0
SMALL
GASTEIGER

@<TRIPOS>ATOM
      1  C         16.8450  -22.9160   -8.9290 C.2     1  UNL1        0.0820
      2  C         15.9380  -22.0670   -9.5670 C.2     1  UNL1        0.0250
      3  C         16.3400  -21.3770  -10.7070 C.2     1  UNL1        0.0040
      4  C         17.6400  -21.5380  -11.1990 C.2     1  UNL1        0.0290
      5  C         18.5540  -22.3880  -10.5590 C.2     1  UNL1        0.0360
      6  C         18.1430  -23.0900   -9.4270 C.2     1  UNL1        0.0540
      7  N         19.8480  -22.4830  -11.1170 N.am    1  UNL1       -0.3230
      8  C         20.6180  -21.4510  -11.6180 C.2     1  UNL1        0.2560
      9  O         20.3190  -20.2670  -11.6700 O.2     1  UNL1       -0.2670
     10  H         20.2430  -23.4130  -11.1410 H       1  UNL1        0.1690
     11  C         21.9550  -21.8540  -12.1390 C.2     1  UNL1        0.0320
     12  C         22.5040  -21.2800  -13.2940 C.2     1  UNL1        0.0180
     13  C         23.7740  -21.6710  -13.7310 C.2     1  UNL1        0.0260
     14  C         24.4870  -22.6430  -13.0180 C.2     1  UNL1        0.0790
     15  C         23.9610  -23.1930  -11.8460 C.2     1  UNL1        0.0260
     16  C         22.6940  -22.7980  -11.4100 C.2     1  UNL1        0.0180
     17  S         26.1340  -23.0890  -13.5440 S.O2    1  UNL1        0.2600
     18  O         27.0010  -21.9820  -13.1990 O.2     1  UNL1       -0.2000
     19  O         26.3980  -24.4280  -13.0640 O.2     1  UNL1       -0.2000
     20  N         25.9890  -23.1490  -15.2300 N.3     1  UNL1       -0.3070
     21  C         25.0830  -24.1580  -15.8240 C.3     1  UNL1        0.1350
     22  C         24.1530  -23.5340  -16.8590 C.3     1  UNL1        0.0210
     23  C         24.9240  -22.8270  -17.9730 C.3     1  UNL1        0.0030
     24  C         26.2250  -22.1990  -17.4820 C.3     1  UNL1        0.0210
     25  C         26.1810  -21.8960  -15.9880 C.3     1  UNL1        0.1350
     26  S         16.3200  -23.8440   -7.5030 S.O2    1  UNL1        0.2630
     27  O         15.9180  -25.1610   -7.9440 O.2     1  UNL1       -0.2000
     28  O         15.4050  -23.0030   -6.7580 O.2     1  UNL1       -0.2000
     29  N         17.7150  -23.9580   -6.5650 N.pl3   1  UNL1       -0.2780
     30  H         17.7970  -24.8820   -6.1370 H       1  UNL1        0.1790
     31  C         18.0790  -22.8870   -5.6880 C.2     1  UNL1        0.0750
     32  C         18.7940  -21.7780   -6.1400 C.2     1  UNL1        0.0330
     33  C         19.1270  -20.7580   -5.2490 C.2     1  UNL1        0.0020
     34  C         18.7640  -20.8560   -3.9050 C.2     1  UNL1        0.0030
     35  C         18.0710  -21.9780   -3.4420 C.2     1  UNL1        0.0390
     36  C         17.7360  -23.0040   -4.3270 C.2     1  UNL1        0.0950
     37  O         17.0460  -24.1440   -3.9820 O.2     1  UNL1       -0.3540
     38  C         15.8660  -23.9480   -3.2080 C.3     1  UNL1        0.2100
@<TRIPOS>BOND
     1    23    24    1
     2    23    22    1
     3    24    25    1
     4    22    21    1
     5    25    20    1
     6    21    20    1
     7    20    17    1
     8    13    12    1
     9    13    14    2
    10    17    18    2
    11    17    19    2
    12    17    14    1
    13    12    11    2
    14    14    15    1
    15    11     8    1
    16    11    16    1
    17    15    16    2
    18     9     8    2
    19     8     7   am
    20     4     3    2
    21     4     5    1
    22    10     7    1
    23     7     5    1
    24     3     2    1
    25     5     6    2
    26     2     1    2
    27     6     1    1
    28     1    26    1
    29    27    26    2
    30    26    28    2
    31    26    29    1
    32    29    30    1
    33    29    31    1
    34    32    31    2
    35    32    33    1
    36    31    36    1
    37    33    34    2
    38    36    37    1
    39    36    35    2
    40    37    38    1
    41    34    35    1
