@<TRIPOS>MOLECULE
51386_out_ligand_01.pdbqt
 39 43 0 0 0
SMALL
GASTEIGER

@<TRIPOS>ATOM
      1  C         20.0500  -21.8300  -11.2590 C.2     1  UNL1        0.0320
      2  C         20.8420  -21.4270  -12.3440 C.2     1  UNL1        0.0190
      3  C         22.1760  -21.8420  -12.4340 C.2     1  UNL1        0.0310
      4  C         22.7170  -22.6670  -11.4500 C.2     1  UNL1        0.0420
      5  C         21.9360  -23.0880  -10.3760 C.2     1  UNL1        0.0310
      6  C         20.6050  -22.6700  -10.2820 C.2     1  UNL1        0.0190
      7  N         24.0560  -23.1280  -11.5550 N.pl3   1  UNL1       -0.2810
      8  H         24.2680  -24.0500  -11.1760 H       1  UNL1        0.1790
      9  S         25.2990  -22.0340  -11.2070 S.O2    1  UNL1        0.2630
     10  O         26.4570  -22.8360  -10.8750 O.2     1  UNL1       -0.2000
     11  O         24.8090  -21.0210  -10.2970 O.2     1  UNL1       -0.2000
     12  C         25.6060  -21.2860  -12.7880 C.2     1  UNL1        0.0820
     13  C         25.4750  -22.0740  -13.9600 C.2     1  UNL1        0.0280
     14  C         25.7140  -21.5190  -15.2210 C.2     1  UNL1        0.0330
     15  C         26.0820  -20.1940  -15.2510 C.ar    1  UNL1        0.0630
     16  N         26.3760  -19.3800  -16.3390 N.ar    1  UNL1       -0.3070
     17  C         26.2210  -19.4280  -14.0940 C.ar    1  UNL1        0.0640
     18  C         26.7010  -18.0990  -15.8700 C.ar    1  UNL1        0.3250
     19  H         26.3700  -19.6310  -17.3140 H       1  UNL1        0.1700
     20  O         27.0100  -17.1350  -16.5470 O.2     1  UNL1       -0.2470
     21  N         26.5990  -18.1450  -14.4720 N.ar    1  UNL1       -0.3060
     22  H         26.7760  -17.3540  -13.8730 H       1  UNL1        0.1700
     23  C         25.9970  -19.9400  -12.8400 C.2     1  UNL1        0.0570
     24  C         18.6200  -21.4350  -11.1030 C.2     1  UNL1        0.2510
     25  O         18.2170  -20.3900  -11.6050 O.2     1  UNL1       -0.2680
     26  N         17.8000  -22.2930  -10.4000 N.am    1  UNL1       -0.3570
     27  H         18.1940  -23.0860   -9.9160 H       1  UNL1        0.1620
     28  C         16.4460  -21.9090  -10.0400 C.3     1  UNL1        0.1270
     29  C         15.6760  -23.0380   -9.3480 C.3     1  UNL1        0.0580
     30  C         16.1720  -23.3320   -7.9490 C.2     1  UNL1       -0.0540
     31  C         17.1030  -24.3580   -7.7260 C.2     1  UNL1        0.0100
     32  C         17.5870  -24.6100   -6.4400 C.2     1  UNL1        0.0400
     33  C         17.1430  -23.8400   -5.3680 C.2     1  UNL1        0.1020
     34  C         16.1900  -22.8400   -5.5740 C.2     1  UNL1        0.1020
     35  O         17.6800  -24.1280   -4.1390 O.2     1  UNL1       -0.3460
     36  C         15.7170  -22.5770   -6.8580 C.2     1  UNL1        0.0460
     37  O         15.6810  -22.0680   -4.5600 O.2     1  UNL1       -0.3460
     38  C         15.9580  -22.6440   -3.2790 C.3     1  UNL1        0.2020
     39  C         17.4110  -23.0850   -3.1950 C.3     1  UNL1        0.2020
@<TRIPOS>BOND
     1    19    16    1
     2    20    18    2
     3    16    18   ar
     4    16    15   ar
     5    18    21   ar
     6    15    14    2
     7    15    17   ar
     8    14    13    1
     9    21    17   ar
    10    21    22    1
    11    17    23    2
    12    13    12    2
    13    23    12    1
    14    12     9    1
    15     3     2    1
    16     3     4    2
    17     2     1    2
    18    25    24    2
    19     7     4    1
    20     7     9    1
    21     7     8    1
    22     4     5    1
    23     1    24    1
    24     1     6    1
    25     9    10    2
    26     9    11    2
    27    24    26   am
    28    26    28    1
    29    26    27    1
    30     5     6    2
    31    28    29    1
    32    29    30    1
    33    30    31    2
    34    30    36    1
    35    31    32    1
    36    36    34    2
    37    32    33    2
    38    34    33    1
    39    34    37    1
    40    33    35    1
    41    37    38    1
    42    35    39    1
    43    38    39    1
