@<TRIPOS>MOLECULE
5138_out_ligand_01.pdbqt
 32 35 0 0 0
SMALL
GASTEIGER

@<TRIPOS>ATOM
      1  C         18.6610  -23.2130   -8.8960 C.2     1  UNL1        0.0800
      2  C         18.9820  -22.3410   -9.9390 C.2     1  UNL1        0.0270
      3  C         20.2860  -22.3170  -10.4460 C.2     1  UNL1        0.0310
      4  C         21.2710  -23.1510   -9.9110 C.2     1  UNL1        0.0340
      5  C         20.9370  -24.0100   -8.8530 C.2     1  UNL1        0.0310
      6  C         19.6360  -24.0430   -8.3420 C.2     1  UNL1        0.0270
      7  N         22.6030  -23.1860  -10.3620 N.am    1  UNL1       -0.3250
      8  C         23.5890  -22.2250  -10.1960 C.2     1  UNL1        0.2540
      9  O         23.4750  -21.1670   -9.5850 O.2     1  UNL1       -0.2700
     10  H         22.8710  -23.9800  -10.9350 H       1  UNL1        0.1690
     11  C         24.9390  -22.6660  -10.7990 C.3     1  UNL1        0.2450
     12  C         25.9550  -21.5310  -10.7920 C.3     1  UNL1        0.2180
     13  O         25.6240  -20.5080  -11.7390 O.2     1  UNL1       -0.3450
     14  C         25.2460  -21.0340  -12.9430 C.2     1  UNL1        0.1020
     15  C         25.2250  -20.1600  -14.0290 C.2     1  UNL1        0.0390
     16  C         24.8790  -22.3700  -13.1150 C.2     1  UNL1        0.1030
     17  C         24.8680  -20.6290  -15.2940 C.2     1  UNL1        0.0030
     18  C         24.5300  -21.9710  -15.4710 C.2     1  UNL1        0.0030
     19  C         24.5350  -22.8430  -14.3810 C.2     1  UNL1        0.0400
     20  O         24.8240  -23.2760  -12.0890 O.2     1  UNL1       -0.3310
     21  S         17.0080  -23.2240   -8.2490 S.O2    1  UNL1        0.2760
     22  O         16.2010  -23.9540   -9.2070 O.2     1  UNL1       -0.2000
     23  O         16.6340  -21.8780   -7.8660 O.2     1  UNL1       -0.2000
     24  N         17.1100  -24.1920   -6.9050 N.pl3   1  UNL1       -0.1090
     25  H         16.6950  -25.1080   -7.0220 H       1  UNL1        0.1980
     26  C         16.8370  -23.6120   -5.6740 C.cat   1  UNL1        0.7360
     27  N         15.7400  -24.1030   -5.0910 N.2     1  UNL1       -0.0740
     28  C         15.5230  -23.6810   -3.8330 C.2     1  UNL1        0.1380
     29  C         16.3760  -22.8400   -3.1540 C.2     1  UNL1        0.0470
     30  C         17.5070  -22.4390   -3.8390 C.2     1  UNL1        0.0510
     31  C         18.5120  -21.5420   -3.1840 C.3     1  UNL1        0.0710
     32  N         17.7610  -22.8380   -5.1010 N.2     1  UNL1       -0.0670
@<TRIPOS>BOND
     1    18    17    2
     2    18    19    1
     3    17    15    1
     4    19    16    2
     5    15    14    2
     6    16    14    1
     7    16    20    1
     8    14    13    1
     9    20    11    1
    10    13    12    1
    11    10     7    1
    12    11    12    1
    13    11     8    1
    14     3     2    1
    15     3     4    2
    16     7     8   am
    17     7     4    1
    18     8     9    2
    19     2     1    2
    20     4     5    1
    21    22    21    2
    22     1     6    1
    23     1    21    1
    24     5     6    2
    25    21    23    2
    26    21    24    1
    27    25    24    1
    28    24    26    1
    29    26    32    1
    30    26    27    2
    31    32    30    2
    32    27    28    1
    33    30    31    1
    34    30    29    1
    35    28    29    2
