@<TRIPOS>MOLECULE
513_out_ligand_01.pdbqt
 40 43 0 0 0
SMALL
GASTEIGER

@<TRIPOS>ATOM
      1  C         17.3110  -22.6200   -9.3550 C.2     1  UNL1        0.0750
      2  C         16.6860  -21.7750  -10.2780 C.2     1  UNL1        0.0250
      3  C         17.4340  -21.2010  -11.3060 C.2     1  UNL1        0.0030
      4  C         18.8010  -21.4730  -11.4140 C.2     1  UNL1        0.0170
      5  C         19.4160  -22.3400  -10.5010 C.2     1  UNL1        0.0330
      6  C         18.6710  -22.9250   -9.4740 C.2     1  UNL1        0.0410
      7  C         20.8760  -22.6160  -10.5610 C.2     1  UNL1        0.2560
      8  O         21.3110  -23.5330   -9.8740 O.2     1  UNL1       -0.2670
      9  N         21.5840  -21.7950  -11.4150 N.am    1  UNL1       -0.3230
     10  H         21.0500  -21.1390  -11.9720 H       1  UNL1        0.1690
     11  C         22.9710  -21.8160  -11.6700 C.2     1  UNL1        0.0360
     12  C         23.9510  -21.7040  -10.6790 C.2     1  UNL1        0.0290
     13  C         25.3110  -21.7430  -11.0100 C.2     1  UNL1        0.0040
     14  C         25.7060  -21.8850  -12.3370 C.2     1  UNL1        0.0250
     15  C         24.7300  -21.9780  -13.3300 C.2     1  UNL1        0.0820
     16  C         23.3700  -21.9590  -13.0010 C.2     1  UNL1        0.0540
     17  S         25.2160  -22.1940  -15.0200 S.O2    1  UNL1        0.2640
     18  O         25.7600  -23.5320  -15.1470 O.2     1  UNL1       -0.2000
     19  O         24.1500  -21.7460  -15.8880 O.2     1  UNL1       -0.2000
     20  N         26.5250  -21.1760  -15.1790 N.3     1  UNL1       -0.2680
     21  H         27.4010  -21.6510  -14.9810 H       1  UNL1        0.1800
     22  C         26.5010  -19.8410  -15.5610 C.3     1  UNL1        0.1080
     23  N         26.5530  -19.4310  -16.7850 N.3     1  UNL1       -0.2760
     24  C         26.4690  -17.9580  -16.6990 C.3     1  UNL1        0.1510
     25  C         26.8580  -17.6060  -15.2740 C.3     1  UNL1        0.0290
     26  C         26.3680  -18.8030  -14.4950 C.3     1  UNL1        0.0800
     27  S         16.3590  -23.3480   -8.0370 S.O2    1  UNL1        0.2460
     28  O         15.6610  -24.4920   -8.5810 O.2     1  UNL1       -0.2060
     29  O         15.6390  -22.2720   -7.3860 O.2     1  UNL1       -0.2060
     30  N         17.5380  -23.8670   -6.9340 N.pl3   1  UNL1       -0.1790
     31  H         17.3330  -24.8220   -6.6310 H       1  UNL1        0.1460
     32  C         17.8560  -22.9910   -5.8440 C.2     1  UNL1        0.0570
     33  C         18.7130  -21.9080   -6.0490 C.2     1  UNL1        0.0510
     34  C         18.9560  -21.0270   -5.0010 C.2     1  UNL1        0.0350
     35  C         18.3490  -21.2170   -3.7600 C.2     1  UNL1        0.0260
     36 CL         20.0130  -19.6890   -5.2360 Cl      1  UNL1       -0.0840
     37  C         17.4900  -22.3030   -3.5550 C.2     1  UNL1        0.0400
     38  C         17.2370  -23.1970   -4.5960 C.2     1  UNL1        0.0900
     39  O         16.4100  -24.2930   -4.5230 O.2     1  UNL1       -0.3540
     40  C         15.0130  -24.0330   -4.4330 C.3     1  UNL1        0.2100
@<TRIPOS>BOND
     1    23    24    1
     2    23    22    1
     3    24    25    1
     4    19    17    2
     5    22    20    1
     6    22    26    1
     7    25    26    1
     8    20    17    1
     9    20    21    1
    10    18    17    2
    11    17    15    1
    12    15    16    1
    13    15    14    2
    14    16    11    2
    15    14    13    1
    16    10     9    1
    17    11     9    1
    18    11    12    1
    19     9     7   am
    20     4     3    2
    21     4     5    1
    22     3     2    1
    23    13    12    2
    24     7     5    1
    25     7     8    2
    26     5     6    2
    27     2     1    2
    28     6     1    1
    29     1    27    1
    30    28    27    2
    31    27    29    2
    32    27    30    1
    33    30    31    1
    34    30    32    1
    35    33    32    2
    36    33    34    1
    37    32    38    1
    38    36    34    1
    39    34    35    2
    40    38    39    1
    41    38    37    2
    42    39    40    1
    43    35    37    1
