@<TRIPOS>MOLECULE
51404_out_ligand_01.pdbqt
 40 44 0 0 0
SMALL
GASTEIGER

@<TRIPOS>ATOM
      1  C         20.3870  -22.2650  -10.5790 C.2     1  UNL1        0.0840
      2  C         21.1260  -22.1080  -11.7590 C.2     1  UNL1        0.0380
      3  C         22.5060  -22.3270  -11.7790 C.2     1  UNL1        0.0110
      4  C         23.1820  -22.7130  -10.6190 C.2     1  UNL1       -0.0390
      5  C         22.4500  -22.8560   -9.4330 C.2     1  UNL1        0.0280
      6  C         21.0570  -22.6460   -9.3960 C.2     1  UNL1        0.0660
      7  C         20.3910  -22.8450   -8.0580 C.2     1  UNL1        0.2590
      8  O         20.2810  -23.9880   -7.6220 O.2     1  UNL1       -0.2670
      9  N         19.9600  -21.7070   -7.4050 N.am    1  UNL1       -0.3230
     10  H         20.2250  -20.8270   -7.8370 H       1  UNL1        0.1690
     11  C         19.2880  -21.6210   -6.1710 C.2     1  UNL1        0.0360
     12  C         19.6090  -20.5360   -5.3420 C.2     1  UNL1        0.0290
     13  C         19.0110  -20.3910   -4.0870 C.2     1  UNL1        0.0040
     14  C         18.0840  -21.3310   -3.6470 C.2     1  UNL1        0.0250
     15  C         17.7550  -22.4080   -4.4750 C.2     1  UNL1        0.0760
     16  C         18.3340  -22.5430   -5.7410 C.2     1  UNL1        0.0540
     17  S         16.5390  -23.5850   -3.9360 S.O2    1  UNL1        0.2430
     18  O         15.5350  -22.8990   -3.1530 O.2     1  UNL1       -0.2060
     19  O         17.2480  -24.7230   -3.3870 O.2     1  UNL1       -0.2060
     20  N         15.8130  -24.0900   -5.3970 N.3     1  UNL1       -0.2020
     21  C         16.7650  -24.5770   -6.4550 C.3     1  UNL1        0.1340
     22  C         16.0840  -24.5780   -7.8280 C.3     1  UNL1        0.1830
     23  O         15.6800  -23.2720   -8.2640 O.3     1  UNL1       -0.3890
     24  C         15.3970  -22.3780   -7.1770 C.3     1  UNL1        0.1830
     25  C         14.8290  -23.0960   -5.9500 C.3     1  UNL1        0.1340
     26  O         19.0310  -22.0580  -10.5080 O.2     1  UNL1       -0.3500
     27  C         18.4350  -21.1560  -11.4420 C.3     1  UNL1        0.1710
     28  C         16.9660  -21.0220  -11.0810 C.3     1  UNL1        0.0340
     29  C         24.6780  -22.9280  -10.6350 C.3     1  UNL1        0.1740
     30  N         25.2650  -22.4780  -11.8760 N.am    1  UNL1       -0.2760
     31  C         25.7110  -21.2030  -12.0910 C.2     1  UNL1        0.2620
     32  O         25.7360  -20.2570  -11.3270 O.2     1  UNL1       -0.2670
     33  C         26.1950  -21.1610  -13.4690 C.2     1  UNL1        0.0480
     34  C         26.7420  -20.1210  -14.1940 C.2     1  UNL1        0.0180
     35  C         26.0230  -22.4220  -14.0110 C.2     1  UNL1        0.0480
     36  C         27.1210  -20.3930  -15.5140 C.2     1  UNL1        0.0010
     37  C         26.9470  -21.6790  -16.0660 C.2     1  UNL1        0.0010
     38  C         26.3910  -22.7170  -15.3100 C.2     1  UNL1        0.0180
     39  C         25.4240  -23.2680  -12.9800 C.2     1  UNL1        0.2620
     40  O         25.1480  -24.4430  -13.1330 O.2     1  UNL1       -0.2670
@<TRIPOS>BOND
     1    37    36    2
     2    37    38    1
     3    36    34    1
     4    38    35    2
     5    34    33    2
     6    35    33    1
     7    35    39    1
     8    33    31    1
     9    40    39    2
    10    39    30   am
    11    31    30   am
    12    31    32    2
    13    30    29    1
    14     3     2    1
    15     3     4    2
    16     2     1    2
    17    27    28    1
    18    27    26    1
    19    29     4    1
    20     4     5    1
    21     1    26    1
    22     1     6    1
    23     5     6    2
    24     6     7    1
    25    23    22    1
    26    23    24    1
    27     7     8    2
    28     7     9   am
    29    10     9    1
    30    22    21    1
    31     9    11    1
    32    24    25    1
    33    21    20    1
    34    11    16    2
    35    11    12    1
    36    25    20    1
    37    16    15    1
    38    20    17    1
    39    12    13    2
    40    15    17    1
    41    15    14    2
    42    13    14    1
    43    17    19    2
    44    17    18    2
