@<TRIPOS>MOLECULE
51413_out_ligand_01.pdbqt
 28 30 0 0 0
SMALL
GASTEIGER

@<TRIPOS>ATOM
      1  N         19.9080  -22.8380   -9.3430 N.am    1  UNL1       -0.3260
      2  C         20.1210  -22.6780   -7.9740 C.2     1  UNL1        0.2350
      3  O         21.1290  -22.1840   -7.4770 O.2     1  UNL1       -0.2720
      4  H         18.9860  -23.1580   -9.6190 H       1  UNL1        0.1690
      5  C         18.9370  -23.2190   -7.1330 C.3     1  UNL1        0.1440
      6  C         17.6470  -23.3600   -7.9430 C.2     1  UNL1       -0.0410
      7  C         17.2750  -22.4140   -8.9120 C.2     1  UNL1        0.0080
      8  C         16.0950  -22.5680   -9.6400 C.2     1  UNL1        0.0010
      9  C         15.2650  -23.6610   -9.4020 C.2     1  UNL1        0.0000
     10  C         15.6110  -24.6000   -8.4330 C.2     1  UNL1        0.0010
     11  C         16.7920  -24.4500   -7.7040 C.2     1  UNL1        0.0080
     12  C         18.7050  -22.4900   -5.8110 C.2     1  UNL1       -0.0410
     13  C         19.0740  -21.1470   -5.6310 C.2     1  UNL1        0.0080
     14  C         18.8280  -20.4940   -4.4230 C.2     1  UNL1        0.0010
     15  C         18.2040  -21.1690   -3.3770 C.2     1  UNL1        0.0000
     16  C         17.8250  -22.4990   -3.5390 C.2     1  UNL1        0.0010
     17  C         18.0720  -23.1550   -4.7470 C.2     1  UNL1        0.0080
     18  C         20.7840  -22.5100  -10.3980 C.2     1  UNL1        0.0340
     19  C         22.0990  -22.9720  -10.4960 C.2     1  UNL1        0.0300
     20  C         22.9060  -22.6030  -11.5810 C.2     1  UNL1        0.0190
     21  C         22.4060  -21.7610  -12.5790 C.2     1  UNL1        0.0320
     22  C         21.0840  -21.3120  -12.4940 C.2     1  UNL1        0.0190
     23  C         20.2810  -21.6830  -11.4100 C.2     1  UNL1        0.0300
     24  C         23.2200  -21.3390  -13.7500 C.2     1  UNL1        0.2490
     25  N         22.7630  -20.2880  -14.4940 N.am    1  UNL1       -0.3660
     26  H         21.8090  -19.9620  -14.4400 H       1  UNL1        0.1590
     27  H         23.2680  -20.1030  -15.3520 H       1  UNL1        0.1590
     28  O         24.2470  -21.9280  -14.0630 O.2     1  UNL1       -0.2680
@<TRIPOS>BOND
     1    27    25    1
     2    25    26    1
     3    25    24   am
     4    28    24    2
     5    24    21    1
     6    21    22    2
     7    21    20    1
     8    22    23    1
     9    20    19    2
    10    23    18    2
    11    19    18    1
    12    18     1    1
    13     8     9    2
    14     8     7    1
    15     4     1    1
    16     9    10    1
    17     1     2   am
    18     7     6    2
    19    10    11    2
    20     2     3    2
    21     2     5    1
    22     6    11    1
    23     6     5    1
    24     5    12    1
    25    12    13    2
    26    12    17    1
    27    13    14    1
    28    17    16    2
    29    14    15    2
    30    16    15    1
