@<TRIPOS>MOLECULE
51426_out_ligand_01.pdbqt
 28 31 0 0 0
SMALL
GASTEIGER

@<TRIPOS>ATOM
      1  N         21.8080  -23.0060  -10.4530 N.am    1  UNL1       -0.3270
      2  C         21.8020  -22.4890   -9.1680 C.2     1  UNL1        0.2260
      3  O         22.4000  -21.4830   -8.7910 O.2     1  UNL1       -0.2730
      4  H         21.3200  -23.8840  -10.5890 H       1  UNL1        0.1690
      5  C         20.9070  -23.2540   -8.1990 C.3     1  UNL1        0.1440
      6  C         19.4510  -23.1220   -8.5000 C.2     1  UNL1       -0.0140
      7  C         18.8560  -23.1970   -9.7450 C.2     1  UNL1        0.1510
      8  O         17.5120  -23.0460   -9.6530 O.2     1  UNL1       -0.3210
      9  C         17.2180  -22.8540   -8.3380 C.2     1  UNL1        0.0860
     10  C         15.9350  -22.6510   -7.8270 C.2     1  UNL1        0.0450
     11  C         18.3850  -22.8850   -7.5760 C.2     1  UNL1        0.0070
     12  C         15.8750  -22.4850   -6.4490 C.2     1  UNL1       -0.0490
     13  C         17.0230  -22.5090   -5.6470 C.2     1  UNL1       -0.0510
     14  C         14.6550  -22.2150   -5.6220 C.3     1  UNL1        0.0390
     15  C         18.2940  -22.7000   -6.1810 C.2     1  UNL1        0.0220
     16  C         16.6720  -22.2580   -4.2110 C.3     1  UNL1        0.0390
     17  C         15.1660  -22.5550   -4.2150 C.3     1  UNL1        0.0090
     18  C         22.4970  -22.5110  -11.5790 C.2     1  UNL1        0.0340
     19  C         23.8220  -22.8240  -11.8850 C.2     1  UNL1        0.0300
     20  C         24.4380  -22.2870  -13.0250 C.2     1  UNL1        0.0190
     21  C         23.7280  -21.4340  -13.8740 C.2     1  UNL1        0.0320
     22  C         22.4060  -21.1040  -13.5610 C.2     1  UNL1        0.0190
     23  C         21.7960  -21.6410  -12.4230 C.2     1  UNL1        0.0300
     24  C         24.3360  -20.8380  -15.0940 C.2     1  UNL1        0.2490
     25  N         25.0550  -19.6860  -14.9470 N.am    1  UNL1       -0.3660
     26  H         25.5580  -19.3720  -15.7680 H       1  UNL1        0.1590
     27  H         25.3930  -19.3710  -14.0490 H       1  UNL1        0.1590
     28  O         24.2280  -21.3730  -16.1910 O.2     1  UNL1       -0.2680
@<TRIPOS>BOND
     1    28    24    2
     2    26    25    1
     3    24    25   am
     4    24    21    1
     5    25    27    1
     6    21    22    2
     7    21    20    1
     8    22    23    1
     9    20    19    2
    10    23    18    2
    11    19    18    1
    12    18     1    1
    13     4     1    1
    14     1     2   am
    15     7     8    1
    16     7     6    2
    17     8     9    1
    18     2     3    2
    19     2     5    1
    20     6     5    1
    21     6    11    1
    22     9    10    2
    23     9    11    1
    24    10    12    1
    25    11    15    2
    26    12    13    2
    27    12    14    1
    28    15    13    1
    29    13    16    1
    30    14    17    1
    31    17    16    1
