@<TRIPOS>MOLECULE
51448_out_ligand_01.pdbqt
 37 41 0 0 0
SMALL
GASTEIGER

@<TRIPOS>ATOM
      1  C         18.8220  -22.2460  -10.7080 C.2     1  UNL1        0.0840
      2  C         17.4330  -22.1420  -10.5320 C.2     1  UNL1        0.0390
      3  C         16.7930  -22.7930   -9.4740 C.2     1  UNL1        0.0270
      4  C         17.5440  -23.5540   -8.5800 C.2     1  UNL1        0.0760
      5  C         18.9270  -23.6550   -8.7220 C.2     1  UNL1        0.0440
      6  C         19.5810  -23.0110   -9.7900 C.2     1  UNL1        0.0670
      7  C         21.0720  -23.2180   -9.8700 C.2     1  UNL1        0.2590
      8  O         21.5720  -24.0840   -9.1600 O.2     1  UNL1       -0.2670
      9  N         21.7610  -22.4060  -10.7480 N.am    1  UNL1       -0.3230
     10  H         21.1920  -21.7700  -11.2970 H       1  UNL1        0.1690
     11  C         23.1460  -22.3750  -11.0060 C.2     1  UNL1        0.0370
     12  C         24.0750  -21.6890  -10.2210 C.2     1  UNL1        0.0290
     13  C         25.4330  -21.6980  -10.5550 C.2     1  UNL1        0.0050
     14  C         25.8780  -22.4000  -11.6730 C.2     1  UNL1        0.0370
     15  C         24.9580  -23.1070  -12.4470 C.2     1  UNL1        0.0780
     16  C         23.5990  -23.0770  -12.1300 C.2     1  UNL1        0.0660
     17  O         25.3180  -23.7960  -13.5820 O.2     1  UNL1       -0.3110
     18  C         25.1330  -23.1650  -14.7930 C.2     1  UNL1        0.0760
     19  C         25.3890  -21.8050  -14.9880 C.2     1  UNL1        0.0370
     20  C         25.2110  -21.2420  -16.2530 C.2     1  UNL1        0.0030
     21  C         24.7940  -22.0380  -17.3210 C.2     1  UNL1        0.0000
     22  C         24.5620  -23.4000  -17.1290 C.2     1  UNL1        0.0030
     23  C         24.7400  -23.9660  -15.8660 C.2     1  UNL1        0.0370
     24  O         19.4940  -21.6320  -11.7360 O.2     1  UNL1       -0.3550
     25  C         19.5610  -20.2080  -11.7350 C.3     1  UNL1        0.2100
     26  S         16.7100  -24.3590   -7.2250 S.O2    1  UNL1        0.2480
     27  O         15.5860  -25.0950   -7.7660 O.2     1  UNL1       -0.2050
     28  O         17.7430  -25.0240   -6.4580 O.2     1  UNL1       -0.2050
     29  N         16.1080  -23.0170   -6.3550 N.pl3   1  UNL1       -0.1710
     30  C         14.9040  -23.2900   -5.4890 C.3     1  UNL1        0.1180
     31  C         15.3270  -23.0400   -4.0320 C.3     1  UNL1        0.0560
     32  C         16.6180  -22.3140   -4.1890 C.2     1  UNL1       -0.0350
     33  C         17.3750  -21.7000   -3.2030 C.2     1  UNL1        0.0090
     34  C         17.0640  -22.3660   -5.5070 C.2     1  UNL1        0.0310
     35  C         18.5870  -21.1110   -3.5680 C.2     1  UNL1        0.0010
     36  C         19.0260  -21.1480   -4.9020 C.2     1  UNL1        0.0020
     37  C         18.2570  -21.7770   -5.8850 C.2     1  UNL1        0.0250
@<TRIPOS>BOND
     1    21    22    2
     2    21    20    1
     3    22    23    1
     4    20    19    2
     5    23    18    2
     6    19    18    1
     7    18    17    1
     8    17    15    1
     9    15    16    1
    10    15    14    2
    11    16    11    2
    12    24    25    1
    13    24     1    1
    14    14    13    1
    15    10     9    1
    16    11     9    1
    17    11    12    1
    18     9     7   am
    19     1     2    2
    20     1     6    1
    21    13    12    2
    22     2     3    1
    23     7     6    1
    24     7     8    2
    25     6     5    2
    26     3     4    2
    27     5     4    1
    28     4    26    1
    29    27    26    2
    30    26    28    2
    31    26    29    1
    32    29    34    1
    33    29    30    1
    34    37    34    1
    35    37    36    2
    36    34    32    2
    37    30    31    1
    38    36    35    1
    39    32    31    1
    40    32    33    1
    41    35    33    2
