@<TRIPOS>MOLECULE
51441_out_ligand_01.pdbqt
 42 46 0 0 0
SMALL
GASTEIGER

@<TRIPOS>ATOM
      1  N         20.6150  -22.2600  -11.3660 N.am    1  UNL1       -0.3230
      2  C         19.6410  -21.2870  -11.1910 C.2     1  UNL1        0.2560
      3  O         19.7190  -20.1200  -11.5560 O.2     1  UNL1       -0.2670
      4  H         20.3520  -23.2220  -11.2070 H       1  UNL1        0.1690
      5  C         21.9360  -22.0590  -11.8310 C.2     1  UNL1        0.0350
      6  C         22.2400  -21.5330  -13.0910 C.2     1  UNL1        0.0310
      7  C         23.5690  -21.3210  -13.4720 C.2     1  UNL1        0.0270
      8  C         24.6020  -21.6540  -12.5920 C.2     1  UNL1        0.0800
      9  C         24.3180  -22.1700  -11.3260 C.2     1  UNL1        0.0270
     10  C         22.9850  -22.3670  -10.9490 C.2     1  UNL1        0.0310
     11  S         26.2820  -21.3190  -13.0640 S.O2    1  UNL1        0.2630
     12  O         27.1180  -21.4920  -11.8930 O.2     1  UNL1       -0.2000
     13  O         26.2800  -20.0700  -13.8000 O.2     1  UNL1       -0.2000
     14  N         26.6270  -22.5290  -14.1860 N.pl3   1  UNL1       -0.2780
     15  H         27.6360  -22.7080  -14.2470 H       1  UNL1        0.1790
     16  C         25.9550  -22.5080  -15.4460 C.2     1  UNL1        0.0750
     17  C         26.1860  -21.4530  -16.3290 C.2     1  UNL1        0.0330
     18  C         25.5210  -21.4090  -17.5560 C.2     1  UNL1        0.0020
     19  C         24.6330  -22.4250  -17.9000 C.2     1  UNL1        0.0030
     20  C         24.4200  -23.5000  -17.0320 C.2     1  UNL1        0.0390
     21  C         25.0940  -23.5600  -15.8070 C.2     1  UNL1        0.0950
     22  O         24.9490  -24.5810  -14.9000 O.2     1  UNL1       -0.3540
     23  C         25.8170  -25.6990  -15.1010 C.3     1  UNL1        0.2100
     24  C         18.3640  -21.7420  -10.5660 C.2     1  UNL1        0.0330
     25  C         17.1570  -21.2960  -11.1250 C.2     1  UNL1        0.0170
     26  C         15.9300  -21.6720  -10.5750 C.2     1  UNL1        0.0030
     27  C         15.8960  -22.5090   -9.4680 C.2     1  UNL1        0.0250
     28  C         17.0990  -22.9730   -8.9230 C.2     1  UNL1        0.0760
     29  C         18.3350  -22.5770   -9.4450 C.2     1  UNL1        0.0410
     30  S         17.0410  -24.1270   -7.5620 S.O2    1  UNL1        0.2480
     31  O         16.0940  -25.1620   -7.9240 O.2     1  UNL1       -0.2050
     32  O         18.4230  -24.4400   -7.2630 O.2     1  UNL1       -0.2050
     33  N         16.3150  -23.1720   -6.2900 N.pl3   1  UNL1       -0.1720
     34  C         15.2910  -23.9580   -5.5300 C.3     1  UNL1        0.1140
     35  C         14.8360  -23.2320   -4.2780 C.3     1  UNL1        0.0200
     36  C         16.0320  -23.0660   -3.3570 C.3     1  UNL1        0.0420
     37  C         17.1340  -22.3390   -4.0780 C.2     1  UNL1       -0.0360
     38  C         18.0600  -21.6080   -3.3130 C.2     1  UNL1        0.0090
     39  C         17.2600  -22.3920   -5.4800 C.2     1  UNL1        0.0310
     40  C         19.0670  -20.8720   -3.9260 C.2     1  UNL1        0.0010
     41  C         19.1420  -20.8400   -5.3130 C.2     1  UNL1        0.0020
     42  C         18.2340  -21.5800   -6.0770 C.2     1  UNL1        0.0250
@<TRIPOS>BOND
     1    19    18    2
     2    19    20    1
     3    18    17    1
     4    20    21    2
     5    17    16    2
     6    21    16    1
     7    21    22    1
     8    16    14    1
     9    23    22    1
    10    15    14    1
    11    14    11    1
    12    13    11    2
    13     7     6    1
    14     7     8    2
    15     6     5    2
    16    11     8    1
    17    11    12    2
    18     8     9    1
    19     5     1    1
    20     5    10    1
    21     3     2    2
    22     1     4    1
    23     1     2   am
    24     9    10    2
    25     2    24    1
    26    25    26    1
    27    25    24    2
    28    26    27    2
    29    24    29    1
    30    27    28    1
    31    29    28    2
    32    28    30    1
    33    31    30    2
    34    30    32    2
    35    30    33    1
    36    33    34    1
    37    33    39    1
    38    42    39    1
    39    42    41    2
    40    34    35    1
    41    39    37    2
    42    41    40    1
    43    35    36    1
    44    37    36    1
    45    37    38    1
    46    40    38    2
