@<TRIPOS>MOLECULE
51468_out_ligand_01.pdbqt
 40 43 0 0 0
SMALL
GASTEIGER

@<TRIPOS>ATOM
      1  C         17.6240  -22.8030   -9.2790 C.2     1  UNL1        0.0830
      2  C         18.9960  -22.6810   -9.5670 C.2     1  UNL1        0.0540
      3  C         19.4370  -21.9530  -10.6770 C.2     1  UNL1        0.0360
      4  C         18.4900  -21.3460  -11.4960 C.2     1  UNL1        0.0300
      5  C         17.1230  -21.4560  -11.2080 C.2     1  UNL1        0.0100
      6  C         16.6650  -22.1840  -10.0990 C.2     1  UNL1       -0.0390
      7  C         15.1860  -22.2200   -9.8360 C.3     1  UNL1        0.0500
      8  N         20.8320  -21.8720  -10.8770 N.am    1  UNL1       -0.3230
      9  C         21.7770  -22.8550  -10.6480 C.2     1  UNL1        0.2590
     10  O         21.5660  -23.9660  -10.1760 O.2     1  UNL1       -0.2670
     11  H         21.1660  -20.9860  -11.2400 H       1  UNL1        0.1690
     12  C         23.1860  -22.5200  -11.0190 C.2     1  UNL1        0.0720
     13  C         23.7500  -23.1540  -12.1390 C.2     1  UNL1        0.0450
     14  C         25.0760  -22.8930  -12.5000 C.2     1  UNL1        0.0800
     15  C         25.8420  -21.9720  -11.7790 C.2     1  UNL1        0.0280
     16  C         25.2830  -21.3350  -10.6700 C.2     1  UNL1        0.0450
     17  C         23.9680  -21.6140  -10.2970 C.2     1  UNL1        0.1320
     18  F         23.4720  -20.9760   -9.2240 F       1  UNL1       -0.2050
     19  S         25.7660  -23.6660  -13.9530 S.O2    1  UNL1        0.2610
     20  O         25.4820  -25.0830  -13.8550 O.2     1  UNL1       -0.2000
     21  O         27.1210  -23.1790  -14.0930 O.2     1  UNL1       -0.2000
     22  N         24.8380  -23.0350  -15.2120 N.3     1  UNL1       -0.3030
     23  C         24.9200  -23.7000  -16.5400 C.3     1  UNL1        0.1610
     24  C         24.1030  -22.9090  -17.5700 C.3     1  UNL1        0.1880
     25  O         24.5950  -21.5740  -17.7680 O.3     1  UNL1       -0.3880
     26  C         25.1850  -21.0000  -16.5930 C.3     1  UNL1        0.1880
     27  C         24.6260  -21.5640  -15.2810 C.3     1  UNL1        0.1610
     28  S         17.1830  -23.7270   -7.8100 S.O2    1  UNL1        0.2460
     29  O         18.4010  -24.1440   -7.1500 O.2     1  UNL1       -0.2060
     30  O         16.1880  -24.7100   -8.1900 O.2     1  UNL1       -0.2060
     31  N         16.4490  -22.5720   -6.8140 N.pl3   1  UNL1       -0.1790
     32  H         15.4900  -22.8450   -6.5960 H       1  UNL1        0.1460
     33  C         17.1790  -22.1160   -5.6680 C.2     1  UNL1        0.0560
     34  C         18.2990  -21.2990   -5.8250 C.2     1  UNL1        0.0270
     35  C         19.0200  -20.8900   -4.7050 C.2     1  UNL1        0.0020
     36  C         18.6210  -21.3000   -3.4330 C.2     1  UNL1        0.0030
     37  C         17.4990  -22.1200   -3.2720 C.2     1  UNL1        0.0380
     38  C         16.7700  -22.5350   -4.3880 C.2     1  UNL1        0.0900
     39  O         15.6530  -23.3340   -4.3580 O.2     1  UNL1       -0.3540
     40  C         15.5160  -24.2070   -3.2410 C.3     1  UNL1        0.2100
@<TRIPOS>BOND
     1    25    24    1
     2    25    26    1
     3    24    23    1
     4    26    27    1
     5    23    22    1
     6    27    22    1
     7    22    19    1
     8    21    19    2
     9    19    20    2
    10    19    14    1
    11    14    13    1
    12    14    15    2
    13    13    12    2
    14    15    16    1
    15     4     5    2
    16     4     3    1
    17    11     8    1
    18     5     6    1
    19    12     9    1
    20    12    17    1
    21     8     3    1
    22     8     9   am
    23     3     2    2
    24    16    17    2
    25     9    10    2
    26    17    18    1
    27     6     7    1
    28     6     1    2
    29     2     1    1
    30     1    28    1
    31    30    28    2
    32    28    29    2
    33    28    31    1
    34    31    32    1
    35    31    33    1
    36    34    33    2
    37    34    35    1
    38    33    38    1
    39    35    36    2
    40    38    39    1
    41    38    37    2
    42    39    40    1
    43    36    37    1
