@<TRIPOS>MOLECULE
51469_out_ligand_01.pdbqt
 36 39 0 0 0
SMALL
GASTEIGER

@<TRIPOS>ATOM
      1  C         21.0870  -22.1080  -10.6150 C.2     1  UNL1        0.0770
      2  C         20.9430  -21.0080  -11.4610 C.2     1  UNL1        0.0250
      3  C         19.6730  -20.6680  -11.9180 C.2     1  UNL1        0.0040
      4  C         18.5590  -21.4270  -11.5350 C.2     1  UNL1        0.0290
      5  C         18.7030  -22.5400  -10.7040 C.2     1  UNL1        0.0360
      6  C         19.9820  -22.8870  -10.2530 C.2     1  UNL1        0.0540
      7  N         17.6340  -23.3570  -10.2870 N.am    1  UNL1       -0.3270
      8  C         16.5330  -22.9880   -9.5360 C.2     1  UNL1        0.2220
      9  O         16.3350  -21.8910   -9.0260 O.2     1  UNL1       -0.2730
     10  H         17.6800  -24.3290  -10.5760 H       1  UNL1        0.1690
     11  C         15.5670  -24.1470   -9.3400 C.3     1  UNL1        0.1030
     12  C         15.3590  -24.5160   -7.8700 C.3     1  UNL1        0.0140
     13  C         16.6550  -24.7430   -7.0820 C.3     1  UNL1        0.0410
     14  C         16.9250  -23.6980   -6.0450 C.2     1  UNL1       -0.0300
     15  C         16.1790  -23.4740   -4.9050 C.2     1  UNL1        0.0960
     16  N         16.7420  -22.4330   -4.2170 N.pl3   1  UNL1       -0.3650
     17  C         17.8550  -21.9730   -4.8810 C.2     1  UNL1        0.0420
     18  H         16.3920  -22.0510   -3.3500 H       1  UNL1        0.1650
     19  C         18.7370  -20.9380   -4.5490 C.2     1  UNL1        0.0300
     20  C         17.9920  -22.7420   -6.0370 C.2     1  UNL1       -0.0020
     21  C         19.7940  -20.6810   -5.4260 C.2     1  UNL1        0.0020
     22  C         19.9580  -21.4290   -6.5890 C.2     1  UNL1        0.0010
     23  C         19.0650  -22.4600   -6.9070 C.2     1  UNL1        0.0140
     24  S         22.7030  -22.5510  -10.0190 S.O2    1  UNL1        0.2460
     25  O         22.5280  -23.6130   -9.0480 O.2     1  UNL1       -0.2060
     26  O         23.3940  -21.3280   -9.6670 O.2     1  UNL1       -0.2060
     27  N         23.4440  -23.2520  -11.3720 N.pl3   1  UNL1       -0.1790
     28  H         22.7340  -23.6560  -11.9870 H       1  UNL1        0.1460
     29  C         24.4020  -22.4570  -12.0840 C.2     1  UNL1        0.0560
     30  C         24.0060  -21.7260  -13.2040 C.2     1  UNL1        0.0270
     31  C         24.9510  -20.9980  -13.9240 C.2     1  UNL1        0.0020
     32  C         26.2880  -21.0060  -13.5250 C.2     1  UNL1        0.0030
     33  C         26.6880  -21.7430  -12.4060 C.2     1  UNL1        0.0380
     34  C         25.7490  -22.4800  -11.6820 C.2     1  UNL1        0.0900
     35  O         26.0260  -23.2410  -10.5720 O.2     1  UNL1       -0.3540
     36  C         27.1210  -24.1450  -10.6850 C.3     1  UNL1        0.2100
@<TRIPOS>BOND
     1    31    32    2
     2    31    30    1
     3    32    33    1
     4    30    29    2
     5    33    34    2
     6    29    34    1
     7    29    27    1
     8    28    27    1
     9     3     4    2
    10     3     2    1
    11    34    35    1
    12     4     5    1
    13     2     1    2
    14    27    24    1
    15     5     7    1
    16     5     6    2
    17    36    35    1
    18     1     6    1
    19     1    24    1
    20    10     7    1
    21     7     8   am
    22    24    26    2
    23    24    25    2
    24     8    11    1
    25     8     9    2
    26    11    12    1
    27    12    13    1
    28    13    14    1
    29    23    22    2
    30    23    20    1
    31    22    21    1
    32    14    20    1
    33    14    15    2
    34    20    17    2
    35    21    19    2
    36    15    16    1
    37    17    19    1
    38    17    16    1
    39    16    18    1
