@<TRIPOS>MOLECULE
51470_out_ligand_01.pdbqt
 35 39 0 0 0
SMALL
GASTEIGER

@<TRIPOS>ATOM
      1  O         21.6570  -21.4930  -12.8190 O.2     1  UNL1       -0.2670
      2  C         22.0290  -22.1070  -11.8260 C.2     1  UNL1        0.2560
      3  N         23.2550  -22.7240  -11.6450 N.am    1  UNL1       -0.3230
      4  H         23.4010  -23.2120  -10.7710 H       1  UNL1        0.1690
      5  C         21.0880  -22.2240  -10.6780 C.2     1  UNL1        0.0320
      6  C         21.5810  -22.6590   -9.4490 C.2     1  UNL1        0.0190
      7  C         20.7260  -22.7870   -8.3450 C.2     1  UNL1        0.0310
      8  C         19.3540  -22.4980   -8.4360 C.2     1  UNL1        0.0460
      9  C         18.8780  -22.0820   -9.6910 C.2     1  UNL1        0.0310
     10  C         19.7270  -21.9490  -10.8020 C.2     1  UNL1        0.0190
     11  N         18.4810  -22.6290   -7.3070 N.am    1  UNL1       -0.2440
     12  C         18.6210  -21.9490   -6.1110 C.2     1  UNL1        0.2660
     13  O         19.4470  -21.1410   -5.7210 O.2     1  UNL1       -0.2670
     14  C         17.5270  -22.3670   -5.2410 C.2     1  UNL1        0.0480
     15  C         17.2140  -21.9860   -3.9500 C.2     1  UNL1        0.0180
     16  C         16.7700  -23.2840   -5.9330 C.2     1  UNL1        0.0480
     17  C         16.0860  -22.5680   -3.3640 C.2     1  UNL1        0.0010
     18  C         15.3090  -23.5060   -4.0730 C.2     1  UNL1        0.0010
     19  C         15.6500  -23.8740   -5.3780 C.2     1  UNL1        0.0180
     20  C         17.3740  -23.4560   -7.2500 C.2     1  UNL1        0.2660
     21  O         16.8860  -24.2260   -8.0570 O.2     1  UNL1       -0.2670
     22  C         24.3310  -22.7680  -12.5560 C.2     1  UNL1        0.0360
     23  C         25.4600  -23.5070  -12.1760 C.2     1  UNL1        0.0290
     24  C         26.5780  -23.5890  -13.0080 C.2     1  UNL1        0.0040
     25  C         26.5830  -22.9270  -14.2320 C.2     1  UNL1        0.0250
     26  C         25.4620  -22.1850  -14.6150 C.2     1  UNL1        0.0810
     27  C         24.3290  -22.1260  -13.7950 C.2     1  UNL1        0.0540
     28  S         25.4480  -21.3680  -16.2000 S.O2    1  UNL1        0.2600
     29  O         24.0860  -20.9640  -16.4750 O.2     1  UNL1       -0.2000
     30  O         26.1730  -22.2180  -17.1230 O.2     1  UNL1       -0.2000
     31  N         26.3780  -19.9870  -15.9540 N.3     1  UNL1       -0.3070
     32  C         26.0360  -19.0800  -14.8410 C.3     1  UNL1        0.1350
     33  C         26.7210  -17.7710  -15.2120 C.3     1  UNL1        0.0220
     34  C         26.5930  -17.7520  -16.7250 C.3     1  UNL1        0.0220
     35  C         26.8620  -19.2020  -17.1080 C.3     1  UNL1        0.1350
@<TRIPOS>BOND
     1    30    28    2
     2    35    34    1
     3    35    31    1
     4    34    33    1
     5    29    28    2
     6    28    31    1
     7    28    26    1
     8    31    32    1
     9    33    32    1
    10    26    25    2
    11    26    27    1
    12    25    24    1
    13    27    22    2
    14    24    23    2
    15     1     2    2
    16    22    23    1
    17    22     3    1
    18     2     3   am
    19     2     5    1
    20     3     4    1
    21    10     5    2
    22    10     9    1
    23     5     6    1
    24     9     8    2
    25     6     7    2
    26     8     7    1
    27     8    11    1
    28    21    20    2
    29    11    20   am
    30    11    12   am
    31    20    16    1
    32    12    13    2
    33    12    14    1
    34    16    19    1
    35    16    14    2
    36    19    18    2
    37    14    15    1
    38    18    17    1
    39    15    17    2
