@<TRIPOS>MOLECULE
51489_out_ligand_01.pdbqt
 43 47 0 0 0
SMALL
GASTEIGER

@<TRIPOS>ATOM
      1  N         21.5260  -22.3860  -10.6350 N.am    1  UNL1       -0.3230
      2  C         20.8650  -23.2640   -9.7960 C.2     1  UNL1        0.2560
      3  O         21.3540  -24.1830   -9.1530 O.2     1  UNL1       -0.2670
      4  H         20.9560  -21.7380  -11.1630 H       1  UNL1        0.1690
      5  C         22.9090  -22.3450  -10.9130 C.2     1  UNL1        0.0360
      6  C         23.3170  -21.5730  -12.0050 C.2     1  UNL1        0.0540
      7  C         24.6760  -21.4820  -12.3540 C.2     1  UNL1        0.0830
      8  C         25.6540  -22.1820  -11.6270 C.2     1  UNL1       -0.0390
      9  C         25.2290  -22.9410  -10.5260 C.2     1  UNL1        0.0100
     10  C         27.1210  -22.1470  -11.9510 C.3     1  UNL1        0.0500
     11  C         23.8760  -23.0200  -10.1720 C.2     1  UNL1        0.0300
     12  S         25.0940  -20.4390  -13.7450 S.O2    1  UNL1        0.2460
     13  O         23.8620  -20.1150  -14.4290 O.2     1  UNL1       -0.2060
     14  O         25.9840  -19.4020  -13.2610 O.2     1  UNL1       -0.2060
     15  N         26.0390  -21.4970  -14.6870 N.pl3   1  UNL1       -0.1790
     16  H         26.8830  -20.9930  -14.9770 H       1  UNL1        0.1460
     17  C         25.3830  -21.9860  -15.8740 C.2     1  UNL1        0.0560
     18  C         25.2780  -21.1850  -17.0110 C.2     1  UNL1        0.0270
     19  C         24.6540  -21.6840  -18.1530 C.2     1  UNL1        0.0020
     20  C         24.1280  -22.9760  -18.1520 C.2     1  UNL1        0.0030
     21  C         24.2220  -23.7770  -17.0090 C.2     1  UNL1        0.0380
     22  C         24.8540  -23.2900  -15.8640 C.2     1  UNL1        0.0900
     23  O         24.9970  -23.9740  -14.6800 O.2     1  UNL1       -0.3540
     24  C         25.6970  -25.2120  -14.7440 C.3     1  UNL1        0.2100
     25  C         19.3930  -23.0510   -9.7020 C.2     1  UNL1        0.0330
     26  C         18.7060  -22.2610  -10.6360 C.2     1  UNL1        0.0170
     27  C         17.3270  -22.0720  -10.5180 C.2     1  UNL1        0.0030
     28  C         16.6310  -22.6560   -9.4590 C.2     1  UNL1        0.0250
     29  C         17.3260  -23.4160   -8.5110 C.2     1  UNL1        0.0760
     30  C         18.7030  -23.6290   -8.6310 C.2     1  UNL1        0.0410
     31  S         16.4190  -24.1650   -7.1790 S.O2    1  UNL1        0.2480
     32  O         15.2490  -24.7600   -7.7950 O.2     1  UNL1       -0.2050
     33  O         17.3330  -24.9850   -6.4110 O.2     1  UNL1       -0.2050
     34  N         15.9030  -22.8440   -6.1950 N.pl3   1  UNL1       -0.1670
     35  C         16.9630  -22.2130   -5.4380 C.2     1  UNL1        0.0320
     36  C         17.9660  -21.3890   -5.9160 C.2     1  UNL1        0.0250
     37  C         16.8590  -22.5030   -4.0780 C.2     1  UNL1       -0.0340
     38  C         18.9060  -20.8920   -5.0060 C.2     1  UNL1        0.0020
     39  C         18.8180  -21.2130   -3.6420 C.2     1  UNL1        0.0010
     40  C         17.7870  -22.0250   -3.1670 C.2     1  UNL1        0.0090
     41  C         15.6840  -23.3890   -3.8130 C.3     1  UNL1        0.0610
     42  C         14.8750  -23.1940   -5.1110 C.3     1  UNL1        0.0800
     43  C         13.9250  -24.3420   -5.3900 C.3     1  UNL1        0.0280
@<TRIPOS>BOND
     1    19    20    2
     2    19    18    1
     3    20    21    1
     4    18    17    2
     5    21    22    2
     6    17    22    1
     7    17    15    1
     8    22    23    1
     9    16    15    1
    10    24    23    1
    11    15    12    1
    12    13    12    2
    13    12    14    2
    14    12     7    1
    15     7     6    1
    16     7     8    2
    17     6     5    2
    18    10     8    1
    19     8     9    1
    20     4     1    1
    21     5     1    1
    22     5    11    1
    23    26    27    1
    24    26    25    2
    25     1     2   am
    26     9    11    2
    27    27    28    2
    28     2    25    1
    29     2     3    2
    30    25    30    1
    31    28    29    1
    32    30    29    2
    33    29    31    1
    34    32    31    2
    35    31    33    2
    36    31    34    1
    37    34    35    1
    38    34    42    1
    39    36    35    2
    40    36    38    1
    41    35    37    1
    42    43    42    1
    43    42    41    1
    44    38    39    2
    45    37    41    1
    46    37    40    2
    47    39    40    1
