@<TRIPOS>MOLECULE
51485_out_ligand_01.pdbqt
 36 38 0 0 0
SMALL
GASTEIGER

@<TRIPOS>ATOM
      1  C         18.6610  -22.6740   -9.5770 C.2     1  UNL1        0.0830
      2  C         20.0230  -22.7770   -9.9190 C.2     1  UNL1        0.0540
      3  C         20.5150  -22.1720  -11.0750 C.2     1  UNL1        0.0360
      4  C         19.6240  -21.4940  -11.9110 C.2     1  UNL1        0.0300
      5  C         18.2690  -21.3940  -11.5790 C.2     1  UNL1        0.0100
      6  C         17.7650  -21.9690  -10.4020 C.2     1  UNL1       -0.0390
      7  C         16.2970  -21.8250  -10.1160 C.3     1  UNL1        0.0500
      8  N         21.8670  -22.2220  -11.4730 N.am    1  UNL1       -0.3230
      9  C         22.9600  -21.7620  -10.7620 C.2     1  UNL1        0.2560
     10  O         22.9460  -21.1320   -9.7110 O.2     1  UNL1       -0.2670
     11  H         22.0340  -22.5370  -12.4200 H       1  UNL1        0.1690
     12  C         24.2780  -22.0360  -11.3970 C.2     1  UNL1        0.0330
     13  C         25.4440  -21.6090  -10.7440 C.2     1  UNL1        0.0170
     14  C         26.6990  -21.8520  -11.3080 C.2     1  UNL1        0.0030
     15  C         26.8000  -22.5350  -12.5200 C.2     1  UNL1        0.0250
     16  C         25.6380  -22.9830  -13.1510 C.2     1  UNL1        0.0750
     17  C         24.3740  -22.7370  -12.6020 C.2     1  UNL1        0.0410
     18  S         25.7350  -23.8740  -14.6830 S.O2    1  UNL1        0.2430
     19  O         25.1460  -25.1820  -14.4940 O.2     1  UNL1       -0.2060
     20  O         27.0910  -23.7170  -15.1630 O.2     1  UNL1       -0.2060
     21  N         24.6940  -22.9780  -15.7020 N.3     1  UNL1       -0.2150
     22  C         24.3020  -23.6620  -16.9580 C.3     1  UNL1        0.1290
     23  C         25.1820  -21.6050  -15.9680 C.3     1  UNL1        0.1290
     24  S         18.1350  -23.5050   -8.0780 S.O2    1  UNL1        0.2460
     25  O         19.2230  -24.3420   -7.6150 O.2     1  UNL1       -0.2060
     26  O         16.8290  -24.0840   -8.3140 O.2     1  UNL1       -0.2060
     27  N         17.9110  -22.2420   -6.9780 N.pl3   1  UNL1       -0.1790
     28  H         18.7730  -22.0490   -6.4660 H       1  UNL1        0.1460
     29  C         16.7460  -22.2580   -6.1440 C.2     1  UNL1        0.0560
     30  C         15.4650  -22.2110   -6.6930 C.2     1  UNL1        0.0270
     31  C         14.3500  -22.2770   -5.8580 C.2     1  UNL1        0.0020
     32  C         14.5180  -22.3680   -4.4780 C.2     1  UNL1        0.0030
     33  C         15.8010  -22.3960   -3.9210 C.2     1  UNL1        0.0380
     34  C         16.9250  -22.3410   -4.7490 C.2     1  UNL1        0.0900
     35  O         18.2310  -22.3710   -4.3230 O.2     1  UNL1       -0.3540
     36  C         18.6450  -21.3320   -3.4450 C.3     1  UNL1        0.2100
@<TRIPOS>BOND
     1    22    21    1
     2    23    21    1
     3    21    18    1
     4    20    18    2
     5    18    19    2
     6    18    16    1
     7    16    17    1
     8    16    15    2
     9    17    12    2
    10    15    14    1
    11    11     8    1
    12     4     5    2
    13     4     3    1
    14     5     6    1
    15     8     3    1
    16     8     9   am
    17    12     9    1
    18    12    13    1
    19    14    13    2
    20     3     2    2
    21     9    10    2
    22     6     7    1
    23     6     1    2
    24     2     1    1
    25     1    24    1
    26    26    24    2
    27    24    25    2
    28    24    27    1
    29    27    28    1
    30    27    29    1
    31    30    29    2
    32    30    31    1
    33    29    34    1
    34    31    32    2
    35    34    35    1
    36    34    33    2
    37    32    33    1
    38    35    36    1
