@<TRIPOS>MOLECULE
5149_out_ligand_01.pdbqt
 29 32 0 0 0
SMALL
GASTEIGER

@<TRIPOS>ATOM
      1  C         16.3230  -22.6100   -4.1360 C.3     1  UNL1        0.0480
      2  C         16.6390  -22.7690   -5.5950 C.2     1  UNL1       -0.0600
      3  C         15.8530  -22.1380   -6.5630 C.2     1  UNL1        0.0090
      4  C         16.1630  -22.2790   -7.9160 C.2     1  UNL1        0.0400
      5  C         17.2820  -23.0180   -8.3100 C.2     1  UNL1        0.1020
      6  C         18.0940  -23.6290   -7.3570 C.2     1  UNL1        0.0690
      7  C         17.7570  -23.5130   -6.0010 C.2     1  UNL1        0.0390
      8  N         19.2100  -24.4120   -7.6730 N.am    1  UNL1       -0.3200
      9  C         19.9890  -24.4170   -8.8020 C.2     1  UNL1        0.2590
     10  O         20.8980  -25.2420   -8.8910 O.2     1  UNL1       -0.2670
     11  C         19.8410  -23.3770   -9.8420 C.2     1  UNL1        0.0680
     12  C         21.0070  -22.9580  -10.5130 C.2     1  UNL1        0.0490
     13  C         20.9480  -21.9950  -11.5240 C.2     1  UNL1        0.0360
     14  C         19.7030  -21.4640  -11.8780 C.2     1  UNL1        0.0320
     15  C         18.5430  -21.8810  -11.2230 C.2     1  UNL1        0.0400
     16  C         18.6160  -22.8240  -10.1950 C.2     1  UNL1        0.0920
     17  O         17.4210  -23.2190   -9.6590 O.2     1  UNL1       -0.3070
     18  H         19.5870  -25.0140   -6.9520 H       1  UNL1        0.1690
     19  N         22.0690  -21.5170  -12.2320 N.am    1  UNL1       -0.3230
     20  C         23.2740  -22.1610  -12.4370 C.2     1  UNL1        0.2570
     21  O         23.5880  -23.2780  -12.0490 O.2     1  UNL1       -0.2670
     22  H         21.9920  -20.5770  -12.6000 H       1  UNL1        0.1690
     23  C         24.2550  -21.4170  -13.2710 C.2     1  UNL1        0.0490
     24  C         23.9680  -21.3450  -14.6440 C.2     1  UNL1        0.0180
     25  C         24.8170  -20.6570  -15.5130 C.2     1  UNL1        0.0010
     26  C         25.9640  -20.0430  -15.0190 C.2     1  UNL1        0.0010
     27  C         26.2700  -20.1250  -13.6590 C.2     1  UNL1        0.0200
     28  C         25.4220  -20.8140  -12.7810 C.2     1  UNL1        0.0260
     29 BR         25.9740  -20.9180  -10.9670 Br      1  UNL1       -0.0500
@<TRIPOS>BOND
     1    25    26    2
     2    25    24    1
     3    26    27    1
     4    24    23    2
     5    27    28    2
     6    23    28    1
     7    23    20    1
     8    28    29    1
     9    22    19    1
    10    20    19   am
    11    20    21    2
    12    19    13    1
    13    14    13    2
    14    14    15    1
    15    13    12    1
    16    15    16    2
    17    12    11    2
    18    16    11    1
    19    16    17    1
    20    11     9    1
    21    17     5    1
    22    10     9    2
    23     9     8   am
    24     5     4    2
    25     5     6    1
    26     4     3    1
    27     8     6    1
    28     8    18    1
    29     6     7    2
    30     3     2    2
    31     7     2    1
    32     2     1    1
