@<TRIPOS>MOLECULE
51494_out_ligand_01.pdbqt
 37 40 0 0 0
SMALL
GASTEIGER

@<TRIPOS>ATOM
      1  C         20.2360  -21.9340  -11.1550 C.2     1  UNL1        0.0320
      2  C         20.8090  -22.7770  -10.1930 C.2     1  UNL1        0.0190
      3  C         22.1350  -23.1960  -10.3320 C.2     1  UNL1        0.0310
      4  C         22.8900  -22.7720  -11.4250 C.2     1  UNL1        0.0420
      5  C         22.3360  -21.9160  -12.3750 C.2     1  UNL1        0.0310
      6  C         21.0100  -21.4940  -12.2370 C.2     1  UNL1        0.0190
      7  N         24.2470  -23.1800  -11.5350 N.pl3   1  UNL1       -0.2810
      8  H         24.5040  -23.7240  -12.3590 H       1  UNL1        0.1790
      9  S         25.4470  -22.0350  -11.1950 S.O2    1  UNL1        0.2630
     10  O         24.8170  -21.0350  -10.3600 O.2     1  UNL1       -0.2000
     11  O         26.6540  -22.7090  -10.7740 O.2     1  UNL1       -0.2000
     12  C         25.7270  -21.2910  -12.7850 C.2     1  UNL1        0.0820
     13  C         25.6560  -22.0960  -13.9500 C.2     1  UNL1        0.0280
     14  C         25.8790  -21.5400  -15.2140 C.2     1  UNL1        0.0330
     15  C         26.1740  -20.1970  -15.2530 C.ar    1  UNL1        0.0630
     16  N         26.4410  -19.3780  -16.3440 N.ar    1  UNL1       -0.3070
     17  C         26.2550  -19.4140  -14.0990 C.ar    1  UNL1        0.0640
     18  C         26.6950  -18.0790  -15.8820 C.ar    1  UNL1        0.3250
     19  H         26.4700  -19.6420  -17.3150 H       1  UNL1        0.1700
     20  O         26.9670  -17.1060  -16.5620 O.2     1  UNL1       -0.2470
     21  N         26.5730  -18.1160  -14.4860 N.ar    1  UNL1       -0.3060
     22  H         26.7160  -17.3170  -13.8920 H       1  UNL1        0.1700
     23  C         26.0430  -19.9270  -12.8440 C.2     1  UNL1        0.0570
     24  C         18.8300  -21.4530  -11.0490 C.2     1  UNL1        0.2510
     25  N         18.0130  -22.1380  -10.1720 N.am    1  UNL1       -0.3570
     26  H         18.3230  -23.0170   -9.7850 H       1  UNL1        0.1620
     27  O         18.4460  -20.5210  -11.7440 O.2     1  UNL1       -0.2680
     28  C         16.6060  -21.7990  -10.0420 C.3     1  UNL1        0.1270
     29  C         15.7750  -22.9690   -9.5100 C.3     1  UNL1        0.0580
     30  C         16.1090  -23.2840   -8.0730 C.2     1  UNL1       -0.0570
     31  C         16.9070  -24.3860   -7.7470 C.2     1  UNL1        0.0100
     32  C         17.2290  -24.6640   -6.4140 C.2     1  UNL1        0.0370
     33  C         16.7590  -23.8400   -5.3910 C.2     1  UNL1        0.0680
     34  C         15.9670  -22.7370   -5.7150 C.2     1  UNL1        0.0370
     35  C         15.6430  -22.4580   -7.0450 C.2     1  UNL1        0.0100
     36  O         17.0000  -23.9990   -4.0540 O.2     1  UNL1       -0.3560
     37  C         15.9960  -23.5340   -3.1610 C.3     1  UNL1        0.2100
@<TRIPOS>BOND
     1    19    16    1
     2    20    18    2
     3    16    18   ar
     4    16    15   ar
     5    18    21   ar
     6    15    14    2
     7    15    17   ar
     8    14    13    1
     9    21    17   ar
    10    21    22    1
    11    17    23    2
    12    13    12    2
    13    23    12    1
    14    12     9    1
    15     5     6    1
    16     5     4    2
    17     8     7    1
    18     6     1    2
    19    27    24    2
    20     7     4    1
    21     7     9    1
    22     4     3    1
    23     9    11    2
    24     9    10    2
    25     1    24    1
    26     1     2    1
    27    24    25   am
    28     3     2    2
    29    25    28    1
    30    25    26    1
    31    28    29    1
    32    29    30    1
    33    30    31    2
    34    30    35    1
    35    31    32    1
    36    35    34    2
    37    32    33    2
    38    34    33    1
    39    33    36    1
    40    36    37    1
