@<TRIPOS>MOLECULE
51501_out_ligand_01.pdbqt
 39 42 0 0 0
SMALL
GASTEIGER

@<TRIPOS>ATOM
      1  C         18.6090  -22.5850   -9.7110 C.2     1  UNL1        0.0830
      2  C         19.9650  -22.7720  -10.0390 C.2     1  UNL1        0.0540
      3  C         20.5240  -22.1600  -11.1640 C.2     1  UNL1        0.0360
      4  C         19.7070  -21.3740  -11.9710 C.2     1  UNL1        0.0300
      5  C         18.3540  -21.1940  -11.6560 C.2     1  UNL1        0.0100
      6  C         17.7820  -21.7850  -10.5180 C.2     1  UNL1       -0.0390
      7  C         16.3170  -21.5650  -10.2700 C.3     1  UNL1        0.0500
      8  N         21.8940  -22.3920  -11.4070 N.am    1  UNL1       -0.3230
      9  C         22.9660  -21.8930  -10.6940 C.2     1  UNL1        0.2560
     10  O         22.9280  -21.1880   -9.6940 O.2     1  UNL1       -0.2670
     11  H         22.0990  -23.0510  -12.1490 H       1  UNL1        0.1690
     12  C         24.3030  -22.3060  -11.2040 C.2     1  UNL1        0.0330
     13  C         25.4670  -22.1510  -10.4370 C.2     1  UNL1        0.0170
     14  C         26.7040  -22.5570  -10.9470 C.2     1  UNL1        0.0030
     15  C         26.7800  -23.1300  -12.2150 C.2     1  UNL1        0.0250
     16  C         25.6130  -23.3080  -12.9650 C.2     1  UNL1        0.0750
     17  C         24.3750  -22.8940  -12.4710 C.2     1  UNL1        0.0410
     18  S         25.7260  -24.0460  -14.5750 S.O2    1  UNL1        0.2430
     19  O         27.1150  -24.0510  -14.9830 O.2     1  UNL1       -0.2060
     20  O         24.9550  -25.2710  -14.5350 O.2     1  UNL1       -0.2060
     21  N         24.8980  -22.9250  -15.5650 N.3     1  UNL1       -0.2060
     22  C         25.5530  -21.5960  -15.7240 C.3     1  UNL1        0.1070
     23  C         24.8200  -20.7710  -16.7740 C.3     1  UNL1        0.0150
     24  C         24.9040  -21.4240  -18.1510 C.3     1  UNL1        0.0020
     25  C         25.0640  -22.9390  -18.0620 C.3     1  UNL1        0.0150
     26  C         24.3680  -23.5120  -16.8330 C.3     1  UNL1        0.1070
     27  S         18.0090  -23.4270   -8.2480 S.O2    1  UNL1        0.2460
     28  O         16.9710  -24.3520   -8.6500 O.2     1  UNL1       -0.2060
     29  O         19.1610  -23.9030   -7.5090 O.2     1  UNL1       -0.2060
     30  N         17.2650  -22.1960   -7.3550 N.pl3   1  UNL1       -0.1790
     31  H         17.2160  -21.3340   -7.9010 H       1  UNL1        0.1460
     32  C         17.7110  -21.9900   -6.0080 C.2     1  UNL1        0.0560
     33  C         18.7310  -21.0800   -5.7320 C.2     1  UNL1        0.0270
     34  C         19.1120  -20.8440   -4.4130 C.2     1  UNL1        0.0020
     35  C         18.4710  -21.5160   -3.3730 C.2     1  UNL1        0.0030
     36  C         17.4530  -22.4380   -3.6460 C.2     1  UNL1        0.0380
     37  C         17.0670  -22.6840   -4.9660 C.2     1  UNL1        0.0900
     38  O         16.0860  -23.5600   -5.3590 O.2     1  UNL1       -0.3540
     39  C         14.8370  -23.4770   -4.6790 C.3     1  UNL1        0.2100
@<TRIPOS>BOND
     1    24    25    1
     2    24    23    1
     3    25    26    1
     4    26    21    1
     5    23    22    1
     6    22    21    1
     7    21    18    1
     8    19    18    2
     9    18    20    2
    10    18    16    1
    11    16    17    1
    12    16    15    2
    13    17    12    2
    14    15    14    1
    15    11     8    1
    16     4     5    2
    17     4     3    1
    18     5     6    1
    19     8     3    1
    20     8     9   am
    21    12     9    1
    22    12    13    1
    23     3     2    2
    24    14    13    2
    25     9    10    2
    26     6     7    1
    27     6     1    2
    28     2     1    1
    29     1    27    1
    30    28    27    2
    31    27    29    2
    32    27    30    1
    33    31    30    1
    34    30    32    1
    35    32    33    2
    36    32    37    1
    37    33    34    1
    38    38    37    1
    39    38    39    1
    40    37    36    2
    41    34    35    2
    42    36    35    1
