@<TRIPOS>MOLECULE
51503_out_ligand_01.pdbqt
 42 46 0 0 0
SMALL
GASTEIGER

@<TRIPOS>ATOM
      1  N         21.7470  -22.5270  -11.4100 N.am    1  UNL1       -0.3230
      2  C         22.8720  -21.9440  -10.8570 C.2     1  UNL1        0.2560
      3  O         22.8980  -21.0720   -9.9950 O.2     1  UNL1       -0.2670
      4  H         21.8830  -23.3090  -12.0390 H       1  UNL1        0.1690
      5  C         20.3990  -22.1880  -11.1660 C.2     1  UNL1        0.0360
      6  C         19.7850  -22.8030  -10.0720 C.2     1  UNL1        0.0540
      7  C         18.4410  -22.5360   -9.7490 C.2     1  UNL1        0.0830
      8  C         17.6810  -21.6490  -10.5300 C.2     1  UNL1       -0.0390
      9  C         18.3120  -21.0440  -11.6300 C.2     1  UNL1        0.0100
     10  C         16.2320  -21.3470  -10.2830 C.3     1  UNL1        0.0500
     11  C         19.6520  -21.3070  -11.9420 C.2     1  UNL1        0.0300
     12  S         17.7660  -23.3980   -8.3320 S.O2    1  UNL1        0.2460
     13  O         16.5540  -24.0750   -8.7410 O.2     1  UNL1       -0.2060
     14  O         18.8450  -24.1460   -7.7170 O.2     1  UNL1       -0.2060
     15  N         17.3080  -22.1520   -7.2860 N.pl3   1  UNL1       -0.1790
     16  H         17.9710  -21.3760   -7.3380 H       1  UNL1        0.1460
     17  C         16.9370  -22.4950   -5.9450 C.2     1  UNL1        0.0560
     18  C         15.6930  -23.0640   -5.6700 C.2     1  UNL1        0.0270
     19  C         15.3700  -23.4170   -4.3610 C.2     1  UNL1        0.0020
     20  C         16.2870  -23.1980   -3.3320 C.2     1  UNL1        0.0030
     21  C         17.5320  -22.6210   -3.6030 C.2     1  UNL1        0.0380
     22  C         17.8650  -22.2630   -4.9120 C.2     1  UNL1        0.0900
     23  O         19.0580  -21.7040   -5.3010 O.2     1  UNL1       -0.3540
     24  C         19.2360  -20.3170   -5.0230 C.3     1  UNL1        0.2100
     25  C         24.1770  -22.4650  -11.3700 C.2     1  UNL1        0.0330
     26  C         25.3130  -22.3410  -10.5540 C.2     1  UNL1        0.0170
     27  C         26.5550  -22.8140  -10.9860 C.2     1  UNL1        0.0030
     28  C         26.6780  -23.4050  -12.2430 C.2     1  UNL1        0.0250
     29  C         25.5520  -23.5040  -13.0660 C.2     1  UNL1        0.0760
     30  C         24.3020  -23.0390  -12.6410 C.2     1  UNL1        0.0410
     31  S         25.7110  -24.2740  -14.6670 S.O2    1  UNL1        0.2480
     32  O         24.9900  -25.5300  -14.6050 O.2     1  UNL1       -0.2050
     33  O         27.1210  -24.2400  -14.9950 O.2     1  UNL1       -0.2050
     34  N         24.8520  -23.1950  -15.6610 N.pl3   1  UNL1       -0.1710
     35  C         24.3170  -23.7550  -16.9490 C.3     1  UNL1        0.1180
     36  C         24.2320  -22.5730  -17.9290 C.3     1  UNL1        0.0560
     37  C         25.1640  -21.5860  -17.3090 C.2     1  UNL1       -0.0350
     38  C         25.6170  -20.3940  -17.8560 C.2     1  UNL1        0.0090
     39  C         25.5020  -21.9620  -16.0090 C.2     1  UNL1        0.0310
     40  C         26.4060  -19.5590  -17.0610 C.2     1  UNL1        0.0010
     41  C         26.7140  -19.9170  -15.7410 C.2     1  UNL1        0.0020
     42  C         26.2490  -21.1230  -15.2010 C.2     1  UNL1        0.0250
@<TRIPOS>BOND
     1    36    37    1
     2    36    35    1
     3    38    37    2
     4    38    40    1
     5    37    39    1
     6    40    41    2
     7    35    34    1
     8    39    34    1
     9    39    42    2
    10    41    42    1
    11    34    31    1
    12    33    31    2
    13    31    32    2
    14    31    29    1
    15    29    30    1
    16    29    28    2
    17    30    25    2
    18    28    27    1
    19     4     1    1
    20    11     9    1
    21    11     5    2
    22     9     8    2
    23     1     5    1
    24     1     2   am
    25    25     2    1
    26    25    26    1
    27     5     6    1
    28    27    26    2
    29     2     3    2
    30     8    10    1
    31     8     7    1
    32     6     7    2
    33     7    12    1
    34    13    12    2
    35    12    14    2
    36    12    15    1
    37    16    15    1
    38    15    17    1
    39    17    18    2
    40    17    22    1
    41    18    19    1
    42    23    24    1
    43    23    22    1
    44    22    21    2
    45    19    20    2
    46    21    20    1
