@<TRIPOS>MOLECULE
5151_out_ligand_01.pdbqt
 30 33 0 0 0
SMALL
GASTEIGER

@<TRIPOS>ATOM
      1  C         19.5210  -22.9080   -9.0790 C.2     1  UNL1        0.0350
      2  C         20.5270  -22.9660   -8.1080 C.2     1  UNL1        0.0320
      3  C         21.8200  -22.5340   -8.4030 C.2     1  UNL1        0.0400
      4  C         22.1330  -22.0630   -9.6820 C.2     1  UNL1        0.0920
      5  C         21.1520  -22.0080  -10.6660 C.2     1  UNL1        0.0680
      6  C         19.8420  -22.4260  -10.3530 C.2     1  UNL1        0.0490
      7  C         21.3990  -21.5110  -12.0370 C.2     1  UNL1        0.2590
      8  O         20.4700  -21.0400  -12.6910 O.2     1  UNL1       -0.2670
      9  N         22.6130  -21.6780  -12.6560 N.am    1  UNL1       -0.3200
     10  C         23.8230  -22.1770  -12.1580 C.2     1  UNL1        0.0700
     11  C         24.7590  -22.6390  -13.0930 C.2     1  UNL1        0.0560
     12  C         25.9920  -23.1360  -12.6670 C.2     1  UNL1        0.0360
     13 CL         27.1210  -23.7250  -13.8270 Cl      1  UNL1       -0.0840
     14  C         26.3160  -23.1640  -11.3140 C.2     1  UNL1        0.0260
     15  C         25.4060  -22.6640  -10.3820 C.2     1  UNL1        0.0410
     16  C         24.1600  -22.1810  -10.8040 C.2     1  UNL1        0.1020
     17  O         23.3990  -21.5740   -9.8400 O.2     1  UNL1       -0.3070
     18  H         22.5440  -21.5100  -13.6490 H       1  UNL1        0.1690
     19  N         18.2330  -23.3190   -8.6830 N.am    1  UNL1       -0.3270
     20  C         17.0160  -22.8120   -9.1140 C.2     1  UNL1        0.2220
     21  O         16.8340  -21.9860  -10.0090 O.2     1  UNL1       -0.2730
     22  H         18.1950  -24.0960   -8.0320 H       1  UNL1        0.1690
     23  C         15.8370  -23.4080   -8.3680 C.3     1  UNL1        0.1080
     24  C         16.2970  -24.3610   -7.2820 C.3     1  UNL1        0.0470
     25  C         16.2850  -23.7320   -5.9110 C.2     1  UNL1       -0.0580
     26  C         15.1310  -23.0950   -5.4440 C.2     1  UNL1        0.0070
     27  C         15.1200  -22.4980   -4.1790 C.2     1  UNL1        0.0010
     28  C         16.2590  -22.5390   -3.3650 C.2     1  UNL1        0.0000
     29  C         17.4070  -23.1820   -3.8140 C.2     1  UNL1        0.0010
     30  C         17.4200  -23.7790   -5.0820 C.2     1  UNL1        0.0070
@<TRIPOS>BOND
     1    13    12    1
     2    18     9    1
     3    11    12    1
     4    11    10    2
     5     8     7    2
     6    12    14    2
     7     9    10    1
     8     9     7   am
     9    10    16    1
    10     7     5    1
    11    14    15    1
    12    16    15    2
    13    16    17    1
    14     5     6    1
    15     5     4    2
    16     6     1    2
    17    21    20    2
    18    17     4    1
    19     4     3    1
    20    20    19   am
    21    20    23    1
    22     1    19    1
    23     1     2    1
    24    19    22    1
    25     3     2    2
    26    23    24    1
    27    24    25    1
    28    25    26    2
    29    25    30    1
    30    26    27    1
    31    30    29    2
    32    27    28    2
    33    29    28    1
