@<TRIPOS>MOLECULE
51517_out_ligand_01.pdbqt
 38 42 0 0 0
SMALL
GASTEIGER

@<TRIPOS>ATOM
      1  O         19.2020  -20.3090  -11.7570 O.2     1  UNL1       -0.2670
      2  C         19.2220  -21.3560  -11.1210 C.2     1  UNL1        0.2560
      3  N         20.3240  -22.1560  -10.8770 N.am    1  UNL1       -0.3230
      4  H         20.2060  -22.9190  -10.2260 H       1  UNL1        0.1690
      5  C         17.9520  -21.8130  -10.4850 C.2     1  UNL1        0.0330
      6  C         16.6970  -21.3760  -10.9360 C.2     1  UNL1        0.0170
      7  C         15.5290  -21.8320  -10.3200 C.2     1  UNL1        0.0030
      8  C         15.6060  -22.7210   -9.2470 C.2     1  UNL1        0.0250
      9  C         16.8580  -23.1450   -8.7900 C.2     1  UNL1        0.0760
     10  C         18.0330  -22.6840   -9.3910 C.2     1  UNL1        0.0410
     11  S         16.9380  -24.2480   -7.3940 S.O2    1  UNL1        0.2480
     12  O         15.9740  -25.3070   -7.6080 O.2     1  UNL1       -0.2050
     13  O         18.3420  -24.5470   -7.1930 O.2     1  UNL1       -0.2050
     14  N         16.3740  -23.2460   -6.1350 N.pl3   1  UNL1       -0.1710
     15  C         15.5960  -23.9340   -5.0470 C.3     1  UNL1        0.1180
     16  C         15.8130  -23.1060   -3.7710 C.3     1  UNL1        0.0560
     17  C         17.0470  -22.3350   -4.1040 C.2     1  UNL1       -0.0350
     18  C         17.8090  -21.5540   -3.2490 C.2     1  UNL1        0.0090
     19  C         17.3490  -22.4330   -5.4620 C.2     1  UNL1        0.0310
     20  C         18.8870  -20.8480   -3.7830 C.2     1  UNL1        0.0010
     21  C         19.1710  -20.9140   -5.1550 C.2     1  UNL1        0.0020
     22  C         18.3860  -21.6980   -6.0080 C.2     1  UNL1        0.0250
     23  C         21.6360  -21.9760  -11.3670 C.2     1  UNL1        0.0350
     24  C         21.7760  -21.7310  -12.7420 C.2     1  UNL1        0.0310
     25  C         23.0380  -21.5400  -13.3110 C.2     1  UNL1        0.0270
     26  C         24.1730  -21.6020  -12.5010 C.2     1  UNL1        0.0750
     27  C         24.0480  -21.8250  -11.1290 C.2     1  UNL1        0.0270
     28  C         22.7810  -22.0160  -10.5680 C.2     1  UNL1        0.0310
     29  S         25.7820  -21.3280  -13.1980 S.O2    1  UNL1        0.2470
     30  O         26.1900  -22.5150  -13.9160 O.2     1  UNL1       -0.2050
     31  O         26.6230  -20.7860  -12.1480 O.2     1  UNL1       -0.2050
     32  N         25.5030  -20.0390  -14.2390 N.pl3   1  UNL1       -0.1590
     33  H         26.0610  -19.2400  -13.9520 H       1  UNL1        0.1480
     34  C         25.6490  -20.3960  -15.6290 C.2     1  UNL1        0.1580
     35  N         24.6220  -20.8030  -16.3320 N.2     1  UNL1       -0.2400
     36  C         25.0310  -21.0400  -17.6300 C.2     1  UNL1        0.1260
     37  C         26.3570  -20.7670  -17.8960 C.2     1  UNL1        0.0720
     38  S         27.1210  -20.1930  -16.4710 S.3     1  UNL1       -0.0680
@<TRIPOS>BOND
     1    37    36    2
     2    37    38    1
     3    36    35    1
     4    38    34    1
     5    35    34    2
     6    34    32    1
     7    32    33    1
     8    32    29    1
     9    30    29    2
    10    25    24    1
    11    25    26    2
    12    29    26    1
    13    29    31    2
    14    24    23    2
    15    26    27    1
    16     1     2    2
    17    23     3    1
    18    23    28    1
    19    27    28    2
    20     2     3   am
    21     2     5    1
    22     6     5    2
    23     6     7    1
    24     3     4    1
    25     5    10    1
    26     7     8    2
    27    10     9    2
    28     8     9    1
    29     9    11    1
    30    12    11    2
    31    11    13    2
    32    11    14    1
    33    14    19    1
    34    14    15    1
    35    22    19    1
    36    22    21    2
    37    19    17    2
    38    21    20    1
    39    15    16    1
    40    17    16    1
    41    17    18    1
    42    20    18    2
