@<TRIPOS>MOLECULE
51531_out_ligand_01.pdbqt
 38 41 0 0 0
SMALL
GASTEIGER

@<TRIPOS>ATOM
      1  N         24.1990  -23.3280  -11.5660 N.pl3   1  UNL1       -0.2830
      2  H         23.2060  -23.3340  -11.8410 H       1  UNL1        0.1280
      3  C         24.9400  -22.4150  -12.3390 C.2     1  UNL1        0.0240
      4  C         26.3450  -22.4680  -12.3540 C.2     1  UNL1        0.0240
      5  C         27.0990  -21.6510  -13.2000 C.2     1  UNL1        0.0020
      6  C         26.4670  -20.7790  -14.0770 C.2     1  UNL1        0.0010
      7  C         25.0750  -20.7080  -14.0960 C.2     1  UNL1        0.0190
      8  C         24.3060  -21.5010  -13.2220 C.2     1  UNL1        0.0530
      9  C         22.8090  -21.3650  -13.2320 C.2     1  UNL1        0.2580
     10  N         22.1830  -21.6340  -12.0270 N.am    1  UNL1       -0.3230
     11  H         22.7500  -22.0310  -11.2910 H       1  UNL1        0.1690
     12  O         22.2470  -21.0920  -14.2890 O.2     1  UNL1       -0.2670
     13  C         20.8080  -21.5200  -11.7350 C.2     1  UNL1        0.0350
     14  C         20.1540  -22.6730  -11.2850 C.2     1  UNL1        0.0300
     15  C         18.7950  -22.6420  -10.9580 C.2     1  UNL1        0.0090
     16  C         18.0650  -21.4570  -11.0780 C.2     1  UNL1       -0.0620
     17  C         16.6160  -21.4020  -10.7000 C.3     1  UNL1        0.0480
     18  C         18.7220  -20.3030  -11.5120 C.2     1  UNL1        0.0090
     19  C         20.0820  -20.3350  -11.8400 C.2     1  UNL1        0.0300
     20  C         24.3920  -23.3800  -10.1030 C.3     1  UNL1        0.1950
     21  C         23.3840  -22.4820   -9.3660 C.2     1  UNL1        0.2350
     22  O         23.4790  -21.2570   -9.3950 O.2     1  UNL1       -0.2720
     23  N         22.4000  -23.2170   -8.7310 N.am    1  UNL1       -0.3260
     24  H         22.5060  -24.2230   -8.8730 H       1  UNL1        0.1690
     25  C         21.3180  -22.7650   -7.9630 C.2     1  UNL1        0.0360
     26  C         21.4910  -21.5590   -7.2710 C.2     1  UNL1        0.0290
     27  C         20.4730  -21.0430   -6.4650 C.2     1  UNL1        0.0040
     28  C         19.2690  -21.7320   -6.3430 C.2     1  UNL1        0.0250
     29  C         19.0960  -22.9330   -7.0340 C.2     1  UNL1        0.0760
     30  C         20.1050  -23.4440   -7.8580 C.2     1  UNL1        0.0540
     31  S         17.5500  -23.7970   -6.9000 S.O2    1  UNL1        0.2430
     32  O         17.7540  -25.0040   -6.1300 O.2     1  UNL1       -0.2060
     33  O         16.9610  -23.8560   -8.2220 O.2     1  UNL1       -0.2060
     34  N         16.6140  -22.7290   -5.9690 N.3     1  UNL1       -0.2060
     35  C         16.3510  -23.1100   -4.5570 C.3     1  UNL1        0.1070
     36  C         15.0390  -22.4150   -4.2270 C.3     1  UNL1        0.0170
     37  C         14.2640  -22.5690   -5.5190 C.3     1  UNL1        0.0170
     38  C         15.3210  -22.3190   -6.5860 C.3     1  UNL1        0.1070
@<TRIPOS>BOND
     1    12     9    2
     2     7     6    2
     3     7     8    1
     4     6     5    1
     5     9     8    1
     6     9    10   am
     7     8     3    2
     8     5     4    2
     9     4     3    1
    10     3     1    1
    11    10    13    1
    12    10    11    1
    13     2     1    1
    14    19    13    2
    15    19    18    1
    16    13    14    1
    17     1    20    1
    18    18    16    2
    19    14    15    2
    20    16    15    1
    21    16    17    1
    22    20    21    1
    23    22    21    2
    24    21    23   am
    25    24    23    1
    26    23    25    1
    27    33    31    2
    28    25    30    2
    29    25    26    1
    30    30    29    1
    31    26    27    2
    32    29    31    1
    33    29    28    2
    34    31    32    2
    35    31    34    1
    36    38    34    1
    37    38    37    1
    38    27    28    1
    39    34    35    1
    40    37    36    1
    41    35    36    1
