@<TRIPOS>MOLECULE
51532_out_ligand_01.pdbqt
 36 39 0 0 0
SMALL
GASTEIGER

@<TRIPOS>ATOM
      1  C         18.7620  -21.7970  -10.4970 C.2     1  UNL1        0.0330
      2  C         17.6700  -21.2020  -11.1470 C.2     1  UNL1        0.0170
      3  C         16.3660  -21.4970  -10.7370 C.2     1  UNL1        0.0030
      4  C         16.1480  -22.3920   -9.6890 C.2     1  UNL1        0.0250
      5  C         17.2410  -22.9980   -9.0600 C.2     1  UNL1        0.0760
      6  C         18.5490  -22.7010   -9.4520 C.2     1  UNL1        0.0410
      7  C         20.1590  -21.5270  -10.9210 C.2     1  UNL1        0.2510
      8  N         21.1460  -21.9560  -10.0610 N.am    1  UNL1       -0.3570
      9  H         20.9020  -22.5680   -9.2930 H       1  UNL1        0.1620
     10  O         20.3790  -20.9700  -11.9900 O.2     1  UNL1       -0.2680
     11  C         22.5460  -21.7710  -10.3890 C.3     1  UNL1        0.1270
     12  C         23.1940  -23.0260  -10.9810 C.3     1  UNL1        0.0580
     13  C         23.7920  -22.8240  -12.3570 C.2     1  UNL1       -0.0570
     14  C         24.7920  -23.6850  -12.8380 C.2     1  UNL1        0.0090
     15  C         25.3330  -23.5030  -14.1110 C.2     1  UNL1        0.0250
     16  C         24.8840  -22.4450  -14.9030 C.2     1  UNL1        0.0740
     17  C         23.8920  -21.5780  -14.4420 C.2     1  UNL1        0.0250
     18  C         23.3520  -21.7660  -13.1680 C.2     1  UNL1        0.0090
     19  S         25.5530  -22.2120  -16.5280 S.O2    1  UNL1        0.2390
     20  O         26.8530  -21.5930  -16.4070 O.2     1  UNL1       -0.2060
     21  O         25.3350  -23.4190  -17.2880 O.2     1  UNL1       -0.2060
     22  N         24.5360  -21.0180  -17.1420 N.3     1  UNL1       -0.2250
     23  H         24.9020  -20.0750  -17.0160 H       1  UNL1        0.1360
     24  H         24.3410  -21.2240  -18.1230 H       1  UNL1        0.1360
     25  S         16.9500  -24.1280   -7.7140 S.O2    1  UNL1        0.2480
     26  O         18.2510  -24.6110   -7.2980 O.2     1  UNL1       -0.2050
     27  O         15.9150  -25.0520   -8.1310 O.2     1  UNL1       -0.2050
     28  N         16.3110  -23.0900   -6.5220 N.pl3   1  UNL1       -0.1710
     29  C         15.3150  -23.7060   -5.5780 C.3     1  UNL1        0.1180
     30  C         15.4260  -22.9210   -4.2620 C.3     1  UNL1        0.0560
     31  C         16.7670  -22.2810   -4.3920 C.2     1  UNL1       -0.0350
     32  C         17.4720  -21.5940   -3.4150 C.2     1  UNL1        0.0090
     33  C         17.2530  -22.3900   -5.6940 C.2     1  UNL1        0.0310
     34  C         18.6830  -20.9980   -3.7690 C.2     1  UNL1        0.0010
     35  C         19.1550  -21.0750   -5.0880 C.2     1  UNL1        0.0020
     36  C         18.4290  -21.7610   -6.0650 C.2     1  UNL1        0.0250
@<TRIPOS>BOND
     1    24    22    1
     2    21    19    2
     3    22    23    1
     4    22    19    1
     5    19    20    2
     6    19    16    1
     7    16    17    2
     8    16    15    1
     9    17    18    1
    10    15    14    2
    11    18    13    2
    12    14    13    1
    13    13    12    1
    14    10     7    2
    15     2     3    1
    16     2     1    2
    17    12    11    1
    18     7     1    1
    19     7     8   am
    20     3     4    2
    21     1     6    1
    22    11     8    1
    23     8     9    1
    24     4     5    1
    25     6     5    2
    26     5    25    1
    27    27    25    2
    28    25    26    2
    29    25    28    1
    30    28    33    1
    31    28    29    1
    32    36    33    1
    33    36    35    2
    34    33    31    2
    35    29    30    1
    36    35    34    1
    37    31    30    1
    38    31    32    1
    39    34    32    2
