@<TRIPOS>MOLECULE
51534_out_ligand_01.pdbqt
 33 35 0 0 0
SMALL
GASTEIGER

@<TRIPOS>ATOM
      1  N         15.0400  -22.4190   -3.8990 N.1     1  UNL1       -0.1910
      2  C         16.0350  -22.3430   -4.4920 C.1     1  UNL1        0.1010
      3  C         17.2750  -22.2150   -5.2010 C.2     1  UNL1        0.0660
      4  C         18.1440  -21.1730   -4.8570 C.2     1  UNL1        0.0260
      5  C         19.3630  -21.0200   -5.5250 C.2     1  UNL1        0.0310
      6  C         19.7310  -21.9050   -6.5440 C.2     1  UNL1        0.0360
      7  C         18.8640  -22.9440   -6.8880 C.2     1  UNL1        0.0540
      8  C         17.6420  -23.0980   -6.2200 C.2     1  UNL1        0.0570
      9 CL         16.6190  -24.4080   -6.7020 Cl      1  UNL1       -0.0830
     10  N         20.9700  -21.6830   -7.1640 N.am    1  UNL1       -0.3260
     11  C         21.6350  -22.4730   -8.0830 C.2     1  UNL1        0.2350
     12  O         21.2550  -23.5510   -8.5320 O.2     1  UNL1       -0.2720
     13  H         21.4720  -20.8170   -6.9570 H       1  UNL1        0.1690
     14  C         22.9820  -21.8600   -8.5030 C.3     1  UNL1        0.1950
     15  N         22.9310  -21.3430   -9.8880 N.pl3   1  UNL1       -0.2830
     16  H         23.0450  -20.3170   -9.9120 H       1  UNL1        0.1280
     17  C         23.7900  -21.9380  -10.8400 C.2     1  UNL1        0.0240
     18  C         24.9870  -22.5480  -10.4220 C.2     1  UNL1        0.0240
     19  C         25.8110  -23.2250  -11.3220 C.2     1  UNL1        0.0020
     20  C         25.4460  -23.3320  -12.6580 C.2     1  UNL1        0.0010
     21  C         24.2620  -22.7460  -13.1020 C.2     1  UNL1        0.0190
     22  C         23.4380  -22.0340  -12.2100 C.2     1  UNL1        0.0530
     23  C         22.1980  -21.3650  -12.7240 C.2     1  UNL1        0.2530
     24  O         22.1270  -21.0030  -13.8960 O.2     1  UNL1       -0.2680
     25  N         21.1460  -21.2460  -11.8380 N.am    1  UNL1       -0.3530
     26  H         21.1560  -21.8090  -10.9990 H       1  UNL1        0.1630
     27  C         19.8460  -20.7800  -12.2710 C.3     1  UNL1        0.1610
     28  C         18.7510  -21.4240  -11.4610 C.2     1  UNL1       -0.0410
     29  C         17.4940  -20.8130  -11.3400 C.2     1  UNL1        0.0090
     30  C         16.4930  -21.4020  -10.5660 C.2     1  UNL1        0.0010
     31  C         16.7380  -22.6020   -9.9020 C.2     1  UNL1        0.0000
     32  C         17.9860  -23.2140  -10.0080 C.2     1  UNL1        0.0010
     33  C         18.9880  -22.6280  -10.7810 C.2     1  UNL1        0.0090
@<TRIPOS>BOND
     1    24    23    2
     2    21    20    2
     3    21    22    1
     4    23    22    1
     5    23    25   am
     6    20    19    1
     7    27    25    1
     8    27    28    1
     9    22    17    2
    10    25    26    1
    11    28    29    2
    12    28    33    1
    13    29    30    1
    14    19    18    2
    15    17    18    1
    16    17    15    1
    17    33    32    2
    18    30    31    2
    19    32    31    1
    20    16    15    1
    21    15    14    1
    22    12    11    2
    23    14    11    1
    24    11    10   am
    25    10    13    1
    26    10     6    1
    27     7     6    2
    28     7     8    1
    29     9     8    1
    30     6     5    1
    31     8     3    2
    32     5     4    2
    33     3     4    1
    34     3     2    1
    35     2     1    3
