@<TRIPOS>MOLECULE
51546_out_ligand_01.pdbqt
 34 36 0 0 0
SMALL
GASTEIGER

@<TRIPOS>ATOM
      1  C         18.9190  -21.3180  -11.1890 C.2     1  UNL1        0.2510
      2  O         18.4800  -20.3320  -11.7680 O.2     1  UNL1       -0.2680
      3  N         18.1590  -22.1220  -10.3640 N.am    1  UNL1       -0.3570
      4  H         18.4890  -23.0650  -10.1990 H       1  UNL1        0.1620
      5  C         20.3380  -21.7250  -11.3840 C.2     1  UNL1        0.0330
      6  C         21.0180  -22.5290  -10.4350 C.2     1  UNL1        0.0180
      7  C         22.3560  -22.8940  -10.6280 C.2     1  UNL1        0.0190
      8  C         22.9780  -22.4320  -11.7720 C.2     1  UNL1        0.0480
      9  C         24.3440  -22.6350  -12.2540 C.2     1  UNL1        0.2610
     10  C         22.3220  -21.6380  -12.6940 C.2     1  UNL1        0.0490
     11  N         24.4480  -21.9370  -13.4250 N.am    1  UNL1       -0.2800
     12  O         25.1730  -23.3160  -11.6810 O.2     1  UNL1       -0.2670
     13  C         23.2680  -21.3370  -13.7680 C.2     1  UNL1        0.2610
     14  O         22.9930  -20.6870  -14.7590 O.2     1  UNL1       -0.2670
     15  C         21.0030  -21.2610  -12.5310 C.2     1  UNL1        0.0350
     16  C         25.6360  -21.9230  -14.2580 C.3     1  UNL1        0.1360
     17  C         25.5870  -23.0310  -15.3150 C.3     1  UNL1        0.0240
     18  C         25.1130  -22.5380  -16.6940 C.3     1  UNL1       -0.0210
     19  C         24.0830  -23.4770  -17.3260 C.3     1  UNL1        0.0090
     20  C         26.3140  -22.3850  -17.6300 C.3     1  UNL1        0.0090
     21  C         16.7220  -21.9190  -10.2620 C.3     1  UNL1        0.1270
     22  C         15.9920  -23.1430   -9.7020 C.3     1  UNL1        0.0580
     23  C         16.1000  -23.2750   -8.1990 C.2     1  UNL1       -0.0570
     24  C         16.9910  -24.1970   -7.6280 C.2     1  UNL1        0.0090
     25  C         17.1050  -24.3020   -6.2410 C.2     1  UNL1        0.0250
     26  C         16.3180  -23.4900   -5.4220 C.2     1  UNL1        0.0740
     27  C         15.4320  -22.5640   -5.9740 C.2     1  UNL1        0.0250
     28  C         15.3220  -22.4610   -7.3610 C.2     1  UNL1        0.0090
     29  S         16.4800  -23.6210   -3.6600 S.O2    1  UNL1        0.2390
     30  O         17.8860  -23.6080   -3.3290 O.2     1  UNL1       -0.2060
     31  O         15.5810  -24.6500   -3.1980 O.2     1  UNL1       -0.2060
     32  N         15.8790  -22.1330   -3.1530 N.3     1  UNL1       -0.2250
     33  H         16.4930  -21.3920   -3.4980 H       1  UNL1        0.1360
     34  H         14.9070  -21.9770   -3.4180 H       1  UNL1        0.1360
@<TRIPOS>BOND
     1    20    18    1
     2    19    18    1
     3    18    17    1
     4    17    16    1
     5    14    13    2
     6    16    11    1
     7    13    11   am
     8    13    10    1
     9    11     9   am
    10    10    15    1
    11    10     8    2
    12    15     5    2
    13     9     8    1
    14     9    12    2
    15     8     7    1
    16     2     1    2
    17     5     1    1
    18     5     6    1
    19     1     3   am
    20     7     6    2
    21     3    21    1
    22     3     4    1
    23    21    22    1
    24    22    23    1
    25    23    24    2
    26    23    28    1
    27    24    25    1
    28    28    27    2
    29    25    26    2
    30    27    26    1
    31    26    29    1
    32    29    30    2
    33    29    31    2
    34    29    32    1
    35    33    32    1
    36    34    32    1
