@<TRIPOS>MOLECULE
51541_out_ligand_01.pdbqt
 28 31 0 0 0
SMALL
GASTEIGER

@<TRIPOS>ATOM
      1  C         20.7510  -22.0570  -11.3020 C.2     1  UNL1        0.0320
      2  C         19.6190  -21.2640  -11.5400 C.2     1  UNL1        0.0180
      3  C         18.4490  -21.4820  -10.8070 C.2     1  UNL1        0.0260
      4  C         18.4220  -22.4860   -9.8330 C.2     1  UNL1        0.0800
      5  C         19.5440  -23.2800   -9.5870 C.2     1  UNL1        0.0260
      6  C         20.7120  -23.0560  -10.3190 C.2     1  UNL1        0.0180
      7  S         16.9150  -22.7450   -8.9090 S.O2    1  UNL1        0.2650
      8  O         16.0980  -23.6770   -9.6580 O.2     1  UNL1       -0.2000
      9  O         16.4320  -21.4170   -8.5920 O.2     1  UNL1       -0.2000
     10  N         17.5000  -23.5410   -7.4910 N.pl3   1  UNL1       -0.2710
     11  C         16.6960  -24.7140   -7.0410 C.3     1  UNL1        0.1420
     12  C         15.5940  -24.2910   -6.0850 C.3     1  UNL1        0.0260
     13  C         16.1900  -23.6360   -4.8490 C.3     1  UNL1        0.0420
     14  C         17.2890  -22.6600   -5.1760 C.2     1  UNL1       -0.0310
     15  C         17.7290  -21.7870   -4.1680 C.2     1  UNL1        0.0090
     16  C         17.9330  -22.6560   -6.4250 C.2     1  UNL1        0.0510
     17  C         18.7940  -20.9180   -4.3950 C.2     1  UNL1        0.0010
     18  C         19.4430  -20.9260   -5.6250 C.2     1  UNL1        0.0020
     19  C         19.0180  -21.7960   -6.6310 C.2     1  UNL1        0.0310
     20  C         22.0210  -21.8520  -12.0510 C.2     1  UNL1        0.2520
     21  O         22.0030  -21.2950  -13.1430 O.2     1  UNL1       -0.2680
     22  N         23.1730  -22.2880  -11.4290 N.am    1  UNL1       -0.3520
     23  H         23.1330  -22.4840  -10.4380 H       1  UNL1        0.1630
     24  C         24.4750  -22.0400  -12.0140 C.3     1  UNL1        0.0840
     25  C         25.2170  -23.3200  -12.4010 C.3     1  UNL1        0.0250
     26  C         26.7010  -22.9560  -12.3670 C.3     1  UNL1        0.0020
     27  C         26.7940  -21.5950  -11.6810 C.3     1  UNL1        0.0020
     28  C         25.4360  -21.3810  -11.0310 C.3     1  UNL1        0.0250
@<TRIPOS>BOND
     1    21    20    2
     2    25    26    1
     3    25    24    1
     4    26    27    1
     5    20    22   am
     6    20     1    1
     7    24    22    1
     8    24    28    1
     9    27    28    1
    10     2     1    2
    11     2     3    1
    12    22    23    1
    13     1     6    1
    14     3     4    2
    15     6     5    2
    16     4     5    1
    17     4     7    1
    18     8     7    2
    19     7     9    2
    20     7    10    1
    21    10    11    1
    22    10    16    1
    23    11    12    1
    24    19    16    1
    25    19    18    2
    26    16    14    2
    27    12    13    1
    28    18    17    1
    29    14    13    1
    30    14    15    1
    31    17    15    2
