@<TRIPOS>MOLECULE
51552_out_ligand_01.pdbqt
 36 39 0 0 0
SMALL
GASTEIGER

@<TRIPOS>ATOM
      1  N         23.4490  -23.4390  -11.0860 N.pl3   1  UNL1       -0.2830
      2  H         22.4390  -23.6320  -10.9890 H       1  UNL1        0.1280
      3  C         23.9780  -22.9560   -9.8060 C.3     1  UNL1        0.1950
      4  C         22.8650  -22.6420   -8.7910 C.2     1  UNL1        0.2350
      5  O         23.0160  -21.7780   -7.9310 O.2     1  UNL1       -0.2720
      6  N         21.7230  -23.4060   -8.9880 N.am    1  UNL1       -0.3260
      7  H         21.7120  -24.0190   -9.7930 H       1  UNL1        0.1690
      8  C         20.5490  -23.4040   -8.2080 C.2     1  UNL1        0.0340
      9  C         19.7170  -24.5090   -8.0430 C.2     1  UNL1        0.0310
     10  C         18.5570  -24.4220   -7.2570 C.2     1  UNL1        0.0260
     11  C         18.2000  -23.2340   -6.6100 C.2     1  UNL1        0.0100
     12  C         19.0440  -22.1280   -6.7910 C.2     1  UNL1        0.0260
     13  C         20.1980  -22.2070   -7.5800 C.2     1  UNL1        0.0310
     14  N         17.0500  -23.0900   -5.8120 N.pl3   1  UNL1       -0.2830
     15  C         15.9080  -22.5350   -6.5680 C.3     1  UNL1        0.0950
     16  C         14.6180  -22.7160   -5.7670 C.3     1  UNL1        0.0150
     17  C         14.7430  -22.1300   -4.3630 C.3     1  UNL1        0.0020
     18  C         15.9720  -22.6940   -3.6490 C.3     1  UNL1        0.0150
     19  C         17.2350  -22.4840   -4.4830 C.3     1  UNL1        0.0950
     20  C         23.6430  -22.6980  -12.2690 C.2     1  UNL1        0.0240
     21  C         24.6760  -22.9910  -13.1740 C.2     1  UNL1        0.0240
     22  C         24.8250  -22.2840  -14.3730 C.2     1  UNL1        0.0020
     23  C         23.9250  -21.2790  -14.7120 C.2     1  UNL1        0.0010
     24  C         22.8580  -20.9990  -13.8640 C.2     1  UNL1        0.0190
     25  C         22.6970  -21.7220  -12.6680 C.2     1  UNL1        0.0530
     26  C         21.5200  -21.4120  -11.8010 C.2     1  UNL1        0.2580
     27  O         21.6780  -20.6740  -10.8350 O.2     1  UNL1       -0.2670
     28  N         20.3470  -22.0440  -12.1820 N.am    1  UNL1       -0.3230
     29  H         20.4230  -22.7290  -12.9210 H       1  UNL1        0.1690
     30  C         19.0750  -21.9120  -11.5890 C.2     1  UNL1        0.0350
     31  C         18.5610  -23.0350  -10.9210 C.2     1  UNL1        0.0320
     32  C         17.3020  -22.9870  -10.3170 C.2     1  UNL1        0.0440
     33  C         16.5550  -21.8190  -10.3810 C.2     1  UNL1        0.1160
     34  F         15.3470  -21.7760   -9.8060 F       1  UNL1       -0.2060
     35  C         17.0460  -20.6970  -11.0340 C.2     1  UNL1        0.0440
     36  C         18.3060  -20.7450  -11.6400 C.2     1  UNL1        0.0320
@<TRIPOS>BOND
     1    23    22    2
     2    23    24    1
     3    22    21    1
     4    24    25    2
     5    21    20    2
     6    29    28    1
     7    25    20    1
     8    25    26    1
     9    20     1    1
    10    28    26   am
    11    28    30    1
    12    26    27    2
    13    36    30    2
    14    36    35    1
    15    30    31    1
    16     1     2    1
    17     1     3    1
    18    35    33    2
    19    31    32    2
    20    33    32    1
    21    33    34    1
    22     3     4    1
    23     7     6    1
    24     6     4   am
    25     6     8    1
    26     4     5    2
    27     8     9    2
    28     8    13    1
    29     9    10    1
    30    13    12    2
    31    10    11    2
    32    12    11    1
    33    11    14    1
    34    15    14    1
    35    15    16    1
    36    14    19    1
    37    16    17    1
    38    19    18    1
    39    17    18    1
