@<TRIPOS>MOLECULE
51553_out_ligand_01.pdbqt
 35 38 0 0 0
SMALL
GASTEIGER

@<TRIPOS>ATOM
      1  N         23.3430  -23.2940  -10.7960 N.pl3   1  UNL1       -0.2830
      2  H         22.3360  -23.5140  -10.7180 H       1  UNL1        0.1280
      3  C         23.8070  -22.6410   -9.5670 C.3     1  UNL1        0.1950
      4  C         22.6660  -22.3740   -8.5680 C.2     1  UNL1        0.2350
      5  O         22.7530  -21.4800   -7.7310 O.2     1  UNL1       -0.2720
      6  N         21.5820  -23.2210   -8.7510 N.am    1  UNL1       -0.3260
      7  H         21.6430  -23.8880   -9.5090 H       1  UNL1        0.1690
      8  C         20.3870  -23.2600   -8.0060 C.2     1  UNL1        0.0340
      9  C         19.8820  -22.1900   -7.2760 C.2     1  UNL1        0.0320
     10  C         18.6790  -22.3140   -6.5600 C.2     1  UNL1        0.0310
     11  C         17.9430  -23.5050   -6.5540 C.2     1  UNL1        0.0300
     12  C         18.4700  -24.5750   -7.2940 C.2     1  UNL1        0.0310
     13  C         19.6710  -24.4600   -8.0050 C.2     1  UNL1        0.0320
     14  N         16.7370  -23.6670   -5.8610 N.pl3   1  UNL1       -0.3810
     15  C         15.5930  -22.9720   -6.4860 C.3     1  UNL1        0.1230
     16  C         14.4220  -22.8380   -5.5140 C.3     1  UNL1        0.0200
     17  C         14.8290  -22.0990   -4.2400 C.3     1  UNL1        0.0030
     18  C         16.2520  -22.4350   -3.7870 C.3     1  UNL1        0.0200
     19  C         16.7390  -23.7450   -4.3940 C.3     1  UNL1        0.1230
     20  C         23.5780  -22.7200  -12.0580 C.2     1  UNL1        0.0240
     21  C         24.6240  -23.1470  -12.8930 C.2     1  UNL1        0.0240
     22  C         24.8120  -22.6020  -14.1690 C.2     1  UNL1        0.0020
     23  C         23.9410  -21.6350  -14.6570 C.2     1  UNL1        0.0010
     24  C         22.8610  -21.2300  -13.8790 C.2     1  UNL1        0.0190
     25  C         22.6610  -21.7880  -12.6030 C.2     1  UNL1        0.0530
     26  C         21.4670  -21.3560  -11.8180 C.2     1  UNL1        0.2580
     27  O         21.5900  -20.4370  -11.0180 O.2     1  UNL1       -0.2670
     28  N         20.3240  -22.0970  -12.0670 N.am    1  UNL1       -0.3230
     29  H         20.4330  -22.9090  -12.6590 H       1  UNL1        0.1690
     30  C         19.0440  -21.9130  -11.5070 C.2     1  UNL1        0.0350
     31  C         18.3110  -20.7290  -11.6060 C.2     1  UNL1        0.0290
     32  C         17.0440  -20.6280  -11.0240 C.2     1  UNL1        0.0020
     33  C         16.4970  -21.7110  -10.3390 C.2     1  UNL1        0.0000
     34  C         17.2170  -22.8980  -10.2380 C.2     1  UNL1        0.0020
     35  C         18.4830  -22.9980  -10.8210 C.2     1  UNL1        0.0290
@<TRIPOS>BOND
     1    23    22    2
     2    23    24    1
     3    22    21    1
     4    24    25    2
     5    21    20    2
     6    29    28    1
     7    25    20    1
     8    25    26    1
     9    28    26   am
    10    28    30    1
    11    20     1    1
    12    26    27    2
    13    31    30    2
    14    31    32    1
    15    30    35    1
    16    32    33    2
    17    35    34    2
    18     1     2    1
    19     1     3    1
    20    33    34    1
    21     3     4    1
    22     7     6    1
    23     6     4   am
    24     6     8    1
    25     4     5    2
    26     8    13    2
    27     8     9    1
    28    13    12    1
    29    12    11    2
    30     9    10    2
    31    10    11    1
    32    11    14    1
    33    15    14    1
    34    15    16    1
    35    14    19    1
    36    16    17    1
    37    19    18    1
    38    17    18    1
