@<TRIPOS>MOLECULE
51563_out_ligand_01.pdbqt
 35 38 0 0 0
SMALL
GASTEIGER

@<TRIPOS>ATOM
      1  N         22.2650  -21.8260   -8.9560 N.am    1  UNL1       -0.3550
      2  C         23.2450  -22.6520   -9.4630 C.2     1  UNL1        0.2760
      3  O         23.6350  -23.6540   -8.8700 O.2     1  UNL1       -0.2650
      4  H         21.8990  -21.1340   -9.6010 H       1  UNL1        0.1620
      5  C         23.7560  -22.2260  -10.7510 C.ar    1  UNL1        0.1520
      6  O         25.1040  -21.9980  -10.8680 O.2     1  UNL1       -0.3040
      7  C         25.3450  -21.6130  -12.1470 C.ar    1  UNL1        0.0870
      8  C         26.5960  -21.2860  -12.6670 C.2     1  UNL1        0.0380
      9  C         24.1650  -21.5900  -12.8740 C.ar    1  UNL1        0.0090
     10  C         26.6360  -20.9160  -14.0150 C.2     1  UNL1        0.0030
     11  C         25.4720  -20.8810  -14.7850 C.2     1  UNL1        0.0010
     12  C         24.2290  -21.2150  -14.2300 C.2     1  UNL1        0.0150
     13  C         23.1270  -21.9830  -11.9670 C.ar    1  UNL1        0.0180
     14  C         21.6730  -22.1280  -12.2800 C.3     1  UNL1        0.2180
     15  O         20.8570  -21.1290  -11.6560 O.2     1  UNL1       -0.3470
     16  C         19.5740  -21.4550  -11.3110 C.2     1  UNL1        0.0690
     17  C         18.6570  -20.4080  -11.4460 C.2     1  UNL1        0.0370
     18  C         17.3120  -20.5900  -11.1240 C.2     1  UNL1        0.0030
     19  C         16.8710  -21.8270  -10.6650 C.2     1  UNL1        0.0000
     20  C         17.7760  -22.8790  -10.5320 C.2     1  UNL1        0.0030
     21  C         19.1250  -22.6940  -10.8550 C.2     1  UNL1        0.0370
     22  C         21.4820  -22.1670   -7.7850 C.3     1  UNL1        0.1270
     23  C         20.4830  -23.2940   -8.0570 C.3     1  UNL1        0.0580
     24  C         19.2330  -23.2020   -7.2110 C.2     1  UNL1       -0.0570
     25  C         18.2940  -24.2460   -7.2190 C.2     1  UNL1        0.0090
     26  C         17.1480  -24.1740   -6.4260 C.2     1  UNL1        0.0250
     27  C         16.9340  -23.0480   -5.6270 C.2     1  UNL1        0.0740
     28  C         17.8660  -22.0070   -5.5970 C.2     1  UNL1        0.0250
     29  C         19.0120  -22.0850   -6.3920 C.2     1  UNL1        0.0090
     30  S         15.4940  -22.9620   -4.6040 S.O2    1  UNL1        0.2390
     31  O         14.5240  -22.0800   -5.2140 O.2     1  UNL1       -0.2060
     32  O         15.1550  -24.2920   -4.1490 O.2     1  UNL1       -0.2060
     33  N         16.0770  -22.1440   -3.2580 N.3     1  UNL1       -0.2250
     34  H         16.8260  -21.5080   -3.5320 H       1  UNL1        0.1360
     35  H         15.3060  -21.6900   -2.7680 H       1  UNL1        0.1360
@<TRIPOS>BOND
     1    11    12    2
     2    11    10    1
     3    12     9    1
     4    10     8    2
     5     9     7   ar
     6     9    13   ar
     7     8     7    1
     8    14    13    1
     9    14    15    1
    10     7     6   ar
    11    13     5   ar
    12    15    16    1
    13    17    16    2
    14    17    18    1
    15    16    21    1
    16    18    19    2
    17     6     5   ar
    18    21    20    2
    19     5     2    1
    20    19    20    1
    21     4     1    1
    22     2     1   am
    23     2     3    2
    24     1    22    1
    25    23    22    1
    26    23    24    1
    27    25    24    2
    28    25    26    1
    29    24    29    1
    30    26    27    2
    31    29    28    2
    32    27    28    1
    33    27    30    1
    34    31    30    2
    35    30    32    2
    36    30    33    1
    37    34    33    1
    38    33    35    1
