@<TRIPOS>MOLECULE
51566_out_ligand_01.pdbqt
 31 34 0 0 0
SMALL
GASTEIGER

@<TRIPOS>ATOM
      1  C         20.7180  -22.1280  -11.2510 C.2     1  UNL1        0.0320
      2  C         20.6690  -23.0860  -10.2290 C.2     1  UNL1        0.0180
      3  C         19.4910  -23.2830   -9.5070 C.2     1  UNL1        0.0260
      4  C         18.3710  -22.5020   -9.8010 C.2     1  UNL1        0.0800
      5  C         18.4110  -21.5360  -10.8130 C.2     1  UNL1        0.0260
      6  C         19.5890  -21.3450  -11.5360 C.2     1  UNL1        0.0180
      7  S         16.8490  -22.7260   -8.8910 S.O2    1  UNL1        0.2650
      8  O         16.3990  -21.3860   -8.5730 O.2     1  UNL1       -0.2000
      9  O         16.0150  -23.6320   -9.6550 O.2     1  UNL1       -0.2000
     10  N         17.4040  -23.5430   -7.4750 N.pl3   1  UNL1       -0.2710
     11  C         16.5800  -24.7110   -7.0490 C.3     1  UNL1        0.1420
     12  C         15.4710  -24.2820   -6.1000 C.3     1  UNL1        0.0260
     13  C         16.0600  -23.6490   -4.8500 C.3     1  UNL1        0.0420
     14  C         17.1810  -22.6890   -5.1510 C.2     1  UNL1       -0.0310
     15  C         17.6260  -21.8380   -4.1260 C.2     1  UNL1        0.0090
     16  C         17.8400  -22.6800   -6.3930 C.2     1  UNL1        0.0510
     17  C         18.7120  -20.9870   -4.3290 C.2     1  UNL1        0.0010
     18  C         19.3740  -20.9910   -5.5530 C.2     1  UNL1        0.0020
     19  C         18.9430  -21.8390   -6.5760 C.2     1  UNL1        0.0310
     20  C         21.9960  -21.9420  -11.9920 C.2     1  UNL1        0.2560
     21  N         23.1180  -22.4170  -11.3360 N.am    1  UNL1       -0.3230
     22  H         22.9960  -22.7180  -10.3770 H       1  UNL1        0.1690
     23  O         21.9560  -21.3720  -13.0750 O.2     1  UNL1       -0.2670
     24  C         24.4440  -22.4400  -11.8180 C.2     1  UNL1        0.0360
     25  C         25.3170  -21.4580  -11.3310 C.2     1  UNL1        0.0290
     26  C         26.6480  -21.4170  -11.7490 C.2     1  UNL1        0.0040
     27  C         27.1210  -22.3620  -12.6580 C.2     1  UNL1        0.0180
     28  C         26.2620  -23.3460  -13.1510 C.2     1  UNL1        0.0020
     29  C         24.9280  -23.3860  -12.7250 C.2     1  UNL1        0.0480
     30  S         26.8700  -24.5620  -14.3060 S.3     1  UNL1       -0.1340
     31  C         25.2860  -25.0380  -15.0580 C.3     1  UNL1        0.0950
@<TRIPOS>BOND
     1    31    30    1
     2    30    28    1
     3    28    29    1
     4    28    27    2
     5    23    20    2
     6    29    24    2
     7    27    26    1
     8    20    21   am
     9    20     1    1
    10    24    21    1
    11    24    25    1
    12    26    25    2
    13     6     1    2
    14     6     5    1
    15    21    22    1
    16     1     2    1
    17     5     4    2
    18     2     3    2
    19     4     3    1
    20     4     7    1
    21     9     7    2
    22     7     8    2
    23     7    10    1
    24    10    11    1
    25    10    16    1
    26    11    12    1
    27    19    16    1
    28    19    18    2
    29    16    14    2
    30    12    13    1
    31    18    17    1
    32    14    13    1
    33    14    15    1
    34    17    15    2
