@<TRIPOS>MOLECULE
51572_out_ligand_01.pdbqt
 37 40 0 0 0
SMALL
GASTEIGER

@<TRIPOS>ATOM
      1  N         23.9500  -23.3820  -11.1520 N.pl3   1  UNL1       -0.2830
      2  H         22.9600  -23.1790  -11.3740 H       1  UNL1        0.1280
      3  C         24.7550  -22.5440  -11.9490 C.2     1  UNL1        0.0240
      4  C         26.1530  -22.6660  -11.9810 C.2     1  UNL1        0.0240
      5  C         26.9390  -21.8670  -12.8210 C.2     1  UNL1        0.0020
      6  C         26.3440  -20.9390  -13.6670 C.2     1  UNL1        0.0010
      7  C         24.9570  -20.8290  -13.6990 C.2     1  UNL1        0.0190
      8  C         24.1630  -21.6470  -12.8730 C.2     1  UNL1        0.0530
      9  C         22.6760  -21.5240  -12.9610 C.2     1  UNL1        0.2580
     10  N         22.0270  -21.5120  -11.7370 N.am    1  UNL1       -0.3230
     11  H         22.6120  -21.4650  -10.9160 H       1  UNL1        0.1690
     12  O         22.1590  -21.4140  -14.0670 O.2     1  UNL1       -0.2670
     13  C         20.6380  -21.4330  -11.5050 C.2     1  UNL1        0.0350
     14  C         19.8840  -20.2700  -11.6630 C.2     1  UNL1        0.0300
     15  C         18.5070  -20.2750  -11.4120 C.2     1  UNL1        0.0090
     16  C         17.8590  -21.4450  -10.9990 C.2     1  UNL1       -0.0580
     17  C         18.6120  -22.6150  -10.8540 C.2     1  UNL1        0.0090
     18  C         19.9880  -22.6070  -11.1020 C.2     1  UNL1        0.0300
     19  C         16.3740  -21.4460  -10.7420 C.3     1  UNL1        0.0340
     20  C         15.9600  -22.5750   -9.8100 C.3     1  UNL1        0.0100
     21  C         24.1270  -23.4170   -9.6970 C.3     1  UNL1        0.1950
     22  C         22.9520  -22.7780   -8.9340 C.2     1  UNL1        0.2350
     23  O         22.9500  -21.5860   -8.6420 O.2     1  UNL1       -0.2720
     24  N         21.9280  -23.6830   -8.6790 N.am    1  UNL1       -0.3260
     25  H         22.0310  -24.6160   -9.0560 H       1  UNL1        0.1690
     26  C         20.7130  -23.4290   -8.0090 C.2     1  UNL1        0.0340
     27  C         20.5980  -22.2150   -7.3280 C.2     1  UNL1        0.0320
     28  C         19.4300  -21.9010   -6.6170 C.2     1  UNL1        0.0310
     29  C         18.3360  -22.7760   -6.5570 C.2     1  UNL1        0.0300
     30  C         18.4650  -23.9730   -7.2740 C.2     1  UNL1        0.0310
     31  C         19.6320  -24.3020   -7.9840 C.2     1  UNL1        0.0320
     32  N         17.1930  -22.4560   -5.8430 N.pl3   1  UNL1       -0.3770
     33  C         15.8590  -22.9060   -6.2700 C.3     1  UNL1        0.1490
     34  C         14.7770  -22.0910   -5.5400 C.3     1  UNL1        0.1870
     35  O         14.8230  -22.2030   -4.1100 O.3     1  UNL1       -0.3880
     36  C         16.1260  -22.5350   -3.6100 C.3     1  UNL1        0.1870
     37  C         17.2820  -21.9690   -4.4540 C.3     1  UNL1        0.1490
@<TRIPOS>BOND
     1    12     9    2
     2     7     6    2
     3     7     8    1
     4     6     5    1
     5     9     8    1
     6     9    10   am
     7     8     3    2
     8     5     4    2
     9     4     3    1
    10     3     1    1
    11    10    13    1
    12    10    11    1
    13    14    13    2
    14    14    15    1
    15    13    18    1
    16    15    16    2
    17     2     1    1
    18     1    21    1
    19    18    17    2
    20    16    17    1
    21    16    19    1
    22    19    20    1
    23    21    22    1
    24    25    24    1
    25    22    24   am
    26    22    23    2
    27    24    26    1
    28    26    31    2
    29    26    27    1
    30    31    30    1
    31    27    28    2
    32    30    29    2
    33    28    29    1
    34    29    32    1
    35    33    32    1
    36    33    34    1
    37    32    37    1
    38    34    35    1
    39    37    36    1
    40    35    36    1
