@<TRIPOS>MOLECULE
51576_out_ligand_01.pdbqt
 31 33 0 0 0
SMALL
GASTEIGER

@<TRIPOS>ATOM
      1  N         18.1760  -22.3490  -10.2160 N.am    1  UNL1       -0.3570
      2  C         19.0780  -21.5340  -10.8680 C.2     1  UNL1        0.2520
      3  O         18.7880  -20.4690  -11.3950 O.2     1  UNL1       -0.2680
      4  H         18.4630  -23.3070  -10.0460 H       1  UNL1        0.1620
      5  C         16.7510  -22.0790  -10.2820 C.3     1  UNL1        0.1270
      6  C         15.9080  -23.2120   -9.6930 C.3     1  UNL1        0.0580
      7  C         16.0220  -23.3270   -8.1890 C.2     1  UNL1       -0.0570
      8  C         15.5290  -22.3060   -7.3620 C.2     1  UNL1        0.0090
      9  C         15.6510  -22.3980   -5.9750 C.2     1  UNL1        0.0250
     10  C         16.2630  -23.5200   -5.4120 C.2     1  UNL1        0.0740
     11  C         16.7680  -24.5400   -6.2200 C.2     1  UNL1        0.0250
     12  C         16.6420  -24.4420   -7.6070 C.2     1  UNL1        0.0090
     13  S         16.4240  -23.6250   -3.6490 S.O2    1  UNL1        0.2390
     14  O         15.6290  -24.7370   -3.1800 O.2     1  UNL1       -0.2060
     15  O         17.8170  -23.4650   -3.3080 O.2     1  UNL1       -0.2060
     16  N         15.6030  -22.2400   -3.1540 N.3     1  UNL1       -0.2250
     17  H         14.8080  -22.5180   -2.5740 H       1  UNL1        0.1360
     18  H         15.3160  -21.6440   -3.9290 H       1  UNL1        0.1360
     19  C         20.4700  -22.0540  -10.9000 C.2     1  UNL1        0.0380
     20  C         21.2630  -21.7110  -12.0080 C.2     1  UNL1        0.0170
     21  C         22.5780  -22.1620  -12.1010 C.2     1  UNL1        0.0010
     22  C         23.1070  -22.9580  -11.0910 C.2     1  UNL1        0.0010
     23  C         22.3230  -23.3050   -9.9890 C.2     1  UNL1        0.0080
     24  C         20.9900  -22.8630   -9.8720 C.2     1  UNL1       -0.0380
     25  C         20.2030  -23.2480   -8.6350 C.3     1  UNL1        0.0780
     26  C         20.2580  -22.2230   -7.5230 C.2     1  UNL1       -0.0540
     27  C         19.1520  -22.0280   -6.6820 C.2     1  UNL1        0.0070
     28  C         19.2020  -21.0860   -5.6530 C.2     1  UNL1        0.0010
     29  C         20.3540  -20.3300   -5.4520 C.2     1  UNL1        0.0000
     30  C         21.4590  -20.5130   -6.2820 C.2     1  UNL1        0.0010
     31  C         21.4120  -21.4540   -7.3120 C.2     1  UNL1        0.0070
@<TRIPOS>BOND
     1    21    20    1
     2    21    22    2
     3    20    19    2
     4     3     2    2
     5    22    23    1
     6    19     2    1
     7    19    24    1
     8     2     1   am
     9     5     1    1
    10     5     6    1
    11     1     4    1
    12    23    24    2
    13    24    25    1
    14     6     7    1
    15    25    26    1
    16     7    12    2
    17     7     8    1
    18    12    11    1
    19    26    31    2
    20    26    27    1
    21     8     9    2
    22    31    30    1
    23    27    28    2
    24    30    29    2
    25    11    10    2
    26     9    10    1
    27    28    29    1
    28    10    13    1
    29    18    16    1
    30    13    15    2
    31    13    14    2
    32    13    16    1
    33    16    17    1
