@<TRIPOS>MOLECULE
51573_out_ligand_01.pdbqt
 36 39 0 0 0
SMALL
GASTEIGER

@<TRIPOS>ATOM
      1  N         23.2560  -23.4720  -11.0290 N.pl3   1  UNL1       -0.2830
      2  H         23.5010  -24.4640  -11.1850 H       1  UNL1        0.1280
      3  C         23.8500  -23.0050   -9.7730 C.3     1  UNL1        0.1950
      4  C         22.7930  -22.5550   -8.7500 C.2     1  UNL1        0.2350
      5  O         23.0020  -21.6050   -7.9990 O.2     1  UNL1       -0.2720
      6  N         21.6450  -23.3380   -8.7800 N.am    1  UNL1       -0.3260
      7  H         21.6250  -24.0970   -9.4480 H       1  UNL1        0.1690
      8  C         20.4900  -23.1990   -7.9850 C.2     1  UNL1        0.0340
      9  C         19.6460  -24.3070   -7.8860 C.2     1  UNL1        0.0310
     10  C         18.4810  -24.2500   -7.1090 C.2     1  UNL1        0.0260
     11  C         18.1180  -23.0940   -6.4010 C.2     1  UNL1        0.0100
     12  C         18.9670  -21.9870   -6.5310 C.2     1  UNL1        0.0260
     13  C         20.1380  -22.0380   -7.3050 C.2     1  UNL1        0.0310
     14  N         16.9360  -23.0860   -5.6450 N.pl3   1  UNL1       -0.2790
     15  C         15.7670  -22.3620   -6.1910 C.3     1  UNL1        0.1220
     16  C         14.5270  -22.6410   -5.3270 C.3     1  UNL1        0.1820
     17  O         14.7500  -22.2720   -3.9560 O.3     1  UNL1       -0.3890
     18  C         15.8480  -23.0260   -3.4210 C.3     1  UNL1        0.1820
     19  C         17.1460  -22.7770   -4.2080 C.3     1  UNL1        0.1220
     20  C         23.4510  -22.7690  -12.2320 C.2     1  UNL1        0.0240
     21  C         24.5950  -22.9420  -13.0240 C.2     1  UNL1        0.0240
     22  C         24.8020  -22.1930  -14.1900 C.2     1  UNL1        0.0020
     23  C         23.8790  -21.2290  -14.5800 C.2     1  UNL1        0.0010
     24  C         22.7610  -20.9910  -13.7870 C.2     1  UNL1        0.0190
     25  C         22.5620  -21.7320  -12.6070 C.2     1  UNL1        0.0530
     26  C         21.3730  -21.4130  -11.7630 C.2     1  UNL1        0.2580
     27  O         21.5090  -20.6440  -10.8190 O.2     1  UNL1       -0.2670
     28  N         20.1990  -22.0130  -12.1840 N.am    1  UNL1       -0.3230
     29  H         20.2360  -22.5000  -13.0710 H       1  UNL1        0.1690
     30  C         18.9290  -21.9330  -11.5750 C.2     1  UNL1        0.0350
     31  C         18.4900  -23.0610  -10.8670 C.2     1  UNL1        0.0320
     32  C         17.2470  -23.0580  -10.2280 C.2     1  UNL1        0.0440
     33  C         16.4460  -21.9270  -10.2960 C.2     1  UNL1        0.1160
     34  F         15.2560  -21.9230   -9.6820 F       1  UNL1       -0.2060
     35  C         16.8660  -20.8010  -10.9900 C.2     1  UNL1        0.0440
     36  C         18.1100  -20.8030  -11.6290 C.2     1  UNL1        0.0320
@<TRIPOS>BOND
     1    23    22    2
     2    23    24    1
     3    22    21    1
     4    24    25    2
     5    29    28    1
     6    21    20    2
     7    25    20    1
     8    25    26    1
     9    20     1    1
    10    28    26   am
    11    28    30    1
    12    26    27    2
    13    36    30    2
    14    36    35    1
    15    30    31    1
    16     2     1    1
    17     1     3    1
    18    35    33    2
    19    31    32    2
    20    33    32    1
    21    33    34    1
    22     3     4    1
    23     7     6    1
    24     6     4   am
    25     6     8    1
    26     4     5    2
    27     8     9    2
    28     8    13    1
    29     9    10    1
    30    13    12    2
    31    10    11    2
    32    12    11    1
    33    11    14    1
    34    15    14    1
    35    15    16    1
    36    14    19    1
    37    16    17    1
    38    19    18    1
    39    17    18    1
