@<TRIPOS>MOLECULE
5158_out_ligand_01.pdbqt
 30 33 0 0 0
SMALL
GASTEIGER

@<TRIPOS>ATOM
      1  N         25.0000  -25.0320  -14.1660 N.1     1  UNL1       -0.1910
      2  C         25.1940  -24.0700  -13.5430 C.1     1  UNL1        0.1020
      3  C         25.5850  -22.9220  -12.7780 C.2     1  UNL1        0.0790
      4  C         26.9100  -22.3750  -12.8710 C.2     1  UNL1        0.0330
      5  C         27.1210  -21.3400  -11.9870 C.2     1  UNL1        0.0530
      6  S         25.7390  -21.0370  -11.0330 S.3     1  UNL1       -0.0830
      7  C         24.8340  -22.2440  -11.8400 C.2     1  UNL1        0.0970
      8  N         23.5430  -22.2990  -11.3600 N.am    1  UNL1       -0.3160
      9  C         22.4290  -21.9350  -12.0830 C.2     1  UNL1        0.2560
     10  O         22.4260  -21.4290  -13.1960 O.2     1  UNL1       -0.2670
     11  H         23.4570  -22.4240  -10.3590 H       1  UNL1        0.1690
     12  C         21.1290  -22.1220  -11.3770 C.2     1  UNL1        0.0320
     13  C         20.0160  -21.3150  -11.6580 C.2     1  UNL1        0.0180
     14  C         18.8190  -21.5140  -10.9680 C.2     1  UNL1        0.0260
     15  C         18.7430  -22.5140   -9.9910 C.2     1  UNL1        0.0800
     16  C         19.8460  -23.3200   -9.7000 C.2     1  UNL1        0.0260
     17  C         21.0430  -23.1130  -10.3900 C.2     1  UNL1        0.0180
     18  S         17.1990  -22.7510   -9.1240 S.O2    1  UNL1        0.2650
     19  O         16.7230  -21.4160   -8.8270 O.2     1  UNL1       -0.2000
     20  O         16.3990  -23.6710   -9.9050 O.2     1  UNL1       -0.2000
     21  N         17.7180  -23.5530   -7.6850 N.pl3   1  UNL1       -0.2710
     22  C         16.8920  -24.7270   -7.2760 C.3     1  UNL1        0.1420
     23  C         15.7480  -24.3040   -6.3700 C.3     1  UNL1        0.0260
     24  C         16.2880  -23.6550   -5.1060 C.3     1  UNL1        0.0420
     25  C         17.4010  -22.6800   -5.3790 C.2     1  UNL1       -0.0310
     26  C         17.7950  -21.8080   -4.3500 C.2     1  UNL1        0.0090
     27  C         18.1030  -22.6720   -6.5960 C.2     1  UNL1        0.0510
     28  C         18.8710  -20.9400   -4.5250 C.2     1  UNL1        0.0010
     29  C         19.5760  -20.9470   -5.7230 C.2     1  UNL1        0.0020
     30  C         19.1980  -21.8150   -6.7500 C.2     1  UNL1        0.0310
@<TRIPOS>BOND
     1     1     2    3
     2     2     3    1
     3    10     9    2
     4     4     3    1
     5     4     5    2
     6     3     7    2
     7     9    12    1
     8     9     8   am
     9     5     6    1
    10     7     8    1
    11     7     6    1
    12    13    12    2
    13    13    14    1
    14    12    17    1
    15     8    11    1
    16    14    15    2
    17    17    16    2
    18    15    16    1
    19    15    18    1
    20    20    18    2
    21    18    19    2
    22    18    21    1
    23    21    22    1
    24    21    27    1
    25    22    23    1
    26    30    27    1
    27    30    29    2
    28    27    25    2
    29    23    24    1
    30    29    28    1
    31    25    24    1
    32    25    26    1
    33    28    26    2
