@<TRIPOS>MOLECULE
51580_out_ligand_01.pdbqt
 33 36 0 0 0
SMALL
GASTEIGER

@<TRIPOS>ATOM
      1  N         20.0670  -22.8150   -8.4970 N.pl3   1  UNL1       -0.2830
      2  H         20.4490  -22.0400   -7.9230 H       1  UNL1        0.1280
      3  C         21.1770  -23.7200   -8.8410 C.3     1  UNL1        0.1950
      4  C         22.4680  -22.9520   -9.1840 C.2     1  UNL1        0.2350
      5  O         22.8810  -22.0610   -8.4460 O.2     1  UNL1       -0.2720
      6  N         23.0580  -23.3890  -10.3680 N.am    1  UNL1       -0.3250
      7  H         22.5550  -24.1070  -10.8610 H       1  UNL1        0.1690
      8  C         24.2510  -22.9270  -10.9870 C.2     1  UNL1        0.0450
      9  C         25.5090  -23.2260  -10.4500 C.2     1  UNL1        0.0300
     10  C         26.6750  -22.7560  -11.0500 C.2     1  UNL1        0.0030
     11  C         26.6040  -21.9760  -12.1960 C.2     1  UNL1        0.0120
     12  C         25.3680  -21.6620  -12.7700 C.2     1  UNL1       -0.0240
     13  C         25.3330  -20.8860  -13.9430 C.2     1  UNL1        0.0120
     14  C         24.1640  -22.1320  -12.1770 C.2     1  UNL1        0.0010
     15  C         24.1270  -20.5750  -14.5640 C.2     1  UNL1        0.0010
     16  C         22.9360  -21.0250  -14.0130 C.2     1  UNL1        0.0010
     17  C         22.9530  -21.7860  -12.8390 C.2     1  UNL1        0.0140
     18  C         19.2810  -22.2660   -9.5350 C.2     1  UNL1        0.0240
     19  C         19.8700  -21.7710  -10.7140 C.2     1  UNL1        0.0240
     20  C         19.0930  -21.2510  -11.7600 C.2     1  UNL1        0.0020
     21  C         17.7060  -21.2370  -11.6620 C.2     1  UNL1        0.0010
     22  C         17.0900  -21.7840  -10.5360 C.2     1  UNL1        0.0190
     23  C         17.8650  -22.3320   -9.4940 C.2     1  UNL1        0.0530
     24  C         17.1690  -22.9580   -8.3210 C.2     1  UNL1        0.2580
     25  O         16.4430  -23.9260   -8.5210 O.2     1  UNL1       -0.2670
     26  N         17.3900  -22.3240   -7.1080 N.am    1  UNL1       -0.3230
     27  H         17.9030  -21.4560   -7.1410 H       1  UNL1        0.1690
     28  C         16.8500  -22.6670   -5.8470 C.2     1  UNL1        0.0350
     29  C         17.6950  -23.3300   -4.9440 C.2     1  UNL1        0.0290
     30  C         17.2460  -23.6900   -3.6670 C.2     1  UNL1        0.0020
     31  C         15.9430  -23.3930   -3.2860 C.2     1  UNL1        0.0000
     32  C         15.0940  -22.7420   -4.1800 C.2     1  UNL1        0.0020
     33  C         15.5440  -22.3820   -5.4560 C.2     1  UNL1        0.0290
@<TRIPOS>BOND
     1    15    16    1
     2    15    13    2
     3    16    17    2
     4    13    12    1
     5    17    14    1
     6    12    11    2
     7    12    14    1
     8    11    10    1
     9    14     8    2
    10    20    21    2
    11    20    19    1
    12    21    22    1
    13    10     9    2
    14     8     9    1
    15     8     6    1
    16     7     6    1
    17    19    18    2
    18    22    23    2
    19     6     4   am
    20    18    23    1
    21    18     1    1
    22    23    24    1
    23     4     3    1
    24     4     5    2
    25     3     1    1
    26    25    24    2
    27     1     2    1
    28    24    26   am
    29    27    26    1
    30    26    28    1
    31    28    33    2
    32    28    29    1
    33    33    32    1
    34    29    30    2
    35    32    31    2
    36    30    31    1
