@<TRIPOS>MOLECULE
51592_out_ligand_01.pdbqt
 41 44 0 0 0
SMALL
GASTEIGER

@<TRIPOS>ATOM
      1  C         20.5220  -21.9070  -11.3390 C.2     1  UNL1        0.0320
      2  C         21.2830  -21.4940  -12.4400 C.2     1  UNL1        0.0190
      3  C         22.6230  -21.8710  -12.5540 C.2     1  UNL1        0.0310
      4  C         23.2040  -22.6660  -11.5680 C.2     1  UNL1        0.0420
      5  C         22.4510  -23.0980  -10.4770 C.2     1  UNL1        0.0310
      6  C         21.1080  -22.7230  -10.3610 C.2     1  UNL1        0.0190
      7  C         19.0940  -21.4900  -11.2710 C.2     1  UNL1        0.2510
      8  N         18.2820  -22.2030  -10.4120 N.am    1  UNL1       -0.3570
      9  H         18.7030  -22.8250   -9.7360 H       1  UNL1        0.1620
     10  O         18.7000  -20.5410  -11.9390 O.2     1  UNL1       -0.2680
     11  C         16.9000  -21.8120  -10.1960 C.3     1  UNL1        0.1270
     12  C         16.0310  -22.9790   -9.7160 C.3     1  UNL1        0.0580
     13  C         16.1280  -23.1700   -8.2220 C.2     1  UNL1       -0.0570
     14  C         15.4930  -22.2670   -7.3550 C.2     1  UNL1        0.0090
     15  C         15.5960  -22.4240   -5.9720 C.2     1  UNL1        0.0250
     16  C         16.3330  -23.4900   -5.4550 C.2     1  UNL1        0.0740
     17  C         16.9820  -24.3900   -6.3040 C.2     1  UNL1        0.0250
     18  C         16.8770  -24.2280   -7.6860 C.2     1  UNL1        0.0090
     19  S         16.4590  -23.6820   -3.6970 S.O2    1  UNL1        0.2390
     20  O         17.8580  -23.7220   -3.3420 O.2     1  UNL1       -0.2060
     21  O         15.5200  -24.6960   -3.2740 O.2     1  UNL1       -0.2060
     22  N         15.8220  -22.2220   -3.1530 N.3     1  UNL1       -0.2250
     23  H         15.0470  -22.3390   -2.5030 H       1  UNL1        0.1360
     24  H         16.5770  -21.6630   -2.7510 H       1  UNL1        0.1360
     25  N         24.5530  -23.0850  -11.7140 N.pl3   1  UNL1       -0.2810
     26  H         24.7830  -23.6590  -12.5250 H       1  UNL1        0.1790
     27  S         25.7690  -21.9420  -11.4320 S.O2    1  UNL1        0.2630
     28  O         26.9760  -22.6170  -11.0050 O.2     1  UNL1       -0.2000
     29  O         25.1630  -20.9100  -10.6170 O.2     1  UNL1       -0.2000
     30  C         26.0360  -21.2560  -13.0480 C.2     1  UNL1        0.0820
     31  C         26.3120  -22.1310  -14.1290 C.2     1  UNL1        0.0280
     32  C         26.5150  -21.6280  -15.4190 C.2     1  UNL1        0.0330
     33  C         26.4250  -20.2640  -15.5690 C.ar    1  UNL1        0.0630
     34  N         26.5770  -19.4860  -16.7110 N.ar    1  UNL1       -0.3070
     35  C         26.1420  -19.4090  -14.5020 C.ar    1  UNL1        0.0640
     36  C         26.3880  -18.1390  -16.3670 C.ar    1  UNL1        0.3250
     37  H         26.7800  -19.7980  -17.6450 H       1  UNL1        0.1700
     38  O         26.4470  -17.1820  -17.1190 O.2     1  UNL1       -0.2470
     39  N         26.1210  -18.1090  -14.9910 N.ar    1  UNL1       -0.3060
     40  H         25.9440  -17.2620  -14.4740 H       1  UNL1        0.1700
     41  C         25.9340  -19.8700  -13.2260 C.2     1  UNL1        0.0570
@<TRIPOS>BOND
     1    37    34    1
     2    38    36    2
     3    34    36   ar
     4    34    33   ar
     5    36    39   ar
     6    33    32    2
     7    33    35   ar
     8    32    31    1
     9    39    35   ar
    10    39    40    1
    11    35    41    2
    12    31    30    2
    13    41    30    1
    14    30    27    1
    15     3     2    1
    16     3     4    2
    17    26    25    1
    18     2     1    2
    19    10     7    2
    20    25     4    1
    21    25    27    1
    22     4     5    1
    23    27    28    2
    24    27    29    2
    25     1     7    1
    26     1     6    1
    27     7     8   am
    28     5     6    2
    29     8    11    1
    30     8     9    1
    31    11    12    1
    32    12    13    1
    33    13    18    2
    34    13    14    1
    35    18    17    1
    36    14    15    2
    37    17    16    2
    38    15    16    1
    39    16    19    1
    40    19    20    2
    41    19    21    2
    42    19    22    1
    43    22    24    1
    44    22    23    1
