@<TRIPOS>MOLECULE
51609_out_ligand_01.pdbqt
 38 41 0 0 0
SMALL
GASTEIGER

@<TRIPOS>ATOM
      1  C         19.1530  -22.3230  -10.4060 C.2     1  UNL1        0.0840
      2  C         17.7800  -22.0460  -10.3000 C.2     1  UNL1        0.0390
      3  C         16.9910  -22.6800   -9.3370 C.2     1  UNL1        0.0270
      4  C         17.5730  -23.6020   -8.4680 C.2     1  UNL1        0.0760
      5  C         18.9370  -23.8810   -8.5420 C.2     1  UNL1        0.0440
      6  C         19.7380  -23.2540   -9.5160 C.2     1  UNL1        0.0660
      7  C         21.1850  -23.6540   -9.5240 C.2     1  UNL1        0.2540
      8  O         21.5150  -24.7770   -9.1530 O.2     1  UNL1       -0.2680
      9  N         22.1070  -22.7260   -9.9480 N.am    1  UNL1       -0.3560
     10  H         21.7700  -21.8130  -10.2380 H       1  UNL1        0.1620
     11  C         23.5290  -22.9970   -9.9630 C.3     1  UNL1        0.1270
     12  C         24.3160  -21.8950  -10.6740 C.3     1  UNL1        0.0580
     13  C         24.3780  -22.1250  -12.1640 C.2     1  UNL1       -0.0570
     14  C         25.1790  -23.1440  -12.6980 C.2     1  UNL1        0.0090
     15  C         25.2440  -23.3430  -14.0780 C.2     1  UNL1        0.0250
     16  C         24.5100  -22.5130  -14.9270 C.2     1  UNL1        0.0740
     17  C         23.7000  -21.4980  -14.4130 C.2     1  UNL1        0.0250
     18  C         23.6420  -21.3030  -13.0320 C.2     1  UNL1        0.0090
     19  S         24.5920  -22.7710  -16.6800 S.O2    1  UNL1        0.2390
     20  O         23.3720  -23.4150  -17.1090 O.2     1  UNL1       -0.2060
     21  O         25.9000  -23.2810  -17.0100 O.2     1  UNL1       -0.2060
     22  N         24.4930  -21.1880  -17.2530 N.3     1  UNL1       -0.2250
     23  H         23.5500  -21.0300  -17.6140 H       1  UNL1        0.1360
     24  H         24.7540  -20.4940  -16.5550 H       1  UNL1        0.1360
     25  O         19.9680  -21.7280  -11.3370 O.2     1  UNL1       -0.3550
     26  C         19.6260  -20.4190  -11.7850 C.3     1  UNL1        0.2100
     27  S         16.5550  -24.3790   -7.2290 S.O2    1  UNL1        0.2480
     28  O         15.4310  -25.0000   -7.8980 O.2     1  UNL1       -0.2050
     29  O         17.4550  -25.1530   -6.3990 O.2     1  UNL1       -0.2050
     30  N         15.9850  -23.0220   -6.3600 N.pl3   1  UNL1       -0.1710
     31  C         14.7650  -23.2600   -5.5090 C.3     1  UNL1        0.1180
     32  C         15.1840  -23.0570   -4.0450 C.3     1  UNL1        0.0560
     33  C         16.4960  -22.3600   -4.1820 C.2     1  UNL1       -0.0350
     34  C         17.2600  -21.7810   -3.1810 C.2     1  UNL1        0.0090
     35  C         16.9510  -22.4070   -5.4960 C.2     1  UNL1        0.0310
     36  C         18.4930  -21.2230   -3.5280 C.2     1  UNL1        0.0010
     37  C         18.9420  -21.2560   -4.8580 C.2     1  UNL1        0.0020
     38  C         18.1650  -21.8490   -5.8560 C.2     1  UNL1        0.0250
@<TRIPOS>BOND
     1    23    22    1
     2    22    19    1
     3    22    24    1
     4    20    19    2
     5    21    19    2
     6    19    16    1
     7    16    17    2
     8    16    15    1
     9    17    18    1
    10    15    14    2
    11    18    13    2
    12    14    13    1
    13    13    12    1
    14    26    25    1
    15    25     1    1
    16    12    11    1
    17     1     2    2
    18     1     6    1
    19     2     3    1
    20    10     9    1
    21    11     9    1
    22     9     7   am
    23     7     6    1
    24     7     8    2
    25     6     5    2
    26     3     4    2
    27     5     4    1
    28     4    27    1
    29    28    27    2
    30    27    29    2
    31    27    30    1
    32    30    31    1
    33    30    35    1
    34    38    35    1
    35    38    37    2
    36    31    32    1
    37    35    33    2
    38    37    36    1
    39    33    32    1
    40    33    34    1
    41    36    34    2
