@<TRIPOS>MOLECULE
51615_out_ligand_01.pdbqt
 36 38 0 0 0
SMALL
GASTEIGER

@<TRIPOS>ATOM
      1  C         19.6780  -22.2400  -10.2590 C.2     1  UNL1        0.0580
      2  C         19.9560  -21.5000  -11.4230 C.2     1  UNL1        0.0190
      3  C         18.9170  -20.9350  -12.1610 C.2     1  UNL1        0.0010
      4  C         17.6000  -21.1150  -11.7500 C.2     1  UNL1        0.0020
      5  C         17.3180  -21.8640  -10.6050 C.2     1  UNL1        0.0300
      6  C         18.3420  -22.4460   -9.8420 C.2     1  UNL1        0.0480
      7  C         20.8000  -22.8400   -9.4800 C.2     1  UNL1        0.2530
      8  N         21.8510  -22.0050   -9.1690 N.am    1  UNL1       -0.3560
      9  H         21.8290  -21.0320   -9.4440 H       1  UNL1        0.1620
     10  O         20.7540  -24.0170   -9.1350 O.2     1  UNL1       -0.2680
     11  C         23.0480  -22.4910   -8.5080 C.3     1  UNL1        0.1270
     12  C         23.9270  -23.3550   -9.4210 C.3     1  UNL1        0.0580
     13  C         24.2780  -22.6640  -10.7200 C.2     1  UNL1       -0.0570
     14  C         25.2720  -21.6760  -10.7540 C.2     1  UNL1        0.0090
     15  C         25.5740  -21.0180  -11.9480 C.2     1  UNL1        0.0250
     16  C         24.8830  -21.3550  -13.1140 C.2     1  UNL1        0.0740
     17  C         23.8830  -22.3310  -13.0940 C.2     1  UNL1        0.0250
     18  C         23.5870  -22.9860  -11.8980 C.2     1  UNL1        0.0090
     19  S         25.2280  -20.4960  -14.6210 S.O2    1  UNL1        0.2390
     20  O         25.6640  -19.1550  -14.3080 O.2     1  UNL1       -0.2060
     21  O         25.9690  -21.3640  -15.5050 O.2     1  UNL1       -0.2060
     22  N         23.6990  -20.3450  -15.2970 N.3     1  UNL1       -0.2250
     23  H         23.4770  -19.3600  -15.4410 H       1  UNL1        0.1360
     24  H         23.0150  -20.8430  -14.7270 H       1  UNL1        0.1360
     25  N         18.0530  -23.1870   -8.6740 N.pl3   1  UNL1       -0.3550
     26  H         18.2390  -24.1890   -8.7960 H       1  UNL1        0.1660
     27  C         17.7870  -22.8130   -7.3480 C.2     1  UNL1        0.0330
     28  C         18.7640  -22.3270   -6.4740 C.2     1  UNL1        0.0290
     29  C         18.4370  -21.9310   -5.1750 C.2     1  UNL1        0.0030
     30  C         17.1180  -22.0020   -4.7330 C.2     1  UNL1        0.0160
     31  C         16.1120  -22.4660   -5.5900 C.2     1  UNL1        0.0500
     32  C         16.4630  -22.8710   -6.8900 C.2     1  UNL1        0.0450
     33  C         14.6840  -22.5660   -5.1200 C.3     1  UNL1        0.4170
     34  F         14.2280  -23.8490   -5.0600 F       1  UNL1       -0.1660
     35  F         13.8220  -21.9030   -5.9390 F       1  UNL1       -0.1660
     36  F         14.4910  -22.0470   -3.8750 F       1  UNL1       -0.1660
@<TRIPOS>BOND
     1    21    19    2
     2    23    22    1
     3    22    24    1
     4    22    19    1
     5    19    20    2
     6    19    16    1
     7    16    17    2
     8    16    15    1
     9    17    18    1
    10     3     4    2
    11     3     2    1
    12    15    14    2
    13    18    13    2
    14     4     5    1
    15     2     1    2
    16    14    13    1
    17    13    12    1
    18     5     6    2
    19     1     6    1
    20     1     7    1
    21     6    25    1
    22     7     8   am
    23     7    10    2
    24     9     8    1
    25    12    11    1
    26     8    11    1
    27    26    25    1
    28    25    27    1
    29    27    32    2
    30    27    28    1
    31    32    31    1
    32    28    29    2
    33    35    33    1
    34    31    33    1
    35    31    30    2
    36    29    30    1
    37    33    34    1
    38    33    36    1
