@<TRIPOS>MOLECULE
51619_out_ligand_01.pdbqt
 34 36 0 0 0
SMALL
GASTEIGER

@<TRIPOS>ATOM
      1  N         20.2350  -22.1390   -9.0330 N.am    1  UNL1       -0.3530
      2  C         19.6610  -22.5180  -10.2220 C.2     1  UNL1        0.2410
      3  O         19.4080  -23.6720  -10.5310 O.2     1  UNL1       -0.2690
      4  H         20.2810  -21.1560   -8.7980 H       1  UNL1        0.1630
      5  C         19.3710  -21.3550  -11.0970 C.2     1  UNL1        0.0750
      6  C         20.2090  -20.8730  -12.0280 C.2     1  UNL1        0.0170
      7  C         21.5190  -21.4290  -12.3680 C.2     1  UNL1       -0.0360
      8  C         22.1760  -22.2840  -11.4730 C.2     1  UNL1        0.0130
      9  C         23.4230  -22.8220  -11.8000 C.2     1  UNL1        0.0260
     10  C         24.0260  -22.4810  -13.0180 C.2     1  UNL1        0.0790
     11  C         23.3650  -21.6520  -13.9290 C.2     1  UNL1        0.0260
     12  C         22.1140  -21.1230  -13.5990 C.2     1  UNL1        0.0130
     13  S         25.6060  -23.1790  -13.4430 S.O2    1  UNL1        0.2610
     14  O         25.8010  -24.3490  -12.6130 O.2     1  UNL1       -0.2000
     15  O         25.6610  -23.2730  -14.8870 O.2     1  UNL1       -0.2000
     16  N         26.7090  -22.0010  -12.9570 N.3     1  UNL1       -0.3030
     17  C         26.8800  -21.6850  -11.5180 C.3     1  UNL1        0.1610
     18  C         26.2260  -20.3490  -11.1490 C.3     1  UNL1        0.1880
     19  O         26.6740  -19.2870  -12.0020 O.3     1  UNL1       -0.3880
     20  C         26.3440  -19.5700  -13.3690 C.3     1  UNL1        0.1880
     21  C         27.0180  -20.8580  -13.8500 C.3     1  UNL1        0.1610
     22  C         20.4070  -23.0850   -7.9530 C.3     1  UNL1        0.1610
     23  C         19.1690  -23.1250   -7.0880 C.2     1  UNL1       -0.0400
     24  C         18.8600  -22.0550   -6.2350 C.2     1  UNL1        0.0100
     25  C         17.6960  -22.0770   -5.4670 C.2     1  UNL1        0.0250
     26  C         16.8390  -23.1780   -5.5460 C.2     1  UNL1        0.0740
     27  C         17.1260  -24.2500   -6.3950 C.2     1  UNL1        0.0250
     28  C         18.2890  -24.2180   -7.1650 C.2     1  UNL1        0.0100
     29  S         15.3550  -23.1900   -4.5770 S.O2    1  UNL1        0.2390
     30  O         15.1580  -24.5170   -4.0390 O.2     1  UNL1       -0.2060
     31  O         14.3310  -22.4910   -5.3200 O.2     1  UNL1       -0.2060
     32  N         15.7740  -22.1820   -3.2930 N.3     1  UNL1       -0.2250
     33  H         15.7540  -21.1900   -3.5260 H       1  UNL1        0.1360
     34  H         15.2120  -22.4180   -2.4760 H       1  UNL1        0.1360
@<TRIPOS>BOND
     1    15    13    2
     2    11    12    1
     3    11    10    2
     4    21    20    1
     5    21    16    1
     6    12     7    2
     7    13    10    1
     8    13    16    1
     9    13    14    2
    10    20    19    1
    11    10     9    1
    12    16    17    1
    13     7     6    1
    14     7     8    1
    15     6     5    2
    16    19    18    1
    17     9     8    2
    18    17    18    1
    19     5     2    1
    20     3     2    2
    21     2     1   am
    22     1     4    1
    23     1    22    1
    24    22    23    1
    25    28    23    2
    26    28    27    1
    27    23    24    1
    28    27    26    2
    29    24    25    2
    30    26    25    1
    31    26    29    1
    32    31    29    2
    33    29    30    2
    34    29    32    1
    35    33    32    1
    36    32    34    1
