@<TRIPOS>MOLECULE
51613_out_ligand_01.pdbqt
 38 41 0 0 0
SMALL
GASTEIGER

@<TRIPOS>ATOM
      1  O         22.9630  -20.8710   -9.4540 O.2     1  UNL1       -0.2720
      2  C         23.3970  -22.0070   -9.6240 C.2     1  UNL1        0.2350
      3  N         22.7880  -23.1840   -9.2030 N.am    1  UNL1       -0.3260
      4  H         23.3000  -24.0430   -9.3520 H       1  UNL1        0.1690
      5  C         24.7380  -22.2500  -10.3390 C.3     1  UNL1        0.1950
      6  N         24.9100  -21.3920  -11.5160 N.pl3   1  UNL1       -0.2830
      7  H         24.0980  -20.7560  -11.6020 H       1  UNL1        0.1280
      8  C         25.1680  -21.9530  -12.7810 C.2     1  UNL1        0.0240
      9  C         26.4390  -22.4310  -13.1400 C.2     1  UNL1        0.0240
     10  C         26.6960  -22.9410  -14.4180 C.2     1  UNL1        0.0020
     11  C         25.6950  -22.9610  -15.3820 C.2     1  UNL1        0.0010
     12  C         24.4400  -22.4410  -15.0790 C.2     1  UNL1        0.0190
     13  C         24.1850  -21.9110  -13.8000 C.2     1  UNL1        0.0530
     14  C         22.8360  -21.3310  -13.5260 C.2     1  UNL1        0.2580
     15  O         22.4620  -20.3730  -14.1930 O.2     1  UNL1       -0.2670
     16  N         22.1210  -21.9870  -12.5380 N.am    1  UNL1       -0.3230
     17  H         22.5230  -22.8440  -12.1800 H       1  UNL1        0.1690
     18  C         20.8460  -21.6520  -12.0360 C.2     1  UNL1        0.0350
     19  C         20.3470  -20.3490  -11.9820 C.2     1  UNL1        0.0290
     20  C         19.0720  -20.1000  -11.4620 C.2     1  UNL1        0.0020
     21  C         18.2880  -21.1500  -10.9900 C.2     1  UNL1        0.0000
     22  C         18.7780  -22.4520  -11.0360 C.2     1  UNL1        0.0020
     23  C         20.0510  -22.7010  -11.5550 C.2     1  UNL1        0.0290
     24  C         21.5350  -23.3210   -8.5700 C.2     1  UNL1        0.0340
     25  C         20.9280  -22.3170   -7.8090 C.2     1  UNL1        0.0310
     26  C         19.6780  -22.5300   -7.2180 C.2     1  UNL1        0.0270
     27  C         19.0360  -23.7580   -7.3840 C.2     1  UNL1        0.0740
     28  C         19.6220  -24.7680   -8.1460 C.2     1  UNL1        0.0270
     29  C         20.8670  -24.5430   -8.7390 C.2     1  UNL1        0.0310
     30  S         17.4620  -24.0240   -6.6060 S.O2    1  UNL1        0.2430
     31  O         17.6690  -24.8790   -5.4550 O.2     1  UNL1       -0.2060
     32  O         16.5280  -24.3860   -7.6490 O.2     1  UNL1       -0.2060
     33  N         17.0570  -22.4750   -6.0320 N.3     1  UNL1       -0.2020
     34  C         17.3990  -22.1620   -4.6080 C.3     1  UNL1        0.1340
     35  C         16.3180  -22.6510   -3.6340 C.3     1  UNL1        0.1830
     36  O         15.0230  -22.1470   -3.9890 O.3     1  UNL1       -0.3890
     37  C         14.6650  -22.5690   -5.3130 C.3     1  UNL1        0.1830
     38  C         15.6620  -22.0290   -6.3410 C.3     1  UNL1        0.1340
@<TRIPOS>BOND
     1    11    12    2
     2    11    10    1
     3    12    13    1
     4    10     9    2
     5    15    14    2
     6    13    14    1
     7    13     8    2
     8    14    16   am
     9     9     8    1
    10     8     6    1
    11    16    17    1
    12    16    18    1
    13    18    19    2
    14    18    23    1
    15    19    20    1
    16     7     6    1
    17    23    22    2
    18     6     5    1
    19    20    21    2
    20    22    21    1
    21     5     2    1
    22     2     1    2
    23     2     3   am
    24     4     3    1
    25     3    24    1
    26    29    24    2
    27    29    28    1
    28    24    25    1
    29    28    27    2
    30    25    26    2
    31    32    30    2
    32    27    26    1
    33    27    30    1
    34    30    33    1
    35    30    31    2
    36    38    33    1
    37    38    37    1
    38    33    34    1
    39    37    36    1
    40    34    35    1
    41    36    35    1
