@<TRIPOS>MOLECULE
51621_out_ligand_01.pdbqt
 35 38 0 0 0
SMALL
GASTEIGER

@<TRIPOS>ATOM
      1  C         23.6350  -22.1410  -12.1940 C.2     1  UNL1        0.0530
      2  C         24.5160  -22.8510  -13.0310 C.2     1  UNL1        0.0190
      3  C         25.6610  -23.4450  -12.5070 C.2     1  UNL1        0.0010
      4  C         25.9270  -23.3430  -11.1460 C.2     1  UNL1        0.0020
      5  C         25.0650  -22.6210  -10.3130 C.2     1  UNL1        0.0240
      6  C         23.9320  -21.9620  -10.8190 C.2     1  UNL1        0.0240
      7  N         23.0380  -21.2710   -9.9740 N.pl3   1  UNL1       -0.2830
      8  H         23.2670  -20.2630  -10.0280 H       1  UNL1        0.1280
      9  C         22.8950  -21.6720   -8.5710 C.3     1  UNL1        0.1950
     10  C         21.7060  -22.6210   -8.3310 C.2     1  UNL1        0.2350
     11  O         21.6070  -23.6940   -8.9230 O.2     1  UNL1       -0.2720
     12  N         20.8220  -22.1360   -7.3740 N.am    1  UNL1       -0.3260
     13  H         21.0880  -21.2870   -6.8910 H       1  UNL1        0.1690
     14  C         19.6040  -22.7170   -6.9610 C.2     1  UNL1        0.0370
     15  C         19.1350  -23.9530   -7.4120 C.2     1  UNL1        0.0320
     16  C         17.9060  -24.4540   -6.9660 C.2     1  UNL1        0.0420
     17  C         17.1380  -23.7200   -6.0670 C.2     1  UNL1        0.1020
     18  C         17.6120  -22.4960   -5.5900 C.2     1  UNL1        0.1040
     19  O         15.9380  -24.2620   -5.6880 O.2     1  UNL1       -0.3460
     20  C         18.8280  -21.9880   -6.0490 C.2     1  UNL1        0.0690
     21  O         16.9350  -21.7340   -4.6700 O.2     1  UNL1       -0.3460
     22  C         15.9100  -22.4970   -4.0210 C.3     1  UNL1        0.2020
     23  C         15.1090  -23.2920   -5.0380 C.3     1  UNL1        0.2020
     24  C         22.3990  -21.5440  -12.7890 C.2     1  UNL1        0.2530
     25  N         21.2630  -21.6020  -12.0070 N.am    1  UNL1       -0.3530
     26  H         21.3650  -21.8250  -11.0260 H       1  UNL1        0.1630
     27  O         22.4300  -21.0140  -13.8950 O.2     1  UNL1       -0.2680
     28  C         20.0470  -20.9230  -12.3920 C.3     1  UNL1        0.1610
     29  C         18.8770  -21.4250  -11.5840 C.2     1  UNL1       -0.0410
     30  C         18.9350  -22.6820  -10.9660 C.2     1  UNL1        0.0090
     31  C         17.8500  -23.1610  -10.2280 C.2     1  UNL1        0.0070
     32  C         16.6890  -22.3930  -10.0950 C.2     1  UNL1       -0.0620
     33  C         15.5210  -22.9230   -9.3170 C.3     1  UNL1        0.0480
     34  C         16.6210  -21.1470  -10.7290 C.2     1  UNL1        0.0070
     35  C         17.7060  -20.6670  -11.4670 C.2     1  UNL1        0.0090
@<TRIPOS>BOND
     1    27    24    2
     2     2     3    1
     3     2     1    2
     4    24     1    1
     5    24    25   am
     6     3     4    2
     7    28    25    1
     8    28    29    1
     9     1     6    1
    10    25    26    1
    11    29    35    2
    12    29    30    1
    13    35    34    1
    14     4     5    1
    15    30    31    2
    16     6     5    2
    17     6     7    1
    18    34    32    2
    19    31    32    1
    20    32    33    1
    21     8     7    1
    22     7     9    1
    23    11    10    2
    24     9    10    1
    25    10    12   am
    26    15    16    1
    27    15    14    2
    28    12    14    1
    29    12    13    1
    30    16    17    2
    31    14    20    1
    32    17    19    1
    33    17    18    1
    34    20    18    2
    35    19    23    1
    36    18    21    1
    37    23    22    1
    38    21    22    1
