@<TRIPOS>MOLECULE
51645_out_ligand_01.pdbqt
 38 42 0 0 0
SMALL
GASTEIGER

@<TRIPOS>ATOM
      1  O         20.9800  -21.9040   -6.6760 O.2     1  UNL1       -0.2670
      2  C         20.1150  -22.1060   -7.5300 C.2     1  UNL1        0.2670
      3  C         20.4900  -22.2360   -8.9780 C.2     1  UNL1        0.0590
      4  C         21.7270  -22.7270   -9.1960 C.2     1  UNL1        0.1060
      5  C         19.4820  -21.9370  -10.0020 C.2     1  UNL1       -0.0030
      6  C         19.8080  -21.5340  -11.3090 C.2     1  UNL1        0.0130
      7  C         18.8100  -21.2700  -12.2520 C.2     1  UNL1        0.0010
      8  C         17.4700  -21.3810  -11.9000 C.2     1  UNL1        0.0010
      9  C         17.1300  -21.7250  -10.5940 C.2     1  UNL1        0.0180
     10  C         18.1330  -21.9820   -9.6420 C.2     1  UNL1        0.0440
     11  C         17.7340  -22.2340   -8.2350 C.2     1  UNL1        0.2660
     12  O         16.5290  -22.2780   -7.9810 O.2     1  UNL1       -0.2670
     13  N         18.7530  -22.2940   -7.2700 N.am    1  UNL1       -0.2420
     14  N         22.3180  -23.1480  -10.3650 N.pl3   1  UNL1       -0.3650
     15  H         21.9720  -24.0270  -10.7420 H       1  UNL1        0.1650
     16  C         23.5070  -22.6900  -10.9610 C.2     1  UNL1        0.0330
     17  C         24.2710  -21.6330  -10.4480 C.2     1  UNL1        0.0290
     18  C         25.4430  -21.2050  -11.0840 C.2     1  UNL1        0.0040
     19  C         25.8760  -21.8340  -12.2480 C.2     1  UNL1        0.0250
     20  C         25.1290  -22.8940  -12.7640 C.2     1  UNL1        0.0820
     21  C         23.9450  -23.3040  -12.1410 C.2     1  UNL1        0.0540
     22  S         25.6380  -23.6770  -14.2700 S.O2    1  UNL1        0.2640
     23  O         26.9800  -23.2550  -14.6010 O.2     1  UNL1       -0.2000
     24  O         25.3170  -25.0870  -14.1550 O.2     1  UNL1       -0.2000
     25  N         24.5680  -23.0840  -15.4000 N.3     1  UNL1       -0.2680
     26  H         23.6470  -23.4980  -15.3020 H       1  UNL1        0.1800
     27  C         24.8300  -22.1400  -16.3860 C.3     1  UNL1        0.1080
     28  N         24.5020  -20.8930  -16.3050 N.3     1  UNL1       -0.2760
     29  C         24.9430  -20.2960  -17.5830 C.3     1  UNL1        0.1510
     30  C         25.9800  -21.2530  -18.1480 C.3     1  UNL1        0.0290
     31  C         25.5010  -22.5940  -17.6420 C.3     1  UNL1        0.0800
     32  C         18.3450  -22.4280   -5.9020 C.2     1  UNL1        0.0670
     33  C         18.5220  -21.3510   -5.0180 C.2     1  UNL1        0.0320
     34  C         18.0940  -21.4370   -3.6910 C.2     1  UNL1        0.0020
     35  C         17.4890  -22.6040   -3.2280 C.2     1  UNL1        0.0020
     36  C         17.3300  -23.6920   -4.0840 C.2     1  UNL1        0.0260
     37  C         17.7560  -23.6110   -5.4150 C.2     1  UNL1        0.0610
     38 CL         17.6500  -25.0530   -6.3710 Cl      1  UNL1       -0.0820
@<TRIPOS>BOND
     1    30    31    1
     2    30    29    1
     3    31    27    1
     4    29    28    1
     5    27    28    1
     6    27    25    1
     7    25    26    1
     8    25    22    1
     9    23    22    2
    10    22    24    2
    11    22    20    1
    12    20    19    2
    13    20    21    1
    14     7     8    2
    15     7     6    1
    16    19    18    1
    17    21    16    2
    18     8     9    1
    19     6     5    2
    20    18    17    2
    21    16    17    1
    22    16    14    1
    23    15    14    1
    24     9    10    2
    25    14     4    1
    26     5    10    1
    27     5     3    1
    28    10    11    1
    29     4     3    2
    30     3     2    1
    31    11    12    2
    32    11    13   am
    33     2    13   am
    34     2     1    2
    35    13    32    1
    36    38    37    1
    37    32    37    2
    38    32    33    1
    39    37    36    1
    40    33    34    2
    41    36    35    2
    42    34    35    1
