@<TRIPOS>MOLECULE
51655_out_ligand_01.pdbqt
 37 40 0 0 0
SMALL
GASTEIGER

@<TRIPOS>ATOM
      1  C         20.1300  -23.1740   -9.8910 C.2     1  UNL1        0.1090
      2  C         21.2890  -23.8190   -9.4400 C.2     1  UNL1        0.0410
      3  C         22.5430  -23.4470   -9.9430 C.2     1  UNL1        0.0280
      4  C         22.6320  -22.4440  -10.9160 C.2     1  UNL1        0.0770
      5  C         21.4870  -21.8070  -11.3990 C.2     1  UNL1        0.0630
      6  C         20.2450  -22.1940  -10.8840 C.2     1  UNL1        0.1380
      7  S         24.2170  -21.9870  -11.5780 S.O2    1  UNL1        0.2450
      8  O         24.8860  -21.1590  -10.5980 O.2     1  UNL1       -0.2060
      9  O         24.8010  -23.1970  -12.1060 O.2     1  UNL1       -0.2060
     10  N         23.7530  -20.9430  -12.8480 N.pl3   1  UNL1       -0.1810
     11  H         23.6670  -20.0040  -12.4500 H       1  UNL1        0.1460
     12  C         24.6800  -20.9310  -13.9440 C.2     1  UNL1        0.0230
     13  C         25.8670  -20.2020  -13.8540 C.2     1  UNL1        0.0240
     14  C         26.7950  -20.2560  -14.8940 C.2     1  UNL1        0.0030
     15  C         26.5410  -21.0500  -16.0150 C.2     1  UNL1        0.0160
     16  C         25.3550  -21.7980  -16.1090 C.2     1  UNL1        0.0490
     17  C         24.4290  -21.7360  -15.0550 C.2     1  UNL1        0.0400
     18  C         25.1080  -22.6860  -17.3030 C.3     1  UNL1        0.4170
     19  F         24.6960  -23.9370  -16.9470 F       1  UNL1       -0.1660
     20  F         26.2240  -22.8620  -18.0660 F       1  UNL1       -0.1660
     21  F         24.1560  -22.2030  -18.1520 F       1  UNL1       -0.1660
     22  N         19.0610  -21.5300  -11.3840 N.pl3   1  UNL1       -0.1130
     23  O         18.1600  -22.2390  -11.8450 O.2     1  UNL1       -0.5320
     24  O         19.0600  -20.2950  -11.3410 O.2     1  UNL1       -0.5320
     25  O         18.8820  -23.5280   -9.4330 O.2     1  UNL1       -0.3080
     26  C         18.5580  -23.2340   -8.1290 C.2     1  UNL1        0.0790
     27  C         17.6120  -23.9430   -7.3930 C.2     1  UNL1        0.0750
     28  C         17.3780  -23.5770   -6.0670 C.2     1  UNL1        0.0920
     29  O         16.3920  -24.3170   -5.3850 O.3     1  UNL1       -0.2750
     30  C         18.0730  -22.5410   -5.4380 C.2     1  UNL1        0.0040
     31  C         16.0700  -24.0350   -4.0690 C.2     1  UNL1        0.2880
     32  C         16.8100  -22.9430   -3.4210 C.2     1  UNL1        0.0900
     33  O         15.2070  -24.6550   -3.4590 O.2     1  UNL1       -0.2600
     34  C         17.7580  -22.2240   -4.0390 C.2     1  UNL1       -0.0430
     35  C         18.4870  -21.1210   -3.3310 C.3     1  UNL1        0.0490
     36  C         19.0440  -21.8630   -6.1870 C.2     1  UNL1        0.0170
     37  C         19.2880  -22.2120   -7.5210 C.2     1  UNL1        0.0380
@<TRIPOS>BOND
     1    21    18    1
     2    20    18    1
     3    18    19    1
     4    18    16    1
     5    16    15    2
     6    16    17    1
     7    15    14    1
     8    17    12    2
     9    14    13    2
    10    12    13    1
    11    12    10    1
    12    10    11    1
    13    10     7    1
    14     9     7    2
    15    23    22    2
    16     7     4    1
    17     7     8    2
    18     5     4    2
    19     5     6    1
    20    22    24    2
    21    22     6    1
    22     4     3    1
    23     6     1    2
    24     3     2    2
    25     1     2    1
    26     1    25    1
    27    25    26    1
    28    26    37    2
    29    26    27    1
    30    37    36    1
    31    27    28    2
    32    36    30    2
    33    28    30    1
    34    28    29    1
    35    30    34    1
    36    29    31    1
    37    31    33    2
    38    31    32    1
    39    34    32    2
    40    34    35    1
