@<TRIPOS>MOLECULE
51656_out_ligand_01.pdbqt
 42 46 0 0 0
SMALL
GASTEIGER

@<TRIPOS>ATOM
      1  N         23.0430  -23.4150  -10.5720 N.pl3   1  UNL1       -0.3650
      2  H         22.5890  -24.0140  -11.2530 H       1  UNL1        0.1650
      3  C         24.3260  -22.9710  -10.9450 C.2     1  UNL1        0.0330
      4  C         25.5100  -23.3960  -10.3320 C.2     1  UNL1        0.0290
      5  C         26.7550  -22.9060  -10.7400 C.2     1  UNL1        0.0040
      6  C         26.8380  -21.9720  -11.7700 C.2     1  UNL1        0.0250
      7  C         25.6700  -21.5530  -12.4000 C.2     1  UNL1        0.0770
      8  C         24.4250  -22.0450  -11.9930 C.2     1  UNL1        0.0540
      9  S         25.7400  -20.3250  -13.6860 S.O2    1  UNL1        0.2460
     10  O         26.5320  -19.2170  -13.1920 O.2     1  UNL1       -0.2060
     11  O         24.3830  -20.1140  -14.1510 O.2     1  UNL1       -0.2060
     12  N         26.5500  -21.1050  -14.9530 N.pl3   1  UNL1       -0.1790
     13  H         27.2070  -20.4610  -15.3950 H       1  UNL1        0.1460
     14  C         25.7690  -21.8370  -15.9070 C.2     1  UNL1        0.0560
     15  C         25.1240  -23.0180  -15.5340 C.2     1  UNL1        0.0270
     16  C         24.3390  -23.7020  -16.4610 C.2     1  UNL1        0.0020
     17  C         24.2100  -23.2100  -17.7610 C.2     1  UNL1        0.0030
     18  C         24.8610  -22.0310  -18.1380 C.2     1  UNL1        0.0380
     19  C         25.6510  -21.3370  -17.2180 C.2     1  UNL1        0.0900
     20  O         26.3280  -20.1660  -17.4660 O.2     1  UNL1       -0.3540
     21  C         25.6050  -19.1470  -18.1530 C.3     1  UNL1        0.2100
     22  C         22.3080  -23.1190   -9.4460 C.2     1  UNL1        0.1060
     23  C         21.1170  -22.4930   -9.3450 C.2     1  UNL1        0.0590
     24  C         20.4770  -22.5320   -7.9910 C.2     1  UNL1        0.2670
     25  C         20.3720  -21.8780  -10.4480 C.2     1  UNL1       -0.0030
     26  O         21.1740  -22.4530   -6.9810 O.2     1  UNL1       -0.2670
     27  N         19.0820  -22.6500   -8.0220 N.am    1  UNL1       -0.2430
     28  C         18.2980  -22.4070   -9.1670 C.2     1  UNL1        0.2660
     29  O         17.0840  -22.5960   -9.2470 O.2     1  UNL1       -0.2670
     30  C         18.9810  -21.8750  -10.3710 C.2     1  UNL1        0.0440
     31  C         18.2110  -21.3360  -11.4140 C.2     1  UNL1        0.0180
     32  C         18.8340  -20.7620  -12.5210 C.2     1  UNL1        0.0010
     33  C         20.2220  -20.7050  -12.5790 C.2     1  UNL1        0.0010
     34  C         20.9870  -21.2460  -11.5430 C.2     1  UNL1        0.0130
     35  C         18.3950  -22.8980   -6.7800 C.2     1  UNL1        0.0510
     36  C         17.7070  -24.1170   -6.6210 C.2     1  UNL1        0.0310
     37  C         16.9890  -24.4040   -5.4580 C.2     1  UNL1        0.0090
     38  C         16.9500  -23.4850   -4.4120 C.2     1  UNL1       -0.0610
     39  C         16.1870  -23.7690   -3.1530 C.3     1  UNL1        0.0480
     40  C         17.6400  -22.2750   -4.5520 C.2     1  UNL1        0.0150
     41  C         18.3830  -21.9740   -5.7140 C.2     1  UNL1       -0.0340
     42  C         19.1470  -20.6760   -5.7230 C.3     1  UNL1        0.0500
@<TRIPOS>BOND
     1    21    20    1
     2    18    17    2
     3    18    19    1
     4    17    16    1
     5    20    19    1
     6    19    14    2
     7    16    15    2
     8    14    15    1
     9    14    12    1
    10    13    12    1
    11    12     9    1
    12    11     9    2
    13     9    10    2
    14     9     7    1
    15    33    32    2
    16    33    34    1
    17    32    31    1
    18     7     8    1
    19     7     6    2
    20     8     3    2
    21     6     5    1
    22    34    25    2
    23    31    30    2
    24     2     1    1
    25     3     1    1
    26     3     4    1
    27     5     4    2
    28     1    22    1
    29    25    30    1
    30    25    23    1
    31    30    28    1
    32    22    23    2
    33    23    24    1
    34    29    28    2
    35    28    27   am
    36    27    24   am
    37    27    35    1
    38    24    26    2
    39    35    36    2
    40    35    41    1
    41    36    37    1
    42    42    41    1
    43    41    40    2
    44    37    38    2
    45    40    38    1
    46    38    39    1
