@<TRIPOS>MOLECULE
5167_out_ligand_01.pdbqt
 31 33 0 0 0
SMALL
GASTEIGER

@<TRIPOS>ATOM
      1  C         19.3050  -23.5020   -7.4250 C.2     1  UNL1        0.0790
      2  C         20.0750  -22.3340   -7.3470 C.2     1  UNL1        0.0260
      3  C         21.2850  -22.2550   -8.0430 C.2     1  UNL1        0.0180
      4  C         21.7330  -23.3490   -8.7990 C.2     1  UNL1        0.0320
      5  C         20.9550  -24.5150   -8.8670 C.2     1  UNL1        0.0180
      6  C         19.7470  -24.6000   -8.1700 C.2     1  UNL1        0.0260
      7  C         23.0200  -23.3130   -9.5530 C.2     1  UNL1        0.2560
      8  O         24.0030  -23.8160   -9.0190 O.2     1  UNL1       -0.2670
      9  N         22.9480  -22.6720  -10.7750 N.am    1  UNL1       -0.3160
     10  H         22.0760  -22.2130  -11.0340 H       1  UNL1        0.1690
     11  C         23.9710  -22.4910  -11.6970 C.2     1  UNL1        0.0920
     12  S         25.5450  -23.0590  -11.4100 S.3     1  UNL1       -0.0830
     13  C         26.1070  -22.4780  -12.9100 C.2     1  UNL1        0.0530
     14  C         25.1060  -21.8590  -13.6240 C.2     1  UNL1        0.0270
     15  C         23.8460  -21.8520  -12.9260 C.2     1  UNL1        0.0660
     16  C         22.5760  -21.2860  -13.3830 C.2     1  UNL1        0.2520
     17  N         22.6420  -20.3660  -14.3900 N.am    1  UNL1       -0.3660
     18  H         21.7800  -19.8920  -14.6310 H       1  UNL1        0.1590
     19  H         23.5080  -19.9400  -14.6820 H       1  UNL1        0.1590
     20  O         21.4940  -21.5850  -12.8820 O.2     1  UNL1       -0.2680
     21  S         17.7810  -23.6200   -6.5020 S.O2    1  UNL1        0.2600
     22  O         17.4090  -25.0180   -6.4650 O.2     1  UNL1       -0.2000
     23  O         17.9620  -22.8670   -5.2770 O.2     1  UNL1       -0.2000
     24  N         16.6710  -22.7910   -7.4800 N.3     1  UNL1       -0.3050
     25  C         15.4860  -22.2230   -6.8040 C.3     1  UNL1        0.1630
     26  C         16.3580  -23.4280   -8.7820 C.3     1  UNL1        0.1990
     27  C         16.9830  -22.6430   -9.8820 C.2     1  UNL1        0.0710
     28  C         18.0880  -22.8590  -10.6830 C.2     1  UNL1        0.0360
     29  C         18.1780  -21.7400  -11.5460 C.2     1  UNL1        0.0270
     30  C         17.1210  -20.9180  -11.2220 C.2     1  UNL1        0.1420
     31  O         16.3860  -21.4590  -10.2150 O.2     1  UNL1       -0.3250
@<TRIPOS>BOND
     1    19    17    1
     2    18    17    1
     3    17    16   am
     4    14    15    1
     5    14    13    2
     6    16    15    1
     7    16    20    2
     8    15    11    2
     9    13    12    1
    10    11    12    1
    11    11     9    1
    12    29    30    2
    13    29    28    1
    14    30    31    1
    15    10     9    1
    16     9     7   am
    17    28    27    2
    18    31    27    1
    19    27    26    1
    20     7     8    2
    21     7     4    1
    22     5     4    2
    23     5     6    1
    24     4     3    1
    25    26    24    1
    26     6     1    2
    27     3     2    2
    28    24    25    1
    29    24    21    1
    30     1     2    1
    31     1    21    1
    32    21    22    2
    33    21    23    2
