@<TRIPOS>MOLECULE
51676_out_ligand_01.pdbqt
 33 36 0 0 0
SMALL
GASTEIGER

@<TRIPOS>ATOM
      1  C         17.2740  -23.2700   -8.7700 C.2     1  UNL1        0.0810
      2  C         16.4840  -22.4130   -9.5370 C.2     1  UNL1        0.0270
      3  C         17.0750  -21.6700  -10.5590 C.2     1  UNL1        0.0260
      4  C         18.4490  -21.7800  -10.8190 C.2     1  UNL1        0.0490
      5 CL         19.0620  -20.8620  -12.1480 Cl      1  UNL1       -0.0830
      6  C         19.2460  -22.6280  -10.0340 C.2     1  UNL1        0.0550
      7  C         18.6490  -23.3700   -9.0020 C.2     1  UNL1        0.0440
      8  C         20.7030  -22.8530  -10.2370 C.2     1  UNL1        0.2570
      9  O         21.1790  -23.8810   -9.7640 O.2     1  UNL1       -0.2670
     10  N         21.3860  -21.8540  -10.9000 N.am    1  UNL1       -0.3230
     11  H         20.8370  -21.0750  -11.2460 H       1  UNL1        0.1690
     12  C         22.7650  -21.8010  -11.1960 C.2     1  UNL1        0.0370
     13  C         23.7680  -21.7010  -10.2300 C.2     1  UNL1        0.0320
     14  C         25.1150  -21.6450  -10.6070 C.2     1  UNL1        0.0420
     15  C         25.4650  -21.6840  -11.9520 C.2     1  UNL1        0.1020
     16  C         24.4710  -21.8110  -12.9230 C.2     1  UNL1        0.1040
     17  O         26.8010  -21.6020  -12.2490 O.2     1  UNL1       -0.3460
     18  C         23.1270  -21.8550  -12.5490 C.2     1  UNL1        0.0690
     19  O         24.7380  -21.8900  -14.2670 O.2     1  UNL1       -0.3460
     20  C         26.1210  -22.1740  -14.5080 C.3     1  UNL1        0.2020
     21  C         27.0090  -21.3040  -13.6330 C.3     1  UNL1        0.2020
     22  S         16.5400  -24.2650   -7.4900 S.O2    1  UNL1        0.2630
     23  O         15.4210  -24.9610   -8.0890 O.2     1  UNL1       -0.2000
     24  O         17.6020  -24.9840   -6.8200 O.2     1  UNL1       -0.2000
     25  N         15.8900  -23.1150   -6.4380 N.pl3   1  UNL1       -0.2810
     26  H         15.2120  -22.5110   -6.9000 H       1  UNL1        0.1790
     27  C         16.7330  -22.5280   -5.4520 C.2     1  UNL1        0.0430
     28  C         16.5330  -22.7820   -4.0970 C.2     1  UNL1        0.0300
     29  C         17.4000  -22.2310   -3.1530 C.2     1  UNL1        0.0030
     30  C         18.4710  -21.4380   -3.5650 C.2     1  UNL1        0.0070
     31  C         18.6880  -21.1900   -4.9260 C.2     1  UNL1       -0.0600
     32  C         19.8200  -20.3120   -5.3720 C.3     1  UNL1        0.0480
     33  C         17.8000  -21.7290   -5.8670 C.2     1  UNL1        0.0370
@<TRIPOS>BOND
     1    20    19    1
     2    20    21    1
     3    19    16    1
     4    21    17    1
     5    16    18    1
     6    16    15    2
     7    18    12    2
     8    17    15    1
     9     5     4    1
    10    15    14    1
    11    11    10    1
    12    12    10    1
    13    12    13    1
    14    10     8   am
    15     4     3    2
    16     4     6    1
    17    14    13    2
    18     3     2    1
    19     8     6    1
    20     8     9    2
    21     6     7    2
    22     2     1    2
    23     7     1    1
    24     1    22    1
    25    23    22    2
    26    22    24    2
    27    22    25    1
    28    26    25    1
    29    25    27    1
    30    33    27    2
    31    33    31    1
    32    27    28    1
    33    32    31    1
    34    31    30    2
    35    28    29    2
    36    30    29    1
