@<TRIPOS>MOLECULE
51689_out_ligand_01.pdbqt
 41 45 0 0 0
SMALL
GASTEIGER

@<TRIPOS>ATOM
      1  N         24.1900  -21.5490  -13.5120 N.am    1  UNL1       -0.2440
      2  C         22.8770  -21.1280  -13.2230 C.2     1  UNL1        0.2670
      3  O         22.2360  -20.2760  -13.8400 O.2     1  UNL1       -0.2670
      4  C         22.2010  -21.8710  -12.1060 C.2     1  UNL1        0.0590
      5  C         20.8580  -21.9660  -12.2010 C.2     1  UNL1        0.1060
      6  C         23.0260  -22.4910  -11.0710 C.2     1  UNL1       -0.0030
      7  C         22.6090  -22.6630   -9.7410 C.2     1  UNL1        0.0130
      8  C         23.4430  -23.2680   -8.7980 C.2     1  UNL1        0.0010
      9  C         24.7160  -23.6910   -9.1670 C.2     1  UNL1        0.0010
     10  C         25.1620  -23.4770  -10.4710 C.2     1  UNL1        0.0180
     11  C         24.3240  -22.8580  -11.4160 C.2     1  UNL1        0.0440
     12  C         24.8670  -22.5330  -12.7590 C.2     1  UNL1        0.2660
     13  O         25.9070  -23.1080  -13.0750 O.2     1  UNL1       -0.2670
     14  N         19.9630  -22.6960  -11.4520 N.pl3   1  UNL1       -0.3650
     15  H         20.2280  -23.6550  -11.2450 H       1  UNL1        0.1650
     16  C         18.7030  -22.3050  -10.9640 C.2     1  UNL1        0.0330
     17  C         17.9230  -21.3010  -11.5580 C.2     1  UNL1        0.0290
     18  C         16.6640  -20.9590  -11.0490 C.2     1  UNL1        0.0040
     19  C         16.1580  -21.6210   -9.9350 C.2     1  UNL1        0.0250
     20  C         16.9190  -22.6270   -9.3430 C.2     1  UNL1        0.0820
     21  C         18.1790  -22.9690   -9.8480 C.2     1  UNL1        0.0540
     22  S         16.2660  -23.4970   -7.9440 S.O2    1  UNL1        0.2630
     23  O         15.4040  -22.6050   -7.1990 O.2     1  UNL1       -0.2000
     24  O         15.7860  -24.7740   -8.4310 O.2     1  UNL1       -0.2000
     25  N         17.6480  -23.8310   -7.0260 N.pl3   1  UNL1       -0.2810
     26  H         17.7820  -24.8390   -6.9360 H       1  UNL1        0.1790
     27  C         17.9130  -23.0230   -5.8840 C.2     1  UNL1        0.0440
     28  C         17.5420  -23.4530   -4.6090 C.2     1  UNL1        0.0300
     29  C         17.8350  -22.6650   -3.4940 C.2     1  UNL1        0.0040
     30  C         18.4980  -21.4480   -3.6550 C.2     1  UNL1        0.0240
     31  C         18.8670  -21.0260   -4.9310 C.2     1  UNL1        0.0360
     32 CL         19.6750  -19.5180   -5.1280 Cl      1  UNL1       -0.0840
     33  C         18.5860  -21.8130   -6.0470 C.2     1  UNL1        0.0540
     34  C         24.8500  -20.9830  -14.6750 C.2     1  UNL1        0.0460
     35  C         24.8120  -21.6100  -15.9290 C.2     1  UNL1        0.0310
     36  C         25.4590  -21.0560  -17.0410 C.2     1  UNL1        0.0090
     37  C         26.1740  -19.8590  -16.9380 C.2     1  UNL1       -0.0560
     38  C         26.8560  -19.2960  -18.1530 C.3     1  UNL1        0.0490
     39  C         26.2310  -19.2100  -15.6930 C.2     1  UNL1       -0.0540
     40  C         25.5720  -19.7790  -14.5860 C.2     1  UNL1        0.0370
     41  C         26.9970  -17.9280  -15.5110 C.3     1  UNL1        0.0490
@<TRIPOS>BOND
     1    38    37    1
     2    36    37    2
     3    36    35    1
     4    37    39    1
     5    35    34    2
     6    39    41    1
     7    39    40    2
     8    34    40    1
     9    34     1    1
    10     3     2    2
    11     1     2   am
    12     1    12   am
    13     2     4    1
    14    13    12    2
    15    12    11    1
    16     5     4    2
    17     5    14    1
    18     4     6    1
    19    17    18    1
    20    17    16    2
    21    14    15    1
    22    14    16    1
    23    11     6    2
    24    11    10    1
    25     6     7    1
    26    18    19    2
    27    16    21    1
    28    10     9    2
    29    19    20    1
    30    21    20    2
    31     7     8    2
    32    20    22    1
    33     9     8    1
    34    24    22    2
    35    22    23    2
    36    22    25    1
    37    25    26    1
    38    25    27    1
    39    33    27    2
    40    33    31    1
    41    27    28    1
    42    32    31    1
    43    31    30    2
    44    28    29    2
    45    30    29    1
