@<TRIPOS>MOLECULE
51702_out_ligand_01.pdbqt
 32 34 0 0 0
SMALL
GASTEIGER

@<TRIPOS>ATOM
      1  C         18.6900  -23.3900   -8.7830 C.2     1  UNL1        0.0800
      2  C         19.1460  -22.5190   -9.7700 C.2     1  UNL1        0.0270
      3  C         20.4890  -22.5510  -10.1600 C.2     1  UNL1        0.0310
      4  C         21.3780  -23.4540   -9.5740 C.2     1  UNL1        0.0350
      5  C         20.9000  -24.3410   -8.6020 C.2     1  UNL1        0.0310
      6  C         19.5590  -24.3200   -8.2140 C.2     1  UNL1        0.0270
      7  S         16.9790  -23.3750   -8.3090 S.O2    1  UNL1        0.2630
      8  O         16.7440  -24.5540   -7.5120 O.2     1  UNL1       -0.2000
      9  O         16.1990  -23.1230   -9.4990 O.2     1  UNL1       -0.2000
     10  N         16.8140  -21.9890   -7.3660 N.pl3   1  UNL1       -0.2800
     11  H         17.1480  -21.1530   -7.8350 H       1  UNL1        0.1790
     12  C         16.9250  -22.0580   -5.9460 C.2     1  UNL1        0.0540
     13  C         18.1630  -21.7980   -5.3250 C.2     1  UNL1       -0.0340
     14  C         18.2780  -21.9660   -3.9350 C.2     1  UNL1        0.0090
     15  C         19.4020  -21.3880   -6.0710 C.3     1  UNL1        0.0500
     16  C         17.1830  -22.3530   -3.1700 C.2     1  UNL1        0.0010
     17  C         15.9540  -22.5660   -3.7830 C.2     1  UNL1        0.0090
     18  C         15.8030  -22.4040   -5.1690 C.2     1  UNL1       -0.0340
     19  C         14.4300  -22.6100   -5.7510 C.3     1  UNL1        0.0500
     20  N         22.7440  -23.5390   -9.9080 N.am    1  UNL1       -0.3240
     21  C         23.6850  -22.5280   -9.8540 C.2     1  UNL1        0.2450
     22  O         23.5390  -21.3560   -9.5160 O.2     1  UNL1       -0.2680
     23  H         23.0790  -24.4530  -10.1840 H       1  UNL1        0.1690
     24  C         25.0070  -23.0120  -10.3150 C.2     1  UNL1        0.0750
     25  C         25.5340  -22.7130  -11.5160 C.2     1  UNL1        0.0200
     26  C         24.9190  -21.8860  -12.5660 C.2     1  UNL1        0.0030
     27  C         23.6210  -22.1390  -13.0360 C.2     1  UNL1        0.0140
     28  C         23.0730  -21.3590  -14.0590 C.2     1  UNL1        0.0010
     29  C         23.8180  -20.3280  -14.6320 C.2     1  UNL1        0.0030
     30  C         25.1150  -20.0740  -14.1790 C.2     1  UNL1        0.0430
     31  C         25.6540  -20.8520  -13.1570 C.2     1  UNL1        0.1260
     32  F         26.9040  -20.5900  -12.7380 F       1  UNL1       -0.2050
@<TRIPOS>BOND
     1    29    30    2
     2    29    28    1
     3    30    31    1
     4    28    27    2
     5    31    32    1
     6    31    26    2
     7    27    26    1
     8    26    25    1
     9    25    24    2
    10    24    21    1
    11    23    20    1
    12     3     2    1
    13     3     4    2
    14    20    21   am
    15    20     4    1
    16    21    22    2
    17     2     1    2
    18     4     5    1
    19     9     7    2
    20     1     7    1
    21     1     6    1
    22     5     6    2
    23     7     8    2
    24     7    10    1
    25    11    10    1
    26    10    12    1
    27    15    13    1
    28    12    13    2
    29    12    18    1
    30    19    18    1
    31    13    14    1
    32    18    17    2
    33    14    16    2
    34    17    16    1
