@<TRIPOS>MOLECULE
51710_out_ligand_01.pdbqt
 34 36 0 0 0
SMALL
GASTEIGER

@<TRIPOS>ATOM
      1  C         21.6400  -22.6910  -10.3640 C.2     1  UNL1        0.1030
      2  C         20.3740  -22.1020  -10.4040 C.2     1  UNL1        0.0510
      3  C         19.9940  -21.3190  -11.5040 C.2     1  UNL1       -0.0330
      4  C         20.8780  -21.1460  -12.5760 C.2     1  UNL1        0.0140
      5  C         22.1350  -21.7470  -12.5520 C.2     1  UNL1        0.0420
      6  C         22.5080  -22.5090  -11.4460 C.2     1  UNL1        0.1230
      7  C         18.6600  -20.7110  -11.5290 C.2     1  UNL1        0.0170
      8  C         17.5480  -21.1940  -10.9510 C.2     1  UNL1        0.0750
      9  C         17.4000  -22.4640  -10.1980 C.2     1  UNL1        0.2410
     10  O         17.5490  -23.5360  -10.7710 O.2     1  UNL1       -0.2690
     11  N         17.1720  -22.3160   -8.8610 N.am    1  UNL1       -0.3490
     12  H         17.0930  -21.3890   -8.4700 H       1  UNL1        0.1630
     13  C         16.9840  -23.4410   -7.9620 C.3     1  UNL1        0.1140
     14  C         15.6930  -24.2010   -8.2870 C.3     1  UNL1        0.0370
     15  C         17.0340  -22.9360   -6.5250 C.2     1  UNL1       -0.0300
     16  C         15.8910  -23.0470   -5.7080 C.2     1  UNL1        0.0100
     17  C         15.8840  -22.5710   -4.3970 C.2     1  UNL1        0.0010
     18  C         17.0190  -21.9630   -3.8760 C.2     1  UNL1        0.0010
     19  C         18.1570  -21.8250   -4.6700 C.2     1  UNL1        0.0070
     20  C         18.1770  -22.2950   -5.9960 C.2     1  UNL1       -0.0540
     21  C         19.4300  -22.0970   -6.8080 C.3     1  UNL1        0.0490
     22  O         22.1010  -23.4810   -9.3440 O.2     1  UNL1       -0.3530
     23  C         21.2230  -24.5230   -8.9260 C.3     1  UNL1        0.2100
     24  O         23.7320  -23.1230  -11.4430 O.2     1  UNL1       -0.2260
     25  S         25.0330  -22.2160  -11.0460 S.3     1  UNL1        0.3030
     26  O         24.5660  -21.0990  -10.2450 O.3     1  UNL1       -0.1930
     27  O         26.1180  -23.0600  -10.5830 O.3     1  UNL1       -0.1930
     28  C         25.5540  -21.5610  -12.6160 C.2     1  UNL1        0.0860
     29  C         25.5550  -22.4020  -13.7310 C.2     1  UNL1        0.0260
     30  C         25.9410  -21.8940  -14.9710 C.2     1  UNL1        0.0080
     31  C         26.3140  -20.5480  -15.1020 C.2     1  UNL1       -0.0620
     32  C         26.7560  -20.0150  -16.4340 C.3     1  UNL1        0.0480
     33  C         26.3220  -19.7220  -13.9700 C.2     1  UNL1        0.0080
     34  C         25.9360  -20.2230  -12.7250 C.2     1  UNL1        0.0260
@<TRIPOS>BOND
     1    32    31    1
     2    31    30    2
     3    31    33    1
     4    30    29    1
     5    33    34    2
     6    29    28    2
     7    34    28    1
     8    28    25    1
     9     4     5    2
    10     4     3    1
    11     5     6    1
    12     7     3    1
    13     7     8    2
    14     3     2    2
    15     6    24    1
    16     6     1    2
    17    24    25    1
    18    25    27    1
    19    25    26    1
    20     8     9    1
    21    10     9    2
    22     2     1    1
    23     1    22    1
    24     9    11   am
    25    22    23    1
    26    11    12    1
    27    11    13    1
    28    14    13    1
    29    13    15    1
    30    21    20    1
    31    15    20    2
    32    15    16    1
    33    20    19    1
    34    16    17    2
    35    19    18    2
    36    17    18    1
