@<TRIPOS>MOLECULE
51729_out_ligand_01.pdbqt
 40 44 0 0 0
SMALL
GASTEIGER

@<TRIPOS>ATOM
      1  C         23.8050  -22.6880  -11.7680 C.ar    1  UNL1        0.0980
      2  S         22.8840  -21.8290  -12.9010 S.2     1  UNL1       -0.0750
      3  C         24.2680  -21.1290  -13.6260 C.ar    1  UNL1       -0.0070
      4  C         25.4380  -21.4990  -12.9780 C.ar    1  UNL1       -0.0210
      5  C         25.1520  -22.4200  -11.9050 C.ar    1  UNL1        0.0850
      6  C         26.1370  -23.0100  -11.0440 C.1     1  UNL1        0.1030
      7  N         26.8930  -23.5120  -10.3220 N.1     1  UNL1       -0.1910
      8  C         26.8280  -21.0330  -13.3440 C.3     1  UNL1        0.0410
      9  C         26.8790  -19.6130  -13.9000 C.3     1  UNL1        0.0050
     10  C         26.4760  -19.4990  -15.3720 C.3     1  UNL1        0.0010
     11  C         25.2450  -20.2980  -15.8010 C.3     1  UNL1        0.0050
     12  C         24.0770  -20.2290  -14.8190 C.3     1  UNL1        0.0470
     13  N         23.2220  -23.5400  -10.8430 N.am    1  UNL1       -0.3170
     14  C         22.7540  -23.2190   -9.5870 C.2     1  UNL1        0.2460
     15  O         22.6600  -22.1170   -9.0630 O.2     1  UNL1       -0.2680
     16  H         23.1660  -24.5170  -11.1080 H       1  UNL1        0.1690
     17  C         22.2750  -24.4060   -8.8200 C.2     1  UNL1        0.0750
     18  C         21.0030  -24.7320   -8.5320 C.2     1  UNL1        0.0170
     19  C         19.7990  -23.9900   -8.9290 C.2     1  UNL1       -0.0320
     20  C         19.7800  -23.2050  -10.0890 C.2     1  UNL1        0.0510
     21  C         18.6460  -22.4590  -10.4320 C.2     1  UNL1        0.1030
     22  C         17.5030  -22.5190   -9.6100 C.2     1  UNL1        0.1240
     23  C         17.5060  -23.3370   -8.4750 C.2     1  UNL1        0.1120
     24  C         18.6550  -24.0650   -8.1330 C.2     1  UNL1        0.0390
     25  O         18.5560  -21.6740  -11.5510 O.2     1  UNL1       -0.3530
     26  C         19.4090  -20.5380  -11.6310 C.3     1  UNL1        0.2100
     27  O         16.3530  -21.8720   -9.9740 O.2     1  UNL1       -0.3520
     28  C         15.3940  -22.7460  -10.5700 C.3     1  UNL1        0.2100
     29  S         16.1220  -23.3980   -7.3490 S.O2    1  UNL1        0.2510
     30  O         15.5530  -22.0620   -7.3480 O.2     1  UNL1       -0.2050
     31  O         15.2880  -24.5370   -7.6670 O.2     1  UNL1       -0.2050
     32  N         16.8730  -23.6610   -5.8310 N.pl3   1  UNL1       -0.1710
     33  C         15.9500  -24.0820   -4.7180 C.3     1  UNL1        0.1180
     34  C         16.6080  -23.6030   -3.4160 C.3     1  UNL1        0.0560
     35  C         17.4720  -22.4930   -3.9070 C.2     1  UNL1       -0.0350
     36  C         18.1180  -21.5250   -3.1540 C.2     1  UNL1        0.0090
     37  C         17.6240  -22.5570   -5.2940 C.2     1  UNL1        0.0310
     38  C         18.9450  -20.6160   -3.8140 C.2     1  UNL1        0.0010
     39  C         19.1400  -20.7100   -5.2000 C.2     1  UNL1        0.0020
     40  C         18.4920  -21.6980   -5.9460 C.2     1  UNL1        0.0250
@<TRIPOS>BOND
     1    11    10    1
     2    11    12    1
     3    10     9    1
     4    12     3    1
     5     9     8    1
     6     3     4   ar
     7     3     2   ar
     8     8     4    1
     9     4     5   ar
    10     2     1   ar
    11     5     1   ar
    12     5     6    1
    13     1    13    1
    14    26    25    1
    15    25    21    1
    16    16    13    1
    17     6     7    3
    18    13    14   am
    19    28    27    1
    20    21    20    1
    21    21    22    2
    22    20    19    2
    23    27    22    1
    24    22    23    1
    25    14    15    2
    26    14    17    1
    27    19    18    1
    28    19    24    1
    29    17    18    2
    30    23    24    2
    31    23    29    1
    32    31    29    2
    33    29    30    2
    34    29    32    1
    35    40    37    1
    36    40    39    2
    37    32    37    1
    38    32    33    1
    39    37    35    2
    40    39    38    1
    41    33    34    1
    42    35    34    1
    43    35    36    1
    44    38    36    2
