@<TRIPOS>MOLECULE
51722_out_ligand_01.pdbqt
 45 49 0 0 0
SMALL
GASTEIGER

@<TRIPOS>ATOM
      1  C         22.6170  -22.2210   -8.0680 C.2     1  UNL1        0.0750
      2  C         21.3650  -22.0190   -7.6210 C.2     1  UNL1        0.0170
      3  C         20.1210  -22.3470   -8.3220 C.2     1  UNL1       -0.0320
      4  C         19.9060  -21.9620   -9.6500 C.2     1  UNL1        0.0510
      5  C         18.7330  -22.3310  -10.3180 C.2     1  UNL1        0.1030
      6  C         17.7490  -23.0790   -9.6400 C.2     1  UNL1        0.1240
      7  C         17.9420  -23.4180   -8.2970 C.2     1  UNL1        0.1120
      8  C         19.1270  -23.0530   -7.6430 C.2     1  UNL1        0.0390
      9  O         18.4530  -21.9650  -11.6100 O.2     1  UNL1       -0.3530
     10  C         18.9820  -20.7190  -12.0530 C.3     1  UNL1        0.2100
     11  O         16.5660  -23.3800  -10.2600 O.2     1  UNL1       -0.3520
     12  C         15.5400  -22.4480   -9.9060 C.3     1  UNL1        0.2100
     13  S         16.7820  -24.4160   -7.3860 S.O2    1  UNL1        0.2510
     14  O         17.5940  -25.3290   -6.5980 O.2     1  UNL1       -0.2050
     15  O         15.7940  -24.9580   -8.2970 O.2     1  UNL1       -0.2050
     16  N         16.0450  -23.2900   -6.3440 N.pl3   1  UNL1       -0.1710
     17  C         14.8630  -23.7880   -5.5600 C.3     1  UNL1        0.1180
     18  C         14.7790  -22.8920   -4.3140 C.3     1  UNL1        0.0560
     19  C         16.1750  -22.3750   -4.2110 C.2     1  UNL1       -0.0350
     20  C         16.7400  -21.6760   -3.1550 C.2     1  UNL1        0.0090
     21  C         16.8840  -22.6200   -5.3870 C.2     1  UNL1        0.0310
     22  C         18.0440  -21.2040   -3.2960 C.2     1  UNL1        0.0010
     23  C         18.7470  -21.4140   -4.4900 C.2     1  UNL1        0.0020
     24  C         18.1600  -22.1070   -5.5550 C.2     1  UNL1        0.0250
     25  C         23.0530  -22.8170   -9.3620 C.2     1  UNL1        0.2450
     26  N         24.1100  -22.1690   -9.9590 N.am    1  UNL1       -0.3240
     27  H         24.4940  -21.3760   -9.4610 H       1  UNL1        0.1690
     28  O         22.4380  -23.7850   -9.7870 O.2     1  UNL1       -0.2680
     29  C         24.7580  -22.5150  -11.1600 C.2     1  UNL1        0.0360
     30  C         25.9740  -23.2000  -11.0490 C.2     1  UNL1        0.0320
     31  C         26.6820  -23.5890  -12.1890 C.2     1  UNL1        0.0400
     32  C         26.1790  -23.3020  -13.4580 C.2     1  UNL1        0.0910
     33  C         24.9890  -22.5830  -13.5740 C.2     1  UNL1        0.1100
     34  C         24.2680  -22.2070  -12.4290 C.2     1  UNL1        0.0570
     35  O         26.9200  -23.6330  -14.5560 O.2     1  UNL1       -0.3540
     36  C         27.0000  -25.0490  -14.7240 C.3     1  UNL1        0.2100
     37  S         24.3660  -22.1190  -15.1660 S.O2    1  UNL1        0.2460
     38  O         24.4900  -23.2660  -16.0410 O.2     1  UNL1       -0.2060
     39  O         23.0760  -21.4790  -14.9840 O.2     1  UNL1       -0.2060
     40  N         25.4320  -20.8960  -15.7000 N.3     1  UNL1       -0.2060
     41  C         25.8430  -19.9040  -14.6630 C.3     1  UNL1        0.1070
     42  C         26.3690  -18.6090  -15.2850 C.3     1  UNL1        0.0150
     43  C         27.1210  -18.8720  -16.5840 C.3     1  UNL1        0.0020
     44  C         26.2400  -19.5890  -17.6080 C.3     1  UNL1        0.0150
     45  C         25.0240  -20.2630  -16.9760 C.3     1  UNL1        0.1070
@<TRIPOS>BOND
     1    44    45    1
     2    44    43    1
     3    45    40    1
     4    43    42    1
     5    38    37    2
     6    40    37    1
     7    40    41    1
     8    42    41    1
     9    37    39    2
    10    37    33    1
    11    36    35    1
    12    35    32    1
    13    33    32    2
    14    33    34    1
    15    32    31    1
    16    34    29    2
    17    31    30    2
    18    10     9    1
    19     9     5    1
    20    29    30    1
    21    29    26    1
    22     5     4    1
    23     5     6    2
    24    11    12    1
    25    11     6    1
    26    26    27    1
    27    26    25   am
    28    28    25    2
    29     4     3    2
    30     6     7    1
    31    25     1    1
    32     3     8    1
    33     3     2    1
    34    15    13    2
    35     7     8    2
    36     7    13    1
    37     1     2    2
    38    13    14    2
    39    13    16    1
    40    16    17    1
    41    16    21    1
    42    17    18    1
    43    24    21    1
    44    24    23    2
    45    21    19    2
    46    23    22    1
    47    18    19    1
    48    19    20    1
    49    22    20    2
