@<TRIPOS>MOLECULE
51734_out_ligand_01.pdbqt
 31 34 0 0 0
SMALL
GASTEIGER

@<TRIPOS>ATOM
      1  C         20.7470  -21.4880  -11.4580 C.2     1  UNL1        0.2560
      2  O         20.2700  -20.3730  -11.6280 O.2     1  UNL1       -0.2670
      3  N         20.2380  -22.4970  -10.6590 N.am    1  UNL1       -0.3230
      4  H         20.8240  -23.3090  -10.5190 H       1  UNL1        0.1690
      5  C         22.0360  -21.8140  -12.1320 C.2     1  UNL1        0.0320
      6  C         22.3750  -21.2730  -13.3780 C.2     1  UNL1        0.0170
      7  C         23.5930  -21.6100  -13.9760 C.2     1  UNL1        0.0100
      8  C         24.4930  -22.4730  -13.3330 C.2     1  UNL1       -0.0400
      9  C         24.1500  -23.0020  -12.0800 C.2     1  UNL1        0.0100
     10  C         22.9340  -22.6670  -11.4800 C.2     1  UNL1        0.0170
     11  C         25.7940  -22.8490  -13.9980 C.3     1  UNL1        0.1620
     12  N         25.9100  -24.2820  -14.1490 N.am    1  UNL1       -0.3440
     13  C         25.4540  -24.9070  -15.2700 C.2     1  UNL1        0.2920
     14  N         25.5570  -26.2570  -15.1800 N.am    1  UNL1       -0.2540
     15  O         25.0030  -24.3620  -16.2670 O.2     1  UNL1       -0.2540
     16  H         25.3390  -26.7200  -16.0540 H       1  UNL1        0.1280
     17  H         26.3920  -26.6040  -14.7300 H       1  UNL1        0.1280
     18  H         25.8420  -24.8310  -13.3050 H       1  UNL1        0.1640
     19  C         19.0260  -22.4890   -9.9360 C.2     1  UNL1        0.0370
     20  C         17.7770  -22.1740  -10.5070 C.2     1  UNL1        0.0320
     21  C         16.6050  -22.1900   -9.7370 C.2     1  UNL1        0.0420
     22  C         16.7140  -22.5240   -8.4070 C.2     1  UNL1        0.1060
     23  C         17.9270  -22.8360   -7.8430 C.2     1  UNL1        0.1080
     24  O         15.6930  -22.5930   -7.5130 O.2     1  UNL1       -0.3110
     25  C         19.0960  -22.8290   -8.5770 C.2     1  UNL1        0.0690
     26  O         17.8210  -23.1400   -6.5200 O.2     1  UNL1       -0.3110
     27  C         16.4050  -22.9840   -6.3170 C.3     1  UNL1        0.1760
     28  C         16.1270  -21.9760   -5.2010 C.3     1  UNL1        0.0690
     29  C         15.7950  -24.2670   -5.7530 C.3     1  UNL1        0.0690
     30  C         14.7250  -22.3320   -4.7130 C.3     1  UNL1        0.0060
     31  C         14.5130  -23.8070   -5.0640 C.3     1  UNL1        0.0060
@<TRIPOS>BOND
     1    15    13    2
     2    16    14    1
     3    13    14   am
     4    13    12   am
     5    14    17    1
     6    12    11    1
     7    12    18    1
     8    11     8    1
     9     7     6    1
    10     7     8    2
    11     6     5    2
    12     8     9    1
    13     5    10    1
    14     5     1    1
    15     9    10    2
    16     2     1    2
    17     1     3   am
    18     3     4    1
    19     3    19    1
    20    20    19    2
    21    20    21    1
    22    19    25    1
    23    21    22    2
    24    25    23    2
    25    22    23    1
    26    22    24    1
    27    23    26    1
    28    24    27    1
    29    26    27    1
    30    27    29    1
    31    27    28    1
    32    29    31    1
    33    28    30    1
    34    31    30    1
