@<TRIPOS>MOLECULE
51739_out_ligand_01.pdbqt
 34 38 0 0 0
SMALL
GASTEIGER

@<TRIPOS>ATOM
      1  C         23.7770  -22.2590  -10.4150 C.2     1  UNL1        0.2400
      2  O         23.7530  -21.4000   -9.5370 O.2     1  UNL1       -0.2710
      3  N         22.6850  -22.8560  -11.0150 N.am    1  UNL1       -0.3260
      4  H         22.9460  -23.5140  -11.7480 H       1  UNL1        0.1690
      5  C         25.1150  -22.7980  -10.9510 C.3     1  UNL1        0.2260
      6  N         25.7790  -21.8370  -11.8800 N.pl3   1  UNL1       -0.3720
      7  C         25.9980  -20.4980  -11.3180 C.3     1  UNL1        0.1240
      8  C         26.9410  -19.6990  -12.1990 C.3     1  UNL1        0.0240
      9  C         26.3070  -19.5210  -13.5660 C.3     1  UNL1        0.0420
     10  C         25.7990  -20.8320  -14.1130 C.2     1  UNL1       -0.0300
     11  C         25.5360  -21.9260  -13.2580 C.2     1  UNL1        0.0370
     12  C         25.5630  -20.9210  -15.5000 C.2     1  UNL1        0.0260
     13  C         25.1060  -23.1200  -13.8640 C.2     1  UNL1        0.0310
     14  C         24.8880  -23.2130  -15.2450 C.2     1  UNL1        0.0190
     15  C         25.0960  -22.1080  -16.0670 C.2     1  UNL1        0.0320
     16  C         24.8440  -22.2480  -17.5250 C.2     1  UNL1        0.2490
     17  N         24.1370  -21.2520  -18.1410 N.am    1  UNL1       -0.3660
     18  H         23.5650  -20.6040  -17.6200 H       1  UNL1        0.1590
     19  H         23.8650  -21.4410  -19.0990 H       1  UNL1        0.1590
     20  O         25.2180  -23.2290  -18.1530 O.2     1  UNL1       -0.2680
     21  C         21.3200  -22.6270  -10.7840 C.2     1  UNL1        0.0370
     22  C         20.6870  -21.6750  -11.6150 C.2     1  UNL1        0.0320
     23  C         19.3290  -21.3750  -11.4680 C.2     1  UNL1        0.0420
     24  C         18.6320  -22.0420  -10.4860 C.2     1  UNL1        0.1060
     25  C         19.2400  -22.9690   -9.6760 C.2     1  UNL1        0.1080
     26  O         17.3140  -21.8810  -10.1970 O.2     1  UNL1       -0.3110
     27  C         20.5790  -23.2850   -9.7990 C.2     1  UNL1        0.0690
     28  O         18.3760  -23.5110   -8.7760 O.2     1  UNL1       -0.3110
     29  C         17.1420  -22.8180   -9.1010 C.3     1  UNL1        0.1760
     30  C         16.0850  -23.8610   -9.5190 C.3     1  UNL1        0.0690
     31  C         16.6840  -22.0400   -7.8620 C.3     1  UNL1        0.0690
     32  C         15.2330  -24.3780   -8.3550 C.3     1  UNL1        0.0050
     33  C         15.9780  -24.3550   -7.0280 C.3     1  UNL1        0.0000
     34  C         16.4390  -22.9460   -6.6540 C.3     1  UNL1        0.0050
@<TRIPOS>BOND
     1    19    17    1
     2    20    16    2
     3    17    18    1
     4    17    16   am
     5    16    15    1
     6    15    12    1
     7    15    14    2
     8    12    10    2
     9    14    13    1
    10    10     9    1
    11    10    11    1
    12    13    11    2
    13     9     8    1
    14    11     6    1
    15     8     7    1
    16     6     7    1
    17     6     5    1
    18     4     3    1
    19    22    23    1
    20    22    21    2
    21    23    24    2
    22     3    21    1
    23     3     1   am
    24     5     1    1
    25    21    27    1
    26    24    26    1
    27    24    25    1
    28     1     2    2
    29    26    29    1
    30    27    25    2
    31    25    28    1
    32    30    29    1
    33    30    32    1
    34    29    28    1
    35    29    31    1
    36    32    33    1
    37    31    34    1
    38    33    34    1
