@<TRIPOS>MOLECULE
51736_out_ligand_01.pdbqt
 36 38 0 0 0
SMALL
GASTEIGER

@<TRIPOS>ATOM
      1  C         22.5080  -23.3480   -8.8730 C.2     1  UNL1        0.0340
      2  C         22.0500  -22.2550   -8.1330 C.2     1  UNL1        0.0310
      3  C         20.7520  -22.2440   -7.6110 C.2     1  UNL1        0.0270
      4  C         19.9160  -23.3430   -7.8150 C.2     1  UNL1        0.0800
      5  C         20.3510  -24.4340   -8.5680 C.2     1  UNL1        0.0270
      6  C         21.6450  -24.4320   -9.0950 C.2     1  UNL1        0.0310
      7  N         23.7980  -23.4340   -9.4260 N.am    1  UNL1       -0.3250
      8  C         24.4840  -22.4710  -10.1460 C.2     1  UNL1        0.2460
      9  O         24.0830  -21.3470  -10.4380 O.2     1  UNL1       -0.2710
     10  H         24.3320  -24.2770   -9.2270 H       1  UNL1        0.1690
     11  C         25.8640  -22.9550  -10.6050 C.3     1  UNL1        0.2780
     12  O         26.3600  -22.2880  -11.7570 O.2     1  UNL1       -0.3390
     13  C         25.9020  -22.6720  -12.9950 C.2     1  UNL1        0.1020
     14  C         25.8350  -23.9940  -13.4480 C.2     1  UNL1        0.0400
     15  C         25.3430  -24.2750  -14.7270 C.2     1  UNL1        0.0090
     16  C         24.9190  -23.2450  -15.5690 C.2     1  UNL1       -0.0590
     17  C         24.9610  -21.9220  -15.1070 C.2     1  UNL1        0.0460
     18  C         24.3660  -23.5540  -16.9300 C.3     1  UNL1        0.0480
     19  C         25.4540  -21.6280  -13.8290 C.2     1  UNL1        0.1020
     20  O         25.5240  -20.3630  -13.2960 O.2     1  UNL1       -0.3530
     21  C         26.0810  -19.3390  -14.1100 C.3     1  UNL1        0.2100
     22  S         18.2710  -23.3290   -7.1500 S.O2    1  UNL1        0.2630
     23  O         18.0920  -24.4960   -6.3120 O.2     1  UNL1       -0.2000
     24  O         18.0200  -21.9990   -6.6320 O.2     1  UNL1       -0.2000
     25  N         17.3030  -23.4700   -8.5300 N.pl3   1  UNL1       -0.2810
     26  H         17.1510  -24.4540   -8.7500 H       1  UNL1        0.1790
     27  C         17.5560  -22.5860   -9.6160 C.2     1  UNL1        0.0430
     28  C         16.5140  -21.8110  -10.1210 C.2     1  UNL1        0.0300
     29  C         16.7610  -20.9070  -11.1540 C.2     1  UNL1        0.0030
     30  C         18.0490  -20.7810  -11.6800 C.2     1  UNL1        0.0160
     31  C         19.1070  -21.5540  -11.1700 C.2     1  UNL1        0.0500
     32  C         18.8460  -22.4620  -10.1310 C.2     1  UNL1        0.0460
     33  C         20.4940  -21.4130  -11.7480 C.3     1  UNL1        0.4170
     34  F         20.5110  -20.8550  -12.9910 F       1  UNL1       -0.1660
     35  F         21.1420  -22.6060  -11.8660 F       1  UNL1       -0.1660
     36  F         21.2960  -20.6270  -10.9760 F       1  UNL1       -0.1660
@<TRIPOS>BOND
     1    18    16    1
     2    16    17    2
     3    16    15    1
     4    17    19    1
     5    15    14    2
     6    21    20    1
     7    19    20    1
     8    19    13    2
     9    14    13    1
    10    13    12    1
    11    34    33    1
    12    35    33    1
    13    12    11    1
    14    33    31    1
    15    33    36    1
    16    30    31    2
    17    30    29    1
    18    31    32    1
    19    29    28    2
    20    11     8    1
    21     9     8    2
    22     8     7   am
    23    32    27    2
    24    28    27    1
    25    27    25    1
    26     7    10    1
    27     7     1    1
    28     6     1    2
    29     6     5    1
    30     1     2    1
    31    26    25    1
    32     5     4    2
    33    25    22    1
    34     2     3    2
    35     4     3    1
    36     4    22    1
    37    22    24    2
    38    22    23    2
