@<TRIPOS>MOLECULE
51748_out_ligand_01.pdbqt
 33 36 0 0 0
SMALL
GASTEIGER

@<TRIPOS>ATOM
      1  C         15.6090  -22.3120   -9.8460 C.3     1  UNL1        0.0500
      2  C         17.0510  -22.1030  -10.2110 C.2     1  UNL1       -0.0390
      3  C         17.3430  -21.3820  -11.3800 C.2     1  UNL1        0.0100
      4  C         18.6630  -21.1670  -11.7940 C.2     1  UNL1        0.0300
      5  C         19.7290  -21.6790  -11.0600 C.2     1  UNL1        0.0360
      6  C         19.4560  -22.4040   -9.8970 C.2     1  UNL1        0.0550
      7  C         18.1310  -22.6100   -9.4690 C.2     1  UNL1        0.0870
      8  N         21.0850  -21.5090  -11.4100 N.am    1  UNL1       -0.3230
      9  C         22.1480  -22.3260  -11.0710 C.2     1  UNL1        0.2560
     10  O         22.1180  -23.3230  -10.3590 O.2     1  UNL1       -0.2670
     11  H         21.3080  -20.6560  -11.9070 H       1  UNL1        0.1690
     12  C         23.4610  -21.8890  -11.6170 C.2     1  UNL1        0.0340
     13  C         24.4820  -21.5530  -10.7090 C.2     1  UNL1        0.0170
     14  C         25.7210  -21.1100  -11.1730 C.2     1  UNL1        0.0100
     15  C         25.9130  -21.0410  -12.5430 C.2     1  UNL1       -0.0360
     16  C         24.9170  -21.4000  -13.4590 C.2     1  UNL1        0.0170
     17  C         27.1210  -20.5720  -13.2830 C.3     1  UNL1        0.0550
     18  C         23.6800  -21.8220  -13.0020 C.2     1  UNL1        0.0410
     19  N         25.3330  -21.2290  -14.7950 N.pl3   1  UNL1       -0.2870
     20  C         24.8060  -22.1460  -15.7900 C.3     1  UNL1        0.1160
     21  C         26.8020  -21.1060  -14.6900 C.3     1  UNL1        0.1000
     22  S         17.9010  -23.5520   -7.9640 S.O2    1  UNL1        0.2630
     23  O         19.1410  -24.2440   -7.6780 O.2     1  UNL1       -0.2000
     24  O         16.6590  -24.2850   -8.0680 O.2     1  UNL1       -0.2000
     25  N         17.6700  -22.3620   -6.7840 N.pl3   1  UNL1       -0.2780
     26  H         18.5000  -21.7740   -6.6880 H       1  UNL1        0.1790
     27  C         17.0360  -22.7370   -5.5590 C.2     1  UNL1        0.0810
     28  C         17.7640  -23.3010   -4.5130 C.2     1  UNL1        0.0330
     29  C         17.1230  -23.6160   -3.3120 C.2     1  UNL1        0.0020
     30  C         15.7580  -23.3670   -3.1540 C.2     1  UNL1        0.0030
     31  C         15.0260  -22.8030   -4.2000 C.2     1  UNL1        0.0440
     32  C         15.6690  -22.4940   -5.3940 C.2     1  UNL1        0.1430
     33  F         14.9650  -21.9480   -6.3970 F       1  UNL1       -0.2040
@<TRIPOS>BOND
     1    20    19    1
     2    19    21    1
     3    19    16    1
     4    21    17    1
     5    16    18    1
     6    16    15    2
     7    17    15    1
     8    18    12    2
     9    15    14    1
    10    11     8    1
    11     4     3    1
    12     4     5    2
    13    12     9    1
    14    12    13    1
    15     8     9   am
    16     8     5    1
    17     3     2    2
    18    14    13    2
    19     9    10    2
    20     5     6    1
    21     2     1    1
    22     2     7    1
    23     6     7    2
    24     7    22    1
    25    24    22    2
    26    22    23    2
    27    22    25    1
    28    25    26    1
    29    25    27    1
    30    33    32    1
    31    27    32    2
    32    27    28    1
    33    32    31    1
    34    28    29    2
    35    31    30    2
    36    29    30    1
