@<TRIPOS>MOLECULE
51745_out_ligand_01.pdbqt
 35 39 0 0 0
SMALL
GASTEIGER

@<TRIPOS>ATOM
      1  C         18.7200  -22.2490  -10.6530 C.2     1  UNL1       -0.0350
      2  C         18.3540  -21.0290  -11.2210 C.2     1  UNL1        0.0280
      3  C         19.3170  -20.3020  -11.8990 C.2     1  UNL1        0.1190
      4  N         20.5920  -20.7070  -12.0620 N.2     1  UNL1       -0.2430
      5  C         20.9500  -21.8840  -11.5270 C.2     1  UNL1        0.1300
      6  C         20.0450  -22.6770  -10.8240 C.2     1  UNL1        0.0590
      7  C         17.7340  -23.1380   -9.9390 C.3     1  UNL1        0.1610
      8  N         17.5260  -22.7630   -8.5600 N.am    1  UNL1       -0.3530
      9  C         18.3570  -23.1670   -7.5440 C.2     1  UNL1        0.2540
     10  O         19.2570  -23.9830   -7.7140 O.2     1  UNL1       -0.2680
     11  H         16.8440  -22.0420   -8.3550 H       1  UNL1        0.1630
     12  C         18.1190  -22.5750   -6.1860 C.2     1  UNL1        0.0680
     13  C         19.0100  -21.5650   -5.7730 C.2     1  UNL1        0.0200
     14  C         18.8600  -20.9300   -4.5380 C.2     1  UNL1        0.0040
     15  C         17.8270  -21.3070   -3.6890 C.2     1  UNL1        0.0400
     16  C         16.9480  -22.3190   -4.0740 C.2     1  UNL1        0.1030
     17  C         17.0650  -22.9390   -5.3290 C.2     1  UNL1        0.1170
     18  O         15.9820  -22.6340   -3.1540 O.2     1  UNL1       -0.3460
     19  O         16.1670  -23.8960   -5.7400 O.2     1  UNL1       -0.3450
     20  C         14.9830  -23.9210   -4.9350 C.3     1  UNL1        0.2020
     21  C         15.3460  -23.8720   -3.4660 C.3     1  UNL1        0.2020
     22  N         22.2500  -22.3810  -11.6700 N.am    1  UNL1       -0.3070
     23  C         23.3530  -22.0240  -10.9290 C.2     1  UNL1        0.2600
     24  O         23.3690  -21.2240   -9.9970 O.2     1  UNL1       -0.2670
     25  H         22.3930  -23.0740  -12.3910 H       1  UNL1        0.1700
     26  C         24.6520  -22.6830  -11.3150 C.2     1  UNL1        0.0680
     27  C         25.3950  -23.2690  -10.2720 C.2     1  UNL1        0.0200
     28  C         26.6150  -23.8990  -10.5200 C.2     1  UNL1        0.0040
     29  C         27.1210  -23.9460  -11.8140 C.2     1  UNL1        0.0400
     30  C         26.4060  -23.3660  -12.8600 C.2     1  UNL1        0.1030
     31  C         25.1610  -22.7530  -12.6270 C.2     1  UNL1        0.1170
     32  O         26.9950  -23.4530  -14.0950 O.2     1  UNL1       -0.3460
     33  O         24.4310  -22.2070  -13.6610 O.2     1  UNL1       -0.3450
     34  C         24.8490  -22.7110  -14.9330 C.3     1  UNL1        0.2020
     35  C         26.3580  -22.6090  -15.0570 C.3     1  UNL1        0.2020
@<TRIPOS>BOND
     1    35    34    1
     2    35    32    1
     3    34    33    1
     4    32    30    1
     5    33    31    1
     6    30    31    1
     7    30    29    2
     8    31    26    2
     9    25    22    1
    10     4     3    2
    11     4     5    1
    12     3     2    1
    13    29    28    1
    14    22     5    1
    15    22    23   am
    16     5     6    2
    17    26    23    1
    18    26    27    1
    19     2     1    2
    20    23    24    2
    21     6     1    1
    22     1     7    1
    23    28    27    2
    24     7     8    1
    25     8    11    1
    26     8     9   am
    27    10     9    2
    28     9    12    1
    29    12    13    2
    30    12    17    1
    31    13    14    1
    32    19    17    1
    33    19    20    1
    34    17    16    2
    35    20    21    1
    36    14    15    2
    37    16    15    1
    38    16    18    1
    39    21    18    1
