@<TRIPOS>MOLECULE
51764_out_ligand_01.pdbqt
 33 36 0 0 0
SMALL
GASTEIGER

@<TRIPOS>ATOM
      1  C         18.2980  -21.5930  -11.6310 C.3     1  UNL1        0.0500
      2  C         19.7800  -21.7230  -11.3700 C.2     1  UNL1       -0.0350
      3  C         20.6650  -21.4690  -12.4330 C.2     1  UNL1        0.0100
      4  C         22.0440  -21.5700  -12.2580 C.2     1  UNL1        0.0170
      5  C         22.5610  -21.9360  -11.0130 C.2     1  UNL1        0.0340
      6  C         21.6860  -22.1830   -9.9430 C.2     1  UNL1        0.0470
      7  C         20.2970  -22.0860  -10.1050 C.2     1  UNL1        0.0420
      8  C         24.0280  -22.0390  -10.7740 C.2     1  UNL1        0.2510
      9  O         24.6740  -21.0690  -10.3920 O.2     1  UNL1       -0.2680
     10  N         24.5940  -23.2830  -10.9700 N.am    1  UNL1       -0.3560
     11  H         23.9870  -24.0960  -10.9620 H       1  UNL1        0.1620
     12  C         25.9720  -23.5460  -10.5930 C.3     1  UNL1        0.1300
     13  C         26.9340  -23.4290  -11.7790 C.3     1  UNL1        0.1000
     14  C         26.2510  -23.6480  -13.0880 C.ar    1  UNL1        0.1310
     15  N         25.8330  -24.7980  -13.5870 N.ar    1  UNL1       -0.1350
     16  N         25.2550  -24.5570  -14.8080 N.ar    1  UNL1       -0.1350
     17  C         25.3260  -23.2650  -15.0340 C.ar    1  UNL1        0.1300
     18  N         25.9670  -22.6620  -13.9870 N.ar    1  UNL1       -0.3200
     19  C         24.8370  -22.5090  -16.2150 C.3     1  UNL1        0.0810
     20  C         26.2170  -21.2440  -13.8830 C.3     1  UNL1        0.1320
     21  C         25.9990  -20.5160  -15.2130 C.3     1  UNL1        0.0210
     22  C         24.7330  -21.0150  -15.9110 C.3     1  UNL1        0.0090
     23  N         19.3850  -22.3150   -9.0450 N.am    1  UNL1       -0.3220
     24  C         19.3030  -23.4130   -8.2090 C.2     1  UNL1        0.2590
     25  O         19.9790  -24.4350   -8.2930 O.2     1  UNL1       -0.2670
     26  H         18.7040  -21.5790   -8.8840 H       1  UNL1        0.1690
     27  C         18.2890  -23.3350   -7.1110 C.2     1  UNL1        0.0700
     28  C         17.1740  -24.1870   -7.1690 C.2     1  UNL1        0.0200
     29  C         16.2050  -24.1660   -6.1620 C.2     1  UNL1        0.0010
     30  C         16.3340  -23.2900   -5.0880 C.2     1  UNL1        0.0030
     31  C         17.4320  -22.4350   -5.0210 C.2     1  UNL1        0.0430
     32  C         18.3970  -22.4620   -6.0270 C.2     1  UNL1        0.1320
     33  F         19.4370  -21.6180   -5.9190 F       1  UNL1       -0.2050
@<TRIPOS>BOND
     1    19    22    1
     2    19    17    1
     3    22    21    1
     4    21    20    1
     5    17    16   ar
     6    17    18   ar
     7    16    15   ar
     8    18    20    1
     9    18    14   ar
    10    15    14   ar
    11    14    13    1
    12     3     4    1
    13     3     2    2
    14     4     5    2
    15    13    12    1
    16     1     2    1
    17     2     7    1
    18     5     8    1
    19     5     6    1
    20    10    11    1
    21    10     8   am
    22    10    12    1
    23     8     9    2
    24     7     6    2
    25     7    23    1
    26    23    26    1
    27    23    24   am
    28    25    24    2
    29    24    27    1
    30    28    27    2
    31    28    29    1
    32    27    32    1
    33    29    30    2
    34    32    33    1
    35    32    31    2
    36    30    31    1
