@<TRIPOS>MOLECULE
51784_out_ligand_01.pdbqt
 28 30 0 0 0
SMALL
GASTEIGER

@<TRIPOS>ATOM
      1  N         21.0680  -23.6580   -9.8520 N.am    1  UNL1       -0.3530
      2  C         22.4250  -23.4380   -9.9640 C.2     1  UNL1        0.2510
      3  O         23.2460  -23.7770   -9.1220 O.2     1  UNL1       -0.2680
      4  H         20.5000  -23.5860  -10.6830 H       1  UNL1        0.1630
      5  C         20.5230  -24.4410   -8.7650 C.3     1  UNL1        0.1610
      6  C         19.7790  -23.5570   -7.7970 C.2     1  UNL1       -0.0400
      7  C         20.3460  -22.3620   -7.3370 C.2     1  UNL1        0.0090
      8  C         19.6350  -21.5360   -6.4690 C.2     1  UNL1        0.0010
      9  C         18.3500  -21.8910   -6.0550 C.2     1  UNL1        0.0120
     10  C         17.7550  -23.0840   -6.4950 C.2     1  UNL1        0.0040
     11  C         18.4840  -23.9010   -7.3780 C.2     1  UNL1        0.0210
     12  C         16.3480  -23.4810   -6.0570 C.3     1  UNL1        0.1890
     13  C         15.6040  -24.1840   -7.1920 C.3     1  UNL1        0.0850
     14  O         16.4220  -24.3860   -4.9380 O.3     1  UNL1       -0.3490
     15  C         16.1180  -23.5760   -3.8060 C.3     1  UNL1        0.1980
     16  C         15.1130  -22.6020   -4.3540 C.3     1  UNL1        0.1980
     17  O         15.5910  -22.3170   -5.6680 O.3     1  UNL1       -0.3490
     18  C         22.8780  -22.7820  -11.2220 C.2     1  UNL1        0.0320
     19  C         21.9640  -21.9880  -11.9270 C.2     1  UNL1        0.0180
     20  C         22.3480  -21.3520  -13.1130 C.2     1  UNL1        0.0180
     21  C         23.6510  -21.5080  -13.6010 C.2     1  UNL1        0.0310
     22  C         24.5540  -22.3280  -12.9110 C.2     1  UNL1        0.0180
     23  C         24.1720  -22.9650  -11.7260 C.2     1  UNL1        0.0180
     24  C         24.1120  -20.8560  -14.8570 C.2     1  UNL1        0.2490
     25  N         24.7430  -19.6480  -14.7510 N.am    1  UNL1       -0.3660
     26  H         25.1320  -19.3150  -13.8790 H       1  UNL1        0.1590
     27  H         25.1540  -19.2920  -15.6050 H       1  UNL1        0.1590
     28  O         23.9680  -21.3930  -15.9480 O.2     1  UNL1       -0.2680
@<TRIPOS>BOND
     1    28    24    2
     2    27    25    1
     3    24    25   am
     4    24    21    1
     5    25    26    1
     6    21    20    2
     7    21    22    1
     8    20    19    1
     9    22    23    2
    10    19    18    2
    11    23    18    1
    12    18     2    1
    13     4     1    1
    14     2     1   am
    15     2     3    2
    16     1     5    1
    17     5     6    1
    18     6    11    2
    19     6     7    1
    20    11    10    1
    21     7     8    2
    22    13    12    1
    23    10    12    1
    24    10     9    2
    25     8     9    1
    26    12    17    1
    27    12    14    1
    28    17    16    1
    29    14    15    1
    30    16    15    1
