@<TRIPOS>MOLECULE
5178_out_ligand_01.pdbqt
 28 31 0 0 0
SMALL
GASTEIGER

@<TRIPOS>ATOM
      1  C         23.0810  -22.5090  -10.1690 C.2     1  UNL1        0.1410
      2  C         21.9960  -21.8110  -10.6660 C.2     1  UNL1        0.1290
      3  N         20.8820  -22.5260  -10.2970 N.pl3   1  UNL1       -0.3410
      4  C         21.3080  -23.6190   -9.5820 C.2     1  UNL1        0.1080
      5  N         22.6240  -23.6300   -9.5040 N.2     1  UNL1       -0.2280
      6  C         20.4250  -24.6710   -8.9930 C.3     1  UNL1        0.0980
      7  C         19.2370  -24.1000   -8.2220 C.3     1  UNL1        0.1340
      8  N         18.1810  -23.4700   -9.0330 N.am    1  UNL1       -0.3460
      9  C         17.1720  -22.7060   -8.4240 C.2     1  UNL1        0.2560
     10  O         16.5260  -21.8460   -9.0210 O.2     1  UNL1       -0.2670
     11  C         18.4560  -23.1880  -10.4440 C.3     1  UNL1        0.1460
     12  C         19.5280  -22.1200  -10.6270 C.3     1  UNL1        0.1490
     13  C         16.8730  -22.9380   -6.9930 C.2     1  UNL1        0.0590
     14  C         15.8260  -23.8120   -6.6660 C.2     1  UNL1        0.0190
     15  C         15.5290  -24.0620   -5.3300 C.2     1  UNL1        0.0020
     16  C         16.2620  -23.4260   -4.3280 C.2     1  UNL1        0.0090
     17  C         17.2870  -22.5220   -4.6530 C.2     1  UNL1       -0.0310
     18  C         17.6080  -22.2620   -5.9990 C.2     1  UNL1        0.0500
     19  C         18.0380  -21.8240   -3.5490 C.3     1  UNL1        0.0420
     20  N         18.6820  -21.4280   -6.3440 N.pl3   1  UNL1       -0.3890
     21  C         19.4560  -20.7780   -5.2960 C.3     1  UNL1        0.1200
     22  H         18.4450  -20.8320   -7.1420 H       1  UNL1        0.1590
     23  C         18.6240  -20.5110   -4.0530 C.3     1  UNL1        0.0240
     24  C         24.5050  -22.1800  -10.2920 C.2     1  UNL1        0.2690
     25  N         25.3770  -23.2370  -10.2160 N.am    1  UNL1       -0.3650
     26  H         26.3390  -23.0230  -10.4390 H       1  UNL1        0.1590
     27  H         25.0600  -24.1880  -10.3110 H       1  UNL1        0.1590
     28  O         24.9440  -21.0480  -10.4730 O.2     1  UNL1       -0.2660
@<TRIPOS>BOND
     1     2     3    1
     2     2     1    2
     3    12    11    1
     4    12     3    1
     5    28    24    2
     6    11     8    1
     7    26    25    1
     8    27    25    1
     9     3     4    1
    10    24    25   am
    11    24     1    1
    12     1     5    1
    13     4     5    2
    14     4     6    1
    15     8     9   am
    16     8     7    1
    17    10     9    2
    18     6     7    1
    19     9    13    1
    20    22    20    1
    21    13    14    2
    22    13    18    1
    23    14    15    1
    24    20    18    1
    25    20    21    1
    26    18    17    2
    27    15    16    2
    28    21    23    1
    29    17    16    1
    30    17    19    1
    31    23    19    1
