@<TRIPOS>MOLECULE
51796_out_ligand_01.pdbqt
 29 32 0 0 0
SMALL
GASTEIGER

@<TRIPOS>ATOM
      1  N         17.3340  -23.4570   -8.7600 N.pl3   1  UNL1       -0.1810
      2  H         16.8420  -24.2730   -9.1310 H       1  UNL1        0.1460
      3  S         18.5620  -24.0620   -7.7370 S.O2    1  UNL1        0.2480
      4  O         19.8260  -24.1560   -8.4320 O.2     1  UNL1       -0.2050
      5  O         17.9730  -25.2170   -7.0880 O.2     1  UNL1       -0.2050
      6  C         18.6960  -22.7820   -6.5310 C.2     1  UNL1        0.1080
      7  C         19.6950  -21.8060   -6.6410 C.2     1  UNL1        0.0280
      8  C         19.7920  -20.7880   -5.6790 C.2     1  UNL1        0.0020
      9  C         18.8970  -20.7360   -4.6080 C.2     1  UNL1        0.0100
     10  C         17.9100  -21.7060   -4.5260 C.2     1  UNL1       -0.0200
     11  C         16.8780  -21.8930   -3.4780 C.3     1  UNL1        0.0790
     12  C         17.8090  -22.7140   -5.4730 C.2     1  UNL1        0.0990
     13  C         16.0160  -22.9880   -4.1450 C.3     1  UNL1        0.0640
     14  C         14.7340  -22.4080   -4.7540 C.3     1  UNL1        0.0460
     15  C         15.6670  -24.0990   -3.1540 C.3     1  UNL1        0.0460
     16  O         16.7870  -23.5880   -5.2220 O.2     1  UNL1       -0.3390
     17  C         17.8100  -22.6170   -9.8170 C.2     1  UNL1        0.0230
     18  C         16.9400  -21.6960  -10.4010 C.2     1  UNL1        0.0240
     19  C         17.3970  -20.8420  -11.4050 C.2     1  UNL1        0.0030
     20  C         18.7310  -20.8950  -11.8110 C.2     1  UNL1        0.0170
     21  C         19.6120  -21.8000  -11.2000 C.2     1  UNL1        0.0330
     22  C         19.1480  -22.6670  -10.2040 C.2     1  UNL1        0.0410
     23  C         21.0420  -21.8880  -11.5980 C.2     1  UNL1        0.2520
     24  O         21.4030  -21.4200  -12.6720 O.2     1  UNL1       -0.2680
     25  N         21.8760  -22.5400  -10.7100 N.am    1  UNL1       -0.3520
     26  H         21.4660  -23.0640   -9.9480 H       1  UNL1        0.1630
     27  C         23.2610  -22.7460  -10.9920 C.3     1  UNL1        0.0840
     28  C         24.2270  -23.0750   -9.8860 C.3     1  UNL1        0.0270
     29  C         24.2840  -21.7340  -10.5560 C.3     1  UNL1        0.0270
@<TRIPOS>BOND
     1    24    23    2
     2    20    19    2
     3    20    21    1
     4    23    21    1
     5    23    25   am
     6    19    18    1
     7    21    22    2
     8    27    25    1
     9    27    29    1
    10    27    28    1
    11    25    26    1
    12    29    28    1
    13    18    17    2
    14    22    17    1
    15    17     1    1
    16     2     1    1
    17     1     3    1
    18     4     3    2
    19     3     5    2
    20     3     6    1
    21     7     6    2
    22     7     8    1
    23     6    12    1
    24     8     9    2
    25    12    16    1
    26    12    10    2
    27    16    13    1
    28    14    13    1
    29     9    10    1
    30    10    11    1
    31    13    11    1
    32    13    15    1
