@<TRIPOS>MOLECULE
5179_out_ligand_01.pdbqt
 30 33 0 0 0
SMALL
GASTEIGER

@<TRIPOS>ATOM
      1  C         23.6560  -21.2660  -14.1030 C.2     1  UNL1        0.1410
      2  C         24.0020  -22.1710  -13.1240 C.2     1  UNL1        0.1290
      3  N         22.9560  -22.1800  -12.2400 N.pl3   1  UNL1       -0.3410
      4  C         22.0060  -21.2980  -12.7000 C.2     1  UNL1        0.1080
      5  N         22.4090  -20.7300  -13.8210 N.2     1  UNL1       -0.2280
      6  C         20.7080  -20.9960  -12.0240 C.3     1  UNL1        0.0980
      7  C         20.0740  -22.1980  -11.3250 C.3     1  UNL1        0.1340
      8  N         20.6760  -22.4990  -10.0120 N.am    1  UNL1       -0.3460
      9  C         19.9380  -22.5390   -8.8200 C.2     1  UNL1        0.2570
     10  O         20.4740  -22.3850   -7.7240 O.2     1  UNL1       -0.2670
     11  C         22.1350  -22.4350   -9.8830 C.3     1  UNL1        0.1460
     12  C         22.9010  -23.0250  -11.0620 C.3     1  UNL1        0.1490
     13  C         18.5100  -22.7870   -8.9040 C.2     1  UNL1        0.0800
     14  C         17.7880  -22.8630  -10.0780 C.2     1  UNL1        0.1280
     15  N         16.5010  -23.1090   -9.7180 N.pl3   1  UNL1       -0.2880
     16  N         16.3220  -23.1980   -8.3930 N.2     1  UNL1       -0.1740
     17  H         15.6910  -23.2280  -10.3210 H       1  UNL1        0.1880
     18  C         17.5330  -22.9360   -7.8700 C.2     1  UNL1        0.1040
     19  C         17.7100  -22.8450   -6.4210 C.2     1  UNL1       -0.0020
     20  C         17.5190  -23.9670   -5.5970 C.2     1  UNL1        0.0140
     21  C         17.6740  -23.8670   -4.2110 C.2     1  UNL1        0.0040
     22  C         18.0270  -22.6460   -3.6400 C.2     1  UNL1        0.0420
     23  C         18.2310  -21.5400   -4.4570 C.2     1  UNL1        0.1170
     24  F         18.5750  -20.3700   -3.9040 F       1  UNL1       -0.2060
     25  C         18.0800  -21.6270   -5.8370 C.2     1  UNL1        0.0560
     26  C         24.4440  -20.8970  -15.2750 C.2     1  UNL1        0.2690
     27  N         25.1800  -19.7610  -15.0980 N.am    1  UNL1       -0.3650
     28  H         25.1250  -19.2760  -14.2100 H       1  UNL1        0.1590
     29  H         25.7560  -19.4160  -15.8490 H       1  UNL1        0.1590
     30  O         24.4630  -21.5280  -16.3260 O.2     1  UNL1       -0.2660
@<TRIPOS>BOND
     1    30    26    2
     2    29    27    1
     3    26    27   am
     4    26     1    1
     5    27    28    1
     6     1     5    1
     7     1     2    2
     8     5     4    2
     9     2     3    1
    10     4     3    1
    11     4     6    1
    12     3    12    1
    13     6     7    1
    14     7     8    1
    15    12    11    1
    16    17    15    1
    17    14    15    1
    18    14    13    2
    19     8    11    1
    20     8     9   am
    21    15    16    1
    22    13     9    1
    23    13    18    1
    24     9    10    2
    25    16    18    2
    26    18    19    1
    27    19    25    2
    28    19    20    1
    29    25    23    1
    30    20    21    2
    31    23    24    1
    32    23    22    2
    33    21    22    1
