@<TRIPOS>MOLECULE
51808_out_ligand_01.pdbqt
 26 29 0 0 0
SMALL
GASTEIGER

@<TRIPOS>ATOM
      1  C         21.5900  -22.0040  -10.9290 C.2     1  UNL1        0.0760
      2  C         21.1220  -21.0170  -11.7880 C.2     1  UNL1        0.0250
      3  C         19.7590  -20.7590  -11.8310 C.2     1  UNL1        0.0110
      4  C         18.8630  -21.4930  -11.0280 C.2     1  UNL1       -0.0310
      5  C         19.3220  -22.4980  -10.1390 C.2     1  UNL1        0.0380
      6  C         20.7060  -22.7440  -10.1270 C.2     1  UNL1        0.0540
      7  N         18.4110  -23.2430   -9.3640 N.pl3   1  UNL1       -0.3750
      8  C         17.1050  -22.5970   -9.1560 C.3     1  UNL1        0.1230
      9  C         16.5120  -22.1890  -10.4930 C.3     1  UNL1        0.0240
     10  C         17.4000  -21.1320  -11.1210 C.3     1  UNL1        0.0420
     11  C         18.9070  -24.0760   -8.2550 C.3     1  UNL1        0.1820
     12  C         18.2560  -23.8570   -6.9330 C.2     1  UNL1        0.0530
     13  C         17.3240  -24.6120   -6.2510 C.2     1  UNL1        0.1460
     14  N         16.9790  -24.0290   -5.0610 N.2     1  UNL1       -0.2410
     15  C         17.6840  -22.9180   -5.0030 C.2     1  UNL1        0.1330
     16  C         17.7430  -21.9000   -4.0090 C.2     1  UNL1        0.0510
     17  N         18.4900  -22.7610   -6.1290 N.pl3   1  UNL1       -0.3080
     18  C         18.5590  -20.8420   -4.1810 C.2     1  UNL1        0.0050
     19  C         19.3930  -20.7110   -5.3660 C.2     1  UNL1        0.0180
     20  C         19.3400  -21.6670   -6.3080 C.2     1  UNL1        0.0990
     21  S         23.3160  -22.3770  -10.8900 S.O2    1  UNL1        0.2390
     22  O         23.7080  -22.9650  -12.1490 O.2     1  UNL1       -0.2060
     23  O         24.0320  -21.2720  -10.2950 O.2     1  UNL1       -0.2060
     24  N         23.3760  -23.6220   -9.7640 N.3     1  UNL1       -0.2250
     25  H         22.9820  -24.4730  -10.1680 H       1  UNL1        0.1360
     26  H         24.3310  -23.7330   -9.4220 H       1  UNL1        0.1360
@<TRIPOS>BOND
     1    22    21    2
     2     3     2    1
     3     3     4    2
     4     2     1    2
     5    10     4    1
     6    10     9    1
     7     4     5    1
     8     1    21    1
     9     1     6    1
    10    21    23    2
    11    21    24    1
    12     9     8    1
    13    25    24    1
    14     5     6    2
    15     5     7    1
    16    24    26    1
    17     7     8    1
    18     7    11    1
    19    11    12    1
    20    12    13    2
    21    12    17    1
    22    20    17    1
    23    20    19    2
    24    13    14    1
    25    17    15    1
    26    19    18    1
    27    14    15    2
    28    15    16    1
    29    18    16    2
