@<TRIPOS>MOLECULE
51812_out_ligand_01.pdbqt
 33 36 0 0 0
SMALL
GASTEIGER

@<TRIPOS>ATOM
      1  C         22.2460  -23.7970   -9.0680 C.3     1  UNL1        0.1610
      2  N         20.8720  -23.5750   -8.6780 N.am    1  UNL1       -0.3530
      3  C         20.5330  -22.5960   -7.7690 C.2     1  UNL1        0.2520
      4  O         21.3400  -21.8160   -7.2770 O.2     1  UNL1       -0.2680
      5  H         20.2240  -24.3350   -8.8380 H       1  UNL1        0.1630
      6  C         19.1050  -22.5440   -7.3560 C.2     1  UNL1        0.0350
      7  C         18.1270  -22.6230   -8.3520 C.2     1  UNL1        0.0540
      8  C         16.7780  -22.5830   -8.0000 C.2     1  UNL1        0.0770
      9  C         16.3720  -22.4710   -6.6550 C.2     1  UNL1        0.0070
     10  C         15.0180  -22.4260   -6.2700 C.2     1  UNL1        0.0150
     11  C         17.3670  -22.4090   -5.6480 C.2     1  UNL1       -0.0220
     12  C         14.6510  -22.3250   -4.9270 C.2     1  UNL1        0.0010
     13  C         15.6330  -22.2700   -3.9430 C.2     1  UNL1        0.0010
     14  C         16.9810  -22.3120   -4.3000 C.2     1  UNL1        0.0120
     15  C         18.7250  -22.4510   -6.0100 C.2     1  UNL1        0.0290
     16  O         15.8230  -22.6600   -8.9850 O.2     1  UNL1       -0.3600
     17  H         16.0490  -23.3840   -9.5910 H       1  UNL1        0.2170
     18  C         22.5580  -23.1030  -10.3690 C.2     1  UNL1       -0.0400
     19  C         23.8710  -23.0520  -10.8560 C.2     1  UNL1        0.0100
     20  C         24.1570  -22.3830  -12.0490 C.2     1  UNL1        0.0170
     21  C         23.1300  -21.7620  -12.7720 C.2     1  UNL1        0.0320
     22  C         21.8190  -21.7880  -12.2790 C.2     1  UNL1        0.0170
     23  C         21.5380  -22.4580  -11.0870 C.2     1  UNL1        0.0100
     24  C         23.4760  -21.0560  -14.0350 C.2     1  UNL1        0.2560
     25  O         22.6770  -20.2470  -14.4920 O.2     1  UNL1       -0.2670
     26  N         24.7210  -21.3620  -14.5530 N.am    1  UNL1       -0.3220
     27  H         25.3270  -21.9440  -13.9900 H       1  UNL1        0.1690
     28  C         25.2770  -20.8670  -15.7520 C.2     1  UNL1        0.0520
     29  C         24.9560  -21.5290  -16.9400 C.2     1  UNL1        0.0320
     30  C         25.4700  -21.0750  -18.1530 C.2     1  UNL1        0.0210
     31  C         26.2970  -19.9650  -18.1410 C.2     1  UNL1        0.1160
     32  N         26.6310  -19.2960  -17.0200 N.2     1  UNL1       -0.2710
     33  C         26.1150  -19.7580  -15.8500 C.2     1  UNL1        0.1450
@<TRIPOS>BOND
     1    30    31    2
     2    30    29    1
     3    31    32    1
     4    32    33    2
     5    29    28    2
     6    33    28    1
     7    28    26    1
     8    26    24   am
     9    26    27    1
    10    25    24    2
    11    24    21    1
    12    21    22    2
    13    21    20    1
    14    22    23    1
    15    20    19    2
    16    23    18    2
    17    19    18    1
    18    18     1    1
    19    17    16    1
    20     1     2    1
    21    16     8    1
    22     5     2    1
    23     2     3   am
    24     7     8    1
    25     7     6    2
    26     8     9    2
    27     3     6    1
    28     3     4    2
    29     6    15    1
    30     9    10    1
    31     9    11    1
    32    10    12    2
    33    15    11    2
    34    11    14    1
    35    12    13    1
    36    14    13    2
