@<TRIPOS>MOLECULE
51845_out_ligand_01.pdbqt
 34 36 0 0 0
SMALL
GASTEIGER

@<TRIPOS>ATOM
      1  C         19.3950  -23.5470   -8.7320 C.2     1  UNL1       -0.0370
      2  C         20.6710  -23.4050   -9.3060 C.2     1  UNL1        0.0380
      3  C         20.8770  -22.6000  -10.4290 C.2     1  UNL1        0.0360
      4  C         19.7880  -21.9170  -10.9810 C.2     1  UNL1        0.0450
      5  C         18.5020  -22.0420  -10.4330 C.2     1  UNL1        0.0500
      6  C         18.3150  -22.8720   -9.3170 C.2     1  UNL1        0.0250
      7  N         22.1220  -22.4440  -11.0730 N.am    1  UNL1       -0.3270
      8  C         23.2350  -21.7420  -10.6230 C.2     1  UNL1        0.2300
      9  O         23.2980  -21.0860   -9.5880 O.2     1  UNL1       -0.2720
     10  H         22.2190  -22.9150  -11.9660 H       1  UNL1        0.1690
     11  C         24.4310  -21.8850  -11.5740 C.3     1  UNL1        0.1140
     12  C         25.7100  -21.2310  -10.9840 C.3     1  UNL1        0.0190
     13  C         26.8660  -21.1940  -12.0090 C.3     1  UNL1        0.0070
     14  C         26.5120  -20.3650  -13.2620 C.3     1  UNL1        0.0590
     15  C         25.1250  -20.6800  -13.6820 C.2     1  UNL1        0.0360
     16  N         24.5510  -20.3440  -14.8710 N.pl3   1  UNL1       -0.2820
     17  C         24.1560  -21.3210  -12.9350 C.2     1  UNL1       -0.0020
     18  N         23.2630  -20.7240  -14.9450 N.2     1  UNL1       -0.1860
     19  H         24.9630  -19.8590  -15.6630 H       1  UNL1        0.1890
     20  C         23.0170  -21.2940  -13.7590 C.2     1  UNL1        0.1480
     21  C         19.2370  -24.4800   -7.5520 C.3     1  UNL1        0.1630
     22  N         17.8870  -24.5630   -7.0550 N.am    1  UNL1       -0.3330
     23  C         17.5050  -24.0630   -5.8490 C.2     1  UNL1        0.3610
     24  O         18.2330  -23.4670   -5.0710 O.2     1  UNL1       -0.2380
     25  H         17.1770  -25.0390   -7.5930 H       1  UNL1        0.1650
     26  O         16.1960  -24.3550   -5.6590 O.3     1  UNL1       -0.2940
     27  C         15.2370  -23.2960   -5.4030 C.3     1  UNL1        0.0610
     28  C         15.2100  -22.2900   -6.5570 C.3     1  UNL1        0.0460
     29  C         13.8740  -24.0060   -5.3480 C.3     1  UNL1        0.0460
     30  C         15.4880  -22.6230   -4.0520 C.3     1  UNL1        0.0460
     31  C         17.3240  -21.3400  -11.0620 C.3     1  UNL1        0.4170
     32  F         17.2320  -21.5790  -12.3990 F       1  UNL1       -0.1660
     33  F         16.1310  -21.7200  -10.5270 F       1  UNL1       -0.1660
     34  F         17.3750  -19.9850  -10.9290 F       1  UNL1       -0.1660
@<TRIPOS>BOND
     1    19    16    1
     2    18    16    1
     3    18    20    2
     4    16    15    1
     5    20    17    1
     6    15    14    1
     7    15    17    2
     8    14    13    1
     9    17    11    1
    10    32    31    1
    11    13    12    1
    12    10     7    1
    13    11    12    1
    14    11     8    1
    15     7     8   am
    16     7     3    1
    17    31    34    1
    18    31    33    1
    19    31     5    1
    20     4     5    2
    21     4     3    1
    22     8     9    2
    23     5     6    1
    24     3     2    2
    25     6     1    2
    26     2     1    1
    27     1    21    1
    28    25    22    1
    29    21    22    1
    30    22    23   am
    31    28    27    1
    32    23    26    1
    33    23    24    2
    34    26    27    1
    35    27    29    1
    36    27    30    1
