@<TRIPOS>MOLECULE
51866_out_ligand_01.pdbqt
 29 32 0 0 0
SMALL
GASTEIGER

@<TRIPOS>ATOM
      1  C         20.0420  -23.4020   -7.8030 C.2     1  UNL1        0.0320
      2  C         20.7450  -22.2510   -7.4350 C.2     1  UNL1        0.0190
      3  C         22.0260  -22.0100   -7.9460 C.2     1  UNL1        0.0240
      4  C         22.6510  -22.9300   -8.7960 C.2     1  UNL1        0.0080
      5  C         21.9220  -24.0680   -9.1750 C.2     1  UNL1        0.0240
      6  C         20.6390  -24.3170   -8.6740 C.2     1  UNL1        0.0190
      7  C         18.6840  -23.6230   -7.2310 C.2     1  UNL1        0.2560
      8  N         18.1630  -22.5470   -6.5440 N.am    1  UNL1       -0.3210
      9  H         18.7580  -21.7430   -6.3760 H       1  UNL1        0.1690
     10  O         18.1600  -24.7200   -7.3850 O.2     1  UNL1       -0.2670
     11  C         16.8930  -22.4300   -5.9330 C.2     1  UNL1        0.0680
     12  C         15.7000  -22.3150   -6.6480 C.2     1  UNL1        0.0320
     13  C         14.4830  -22.1990   -5.9720 C.2     1  UNL1        0.0020
     14  C         14.4530  -22.1950   -4.5810 C.2     1  UNL1        0.0030
     15  C         15.6400  -22.3060   -3.8540 C.2     1  UNL1        0.0390
     16  C         16.8640  -22.4230   -4.5210 C.2     1  UNL1        0.0950
     17  O         18.0890  -22.5330   -3.9050 O.2     1  UNL1       -0.3540
     18  C         18.5360  -21.4100   -3.1540 C.3     1  UNL1        0.2100
     19  N         23.8970  -22.7140   -9.3870 N.pl3   1  UNL1       -0.2850
     20  H         24.6340  -22.5760   -8.6980 H       1  UNL1        0.1280
     21  C         24.0220  -21.7670  -10.5050 C.3     1  UNL1        0.1800
     22  C         22.7970  -21.6130  -11.3460 C.ar    1  UNL1        0.1820
     23  N         22.6110  -21.8820  -12.6210 N.ar    1  UNL1       -0.1260
     24  N         21.2930  -21.5750  -12.8920 N.ar    1  UNL1       -0.1260
     25  C         20.7640  -21.1450  -11.7650 C.ar    1  UNL1        0.1730
     26  O         21.6620  -21.1480  -10.7290 O.2     1  UNL1       -0.2760
     27  C         19.2870  -20.6860  -11.6040 C.3     1  UNL1        0.0650
     28  C         18.1630  -21.5660  -12.0880 C.3     1  UNL1        0.0130
     29  C         18.4060  -21.4050  -10.6140 C.3     1  UNL1        0.0130
@<TRIPOS>BOND
     1    24    23   ar
     2    24    25   ar
     3    23    22   ar
     4    28    27    1
     5    28    29    1
     6    25    27    1
     7    25    26   ar
     8    27    29    1
     9    22    26   ar
    10    22    21    1
    11    21    19    1
    12    19     4    1
    13    19    20    1
    14     5     4    2
    15     5     6    1
    16     4     3    1
    17     6     1    2
    18     3     2    2
    19     1     2    1
    20     1     7    1
    21    10     7    2
    22     7     8   am
    23    12    13    1
    24    12    11    2
    25     8     9    1
    26     8    11    1
    27    13    14    2
    28    11    16    1
    29    14    15    1
    30    16    17    1
    31    16    15    2
    32    17    18    1
