@<TRIPOS>MOLECULE
51881_out_ligand_01.pdbqt
 34 38 0 0 0
SMALL
GASTEIGER

@<TRIPOS>ATOM
      1  C         16.7800  -21.6260   -9.9380 C.3     1  UNL1        0.1210
      2  C         18.0650  -21.5570  -10.7250 C.2     1  UNL1       -0.0480
      3  C         18.7840  -22.7310  -11.0110 C.2     1  UNL1        0.0090
      4  C         19.9970  -22.6760  -11.7010 C.2     1  UNL1        0.0170
      5  C         20.5190  -21.4430  -12.1100 C.2     1  UNL1        0.0320
      6  C         19.7950  -20.2670  -11.8560 C.2     1  UNL1        0.0170
      7  C         18.5780  -20.3250  -11.1650 C.2     1  UNL1        0.0090
      8  C         21.8350  -21.4280  -12.8080 C.2     1  UNL1        0.2520
      9  O         21.9410  -20.9100  -13.9160 O.2     1  UNL1       -0.2680
     10  N         22.8750  -22.0710  -12.1620 N.am    1  UNL1       -0.3520
     11  H         22.6410  -22.6660  -11.3840 H       1  UNL1        0.1630
     12  C         24.1460  -22.3210  -12.8390 C.3     1  UNL1        0.0840
     13  C         24.9090  -21.0060  -13.0760 C.3     1  UNL1        0.0250
     14  C         26.0300  -20.7410  -12.0710 C.3     1  UNL1        0.0020
     15  C         25.7010  -21.2700  -10.6850 C.3     1  UNL1        0.0000
     16  C         25.4410  -22.7750  -10.6890 C.3     1  UNL1        0.0020
     17  C         24.9940  -23.3200  -12.0450 C.3     1  UNL1        0.0250
     18  S         16.2340  -23.2950   -9.5040 S.3     1  UNL1       -0.0870
     19  C         16.2710  -23.2190   -7.7720 C.ar    1  UNL1        0.1710
     20  N         15.4080  -22.5360   -7.0420 N.ar    1  UNL1       -0.2210
     21  C         15.8140  -22.7200   -5.7480 C.ar    1  UNL1        0.1050
     22  C         15.3050  -22.2180   -4.5420 C.2     1  UNL1        0.0370
     23  C         16.9260  -23.5600   -5.6920 C.ar    1  UNL1        0.1610
     24  C         15.9530  -22.6100   -3.3680 C.2     1  UNL1        0.0220
     25  C         17.0490  -23.4730   -3.4490 C.2     1  UNL1        0.1190
     26  N         17.5810  -23.9840   -4.5900 N.2     1  UNL1       -0.2410
     27  N         17.2200  -23.8540   -7.0040 N.ar    1  UNL1       -0.3040
     28  C         18.2820  -24.7520   -7.4270 C.3     1  UNL1        0.1710
     29  C         19.5370  -24.0180   -7.8400 C.2     1  UNL1       -0.0400
     30  C         19.7660  -22.6930   -7.4360 C.2     1  UNL1        0.0090
     31  C         20.9400  -22.0310   -7.7950 C.2     1  UNL1        0.0010
     32  C         21.9030  -22.6870   -8.5580 C.2     1  UNL1        0.0000
     33  C         21.6920  -24.0040   -8.9610 C.2     1  UNL1        0.0010
     34  C         20.5150  -24.6660   -8.6070 C.2     1  UNL1        0.0090
@<TRIPOS>BOND
     1     9     8    2
     2    13    12    1
     3    13    14    1
     4    12    10    1
     5    12    17    1
     6     8    10   am
     7     8     5    1
     8    10    11    1
     9     5     6    2
    10     5     4    1
    11    14    15    1
    12    17    16    1
    13     6     7    1
    14     4     3    2
    15     7     2    2
    16     3     2    1
    17     2     1    1
    18    16    15    1
    19     1    18    1
    20    18    19    1
    21    33    34    1
    22    33    32    2
    23    34    29    2
    24    32    31    1
    25    29    30    1
    26    29    28    1
    27    31    30    2
    28    19    20   ar
    29    19    27   ar
    30    28    27    1
    31    20    21   ar
    32    27    23   ar
    33    21    23   ar
    34    21    22    1
    35    23    26    1
    36    26    25    2
    37    22    24    2
    38    25    24    1
