@<TRIPOS>MOLECULE
51884_out_ligand_01.pdbqt
 35 39 0 0 0
SMALL
GASTEIGER

@<TRIPOS>ATOM
      1  C         17.6640  -23.0080   -7.3350 C.2     1  UNL1        0.2580
      2  O         17.5510  -23.6050   -8.4010 O.2     1  UNL1       -0.2670
      3  N         18.7680  -22.2880   -6.9100 N.am    1  UNL1       -0.3130
      4  C         18.8390  -21.4090   -5.7260 C.2     1  UNL1        0.1370
      5  C         20.1920  -20.6890   -5.7630 C.2     1  UNL1        0.0610
      6  C         20.8750  -21.3730   -6.8980 C.2     1  UNL1       -0.0300
      7  C         22.1840  -21.2060   -7.3140 C.2     1  UNL1        0.0100
      8  C         22.6320  -21.9500   -8.4080 C.2     1  UNL1        0.0090
      9  C         21.7710  -22.8300   -9.0980 C.2     1  UNL1       -0.0380
     10  C         20.4450  -22.9870   -8.6490 C.2     1  UNL1        0.0390
     11  C         20.0160  -22.2570   -7.5530 C.2     1  UNL1        0.0440
     12  C         22.2600  -23.6750  -10.2540 C.3     1  UNL1        0.1630
     13  N         23.4860  -23.1790  -10.8430 N.am    1  UNL1       -0.3390
     14  C         23.4570  -22.3300  -11.9260 C.2     1  UNL1        0.3200
     15  O         22.4140  -21.9190  -12.4120 O.2     1  UNL1       -0.2470
     16  N         24.7340  -22.0300  -12.3490 N.am    1  UNL1       -0.3090
     17  H         25.4680  -22.2410  -11.6890 H       1  UNL1        0.1700
     18  H         24.2860  -23.7860  -10.7620 H       1  UNL1        0.1640
     19  C         25.1030  -21.2880  -13.4900 C.2     1  UNL1        0.0390
     20  C         25.9940  -20.2210  -13.3040 C.2     1  UNL1        0.0320
     21  C         26.4140  -19.4380  -14.3860 C.2     1  UNL1        0.0420
     22  C         25.9460  -19.7200  -15.6630 C.2     1  UNL1        0.1020
     23  C         25.0870  -20.8050  -15.8650 C.2     1  UNL1        0.1040
     24  O         26.3740  -18.8990  -16.6740 O.2     1  UNL1       -0.3460
     25  C         24.6550  -21.5760  -14.7810 C.2     1  UNL1        0.0690
     26  O         24.6230  -21.1710  -17.1010 O.2     1  UNL1       -0.3460
     27  C         25.3680  -20.5420  -18.1500 C.3     1  UNL1        0.2020
     28  C         25.5650  -19.0650  -17.8460 C.3     1  UNL1        0.2020
     29  C         16.5080  -23.0580   -6.4160 C.2     1  UNL1        0.0330
     30  C         16.5010  -23.9870   -5.3720 C.2     1  UNL1        0.0170
     31  C         15.4200  -24.0210   -4.4930 C.2     1  UNL1        0.0020
     32  C         14.3600  -23.1230   -4.6490 C.2     1  UNL1        0.0070
     33  C         14.3640  -22.1850   -5.6930 C.2     1  UNL1       -0.0610
     34  C         13.2550  -21.1880   -5.8330 C.3     1  UNL1        0.0480
     35  C         15.4590  -22.1460   -6.5680 C.2     1  UNL1        0.0230
@<TRIPOS>BOND
     1    27    28    1
     2    27    26    1
     3    28    24    1
     4    26    23    1
     5    24    22    1
     6    23    22    2
     7    23    25    1
     8    22    21    1
     9    25    19    2
    10    21    20    2
    11    19    20    1
    12    19    16    1
    13    15    14    2
    14    16    14   am
    15    16    17    1
    16    14    13   am
    17    13    18    1
    18    13    12    1
    19    12     9    1
    20     9    10    2
    21     9     8    1
    22    10    11    1
    23     8     7    2
    24     2     1    2
    25    11     3    1
    26    11     6    2
    27     1     3   am
    28     1    29    1
    29     7     6    1
    30     3     4    1
    31     6     5    1
    32    35    29    2
    33    35    33    1
    34    29    30    1
    35    34    33    1
    36     5     4    2
    37    33    32    2
    38    30    31    2
    39    32    31    1
