@<TRIPOS>MOLECULE
51887_out_ligand_01.pdbqt
 29 32 0 0 0
SMALL
GASTEIGER

@<TRIPOS>ATOM
      1  C         21.7320  -22.5880   -9.5980 C.2     1  UNL1        0.0820
      2  C         20.8230  -22.5700  -10.6640 C.2     1  UNL1        0.0280
      3  C         19.4450  -22.5310  -10.4280 C.2     1  UNL1        0.0330
      4  C         19.0420  -22.5020   -9.0910 C.ar    1  UNL1        0.0620
      5  N         17.8060  -22.4600   -8.4990 N.ar    1  UNL1       -0.3380
      6  C         17.9620  -22.4450   -7.1300 C.ar    1  UNL1        0.1390
      7  N         19.2510  -22.4660   -6.8310 N.ar    1  UNL1       -0.2280
      8  C         19.9270  -22.5000   -8.0230 C.ar    1  UNL1        0.0870
      9  C         21.3050  -22.5320   -8.2640 C.2     1  UNL1        0.0590
     10  H         16.9270  -22.4400   -8.9900 H       1  UNL1        0.1670
     11  S         23.4780  -22.6410   -9.9330 S.O2    1  UNL1        0.2630
     12  O         23.9700  -21.2800   -9.9520 O.2     1  UNL1       -0.2000
     13  O         24.0630  -23.6330   -9.0550 O.2     1  UNL1       -0.2000
     14  N         23.5530  -23.2870  -11.4950 N.pl3   1  UNL1       -0.2790
     15  H         22.6960  -23.7970  -11.7170 H       1  UNL1        0.1790
     16  C         24.0980  -22.4880  -12.5500 C.2     1  UNL1        0.0600
     17  C         23.2630  -21.6420  -13.2820 C.2     1  UNL1        0.0320
     18  C         23.7770  -20.8790  -14.3340 C.2     1  UNL1        0.0090
     19  C         25.1380  -20.9420  -14.6590 C.2     1  UNL1       -0.0610
     20  C         25.6810  -20.1480  -15.8100 C.3     1  UNL1        0.0480
     21  C         25.9750  -21.7930  -13.9270 C.2     1  UNL1        0.0280
     22  C         25.4600  -22.5550  -12.8740 C.2     1  UNL1        0.0380
     23 BR         26.6530  -23.6700  -11.9060 Br      1  UNL1       -0.0490
     24  C         16.8580  -22.4040   -6.1630 C.2     1  UNL1        0.0100
     25  C         15.5090  -22.3940   -6.5490 C.2     1  UNL1        0.0150
     26  C         14.4910  -22.3550   -5.5900 C.2     1  UNL1        0.0010
     27  C         14.8060  -22.3250   -4.2340 C.2     1  UNL1        0.0000
     28  C         16.1390  -22.3360   -3.8330 C.2     1  UNL1        0.0010
     29  C         17.1550  -22.3750   -4.7910 C.2     1  UNL1        0.0150
@<TRIPOS>BOND
     1    20    19    1
     2    19    18    2
     3    19    21    1
     4    18    17    1
     5    21    22    2
     6    17    16    2
     7    22    16    1
     8    22    23    1
     9    16    14    1
    10    15    14    1
    11    14    11    1
    12     2     3    1
    13     2     1    2
    14     3     4    2
    15    12    11    2
    16    11     1    1
    17    11    13    2
    18     1     9    1
    19     4     5   ar
    20     4     8   ar
    21    10     5    1
    22     5     6   ar
    23     9     8    2
    24     8     7   ar
    25     6     7   ar
    26     6    24    1
    27    25    24    2
    28    25    26    1
    29    24    29    1
    30    26    27    2
    31    29    28    2
    32    27    28    1
