@<TRIPOS>MOLECULE
51897_out_ligand_01.pdbqt
 30 33 0 0 0
SMALL
GASTEIGER

@<TRIPOS>ATOM
      1  C         15.7010  -23.2470   -9.8600 C.3     1  UNL1        0.0330
      2  C         16.6500  -22.1280   -9.4190 C.3     1  UNL1        0.0930
      3  C         17.0730  -21.2650  -10.6300 C.3     1  UNL1        0.0660
      4  C         18.4860  -21.7030  -10.8430 C.2     1  UNL1       -0.0290
      5  C         19.3190  -21.3510  -11.8910 C.2     1  UNL1        0.0100
      6  C         20.6380  -21.8050  -11.8670 C.2     1  UNL1        0.0090
      7  C         21.1180  -22.5880  -10.7970 C.2     1  UNL1       -0.0380
      8  C         20.2500  -22.9360   -9.7480 C.2     1  UNL1        0.0390
      9  C         18.9390  -22.4900   -9.7840 C.2     1  UNL1        0.0440
     10  N         17.9050  -22.6820   -8.8400 N.am    1  UNL1       -0.3090
     11  C         18.0430  -23.3790   -7.6480 C.2     1  UNL1        0.2580
     12  O         19.0070  -24.0690   -7.3210 O.2     1  UNL1       -0.2670
     13  C         22.5500  -23.0570  -10.7940 C.3     1  UNL1        0.1610
     14  N         23.4340  -22.0100  -11.2470 N.am    1  UNL1       -0.3530
     15  C         24.3780  -22.2470  -12.2240 C.2     1  UNL1        0.2550
     16  O         24.5650  -23.3610  -12.7050 O.2     1  UNL1       -0.2680
     17  H         23.2220  -21.0590  -10.9670 H       1  UNL1        0.1630
     18  C         25.1960  -21.0940  -12.6890 C.2     1  UNL1        0.0700
     19  C         25.0270  -20.6490  -14.0100 C.2     1  UNL1        0.0200
     20  C         25.7810  -19.5790  -14.5060 C.2     1  UNL1        0.0010
     21  C         26.7140  -18.9440  -13.6860 C.2     1  UNL1        0.0030
     22  C         26.8880  -19.3760  -12.3710 C.2     1  UNL1        0.0430
     23  C         26.1310  -20.4410  -11.8800 C.2     1  UNL1        0.1320
     24  F         26.3290  -20.8140  -10.6060 F       1  UNL1       -0.2050
     25  C         16.9470  -23.2730   -6.6590 C.2     1  UNL1        0.0320
     26  C         16.9550  -22.2490   -5.7030 C.2     1  UNL1        0.0170
     27  C         15.9370  -22.1820   -4.7500 C.2     1  UNL1        0.0010
     28  C         14.9250  -23.1460   -4.7450 C.2     1  UNL1        0.0000
     29  C         14.9350  -24.1850   -5.6800 C.2     1  UNL1        0.0010
     30  C         15.9520  -24.2570   -6.6330 C.2     1  UNL1        0.0170
@<TRIPOS>BOND
     1    20    19    1
     2    20    21    2
     3    19    18    2
     4    21    22    1
     5    16    15    2
     6    18    15    1
     7    18    23    1
     8    22    23    2
     9    15    14   am
    10     5     6    1
    11     5     4    2
    12    23    24    1
    13     6     7    2
    14    14    17    1
    15    14    13    1
    16     4     3    1
    17     4     9    1
    18     7    13    1
    19     7     8    1
    20     3     2    1
    21     1     2    1
    22     9     8    2
    23     9    10    1
    24     2    10    1
    25    10    11   am
    26    11    12    2
    27    11    25    1
    28    25    30    2
    29    25    26    1
    30    30    29    1
    31    26    27    2
    32    29    28    2
    33    27    28    1
