@<TRIPOS>MOLECULE
51905_out_ligand_01.pdbqt
 35 39 0 0 0
SMALL
GASTEIGER

@<TRIPOS>ATOM
      1  C         16.2680  -23.1990   -7.8370 C.ar    1  UNL1        0.1710
      2  N         15.3490  -22.4920   -7.2080 N.ar    1  UNL1       -0.2210
      3  C         15.6140  -22.6810   -5.8790 C.ar    1  UNL1        0.1050
      4  C         14.9650  -22.2050   -4.7350 C.2     1  UNL1        0.0370
      5  C         15.4760  -22.6090   -3.5000 C.2     1  UNL1        0.0220
      6  C         16.5820  -23.4540   -3.4640 C.2     1  UNL1        0.1190
      7  N         17.2430  -23.9410   -4.5410 N.2     1  UNL1       -0.2410
      8  C         16.7190  -23.5060   -5.7060 C.ar    1  UNL1        0.1610
      9  N         17.1710  -23.7660   -6.9770 N.ar    1  UNL1       -0.3040
     10  S         16.3080  -23.4180   -9.5520 S.3     1  UNL1       -0.0870
     11  C         16.7050  -21.7330  -10.0930 C.3     1  UNL1        0.1210
     12  C         18.0740  -21.6490  -10.7260 C.2     1  UNL1       -0.0480
     13  C         18.8550  -22.8030  -10.8870 C.2     1  UNL1        0.0090
     14  C         20.1170  -22.7250  -11.4790 C.2     1  UNL1        0.0170
     15  C         20.6070  -21.4960  -11.9310 C.2     1  UNL1        0.0320
     16  C         19.8350  -20.3400  -11.7700 C.2     1  UNL1        0.0170
     17  C         18.5740  -20.4180  -11.1770 C.2     1  UNL1        0.0090
     18  C         21.9550  -21.4490  -12.5540 C.2     1  UNL1        0.2520
     19  O         22.1170  -20.9070  -13.6390 O.2     1  UNL1       -0.2680
     20  N         22.9750  -22.0190  -11.8210 N.am    1  UNL1       -0.3520
     21  H         22.8000  -22.2390  -10.8520 H       1  UNL1        0.1630
     22  C         24.3450  -21.9810  -12.2890 C.3     1  UNL1        0.0840
     23  C         25.3240  -21.5620  -11.1980 C.3     1  UNL1        0.0250
     24  C         26.6640  -22.0120  -11.7590 C.3     1  UNL1        0.0020
     25  C         26.3650  -23.3460  -12.4330 C.3     1  UNL1        0.0020
     26  C         24.8640  -23.3540  -12.7240 C.3     1  UNL1        0.0250
     27  C         18.3490  -24.5680   -7.2820 C.3     1  UNL1        0.1760
     28  C         19.5700  -23.7610   -7.6550 C.2     1  UNL1        0.0200
     29  C         20.5560  -24.3660   -8.4450 C.2     1  UNL1        0.1260
     30  F         20.3920  -25.6260   -8.8660 F       1  UNL1       -0.2050
     31  C         21.7300  -23.7080   -8.8040 C.2     1  UNL1        0.0430
     32  C         21.9550  -22.4120   -8.3590 C.2     1  UNL1        0.0050
     33  C         20.9980  -21.7870   -7.5680 C.2     1  UNL1        0.0240
     34  C         19.8170  -22.4540   -7.2150 C.2     1  UNL1        0.0450
     35 CL         18.7310  -21.6050   -6.1820 Cl      1  UNL1       -0.0840
@<TRIPOS>BOND
     1    19    18    2
     2    26    25    1
     3    26    22    1
     4    18    15    1
     5    18    20   am
     6    25    24    1
     7    22    20    1
     8    22    23    1
     9    15    16    2
    10    15    14    1
    11    20    21    1
    12    16    17    1
    13    24    23    1
    14    14    13    2
    15    17    12    2
    16    13    12    1
    17    12    11    1
    18    11    10    1
    19    10     1    1
    20    30    29    1
    21    31    29    1
    22    31    32    2
    23    29    28    2
    24    32    33    1
    25     1     2   ar
    26     1     9   ar
    27    28    27    1
    28    28    34    1
    29    33    34    2
    30    27     9    1
    31    34    35    1
    32     2     3   ar
    33     9     8   ar
    34     3     8   ar
    35     3     4    1
    36     8     7    1
    37     4     5    2
    38     7     6    2
    39     5     6    1
