@<TRIPOS>MOLECULE
51909_out_ligand_01.pdbqt
 36 40 0 0 0
SMALL
GASTEIGER

@<TRIPOS>ATOM
      1  C         16.7020  -21.6140  -10.0520 C.3     1  UNL1        0.1210
      2  C         18.0530  -21.5980  -10.7260 C.2     1  UNL1       -0.0480
      3  C         18.6170  -20.4060  -11.2030 C.2     1  UNL1        0.0090
      4  C         19.8830  -20.4040  -11.8000 C.2     1  UNL1        0.0170
      5  C         20.6000  -21.6000  -11.9360 C.2     1  UNL1        0.0320
      6  C         20.0400  -22.7910  -11.4630 C.2     1  UNL1        0.0170
      7  C         18.7770  -22.7890  -10.8700 C.2     1  UNL1        0.0090
      8  C         21.9630  -21.6600  -12.5360 C.2     1  UNL1        0.2520
      9  N         22.8670  -22.5140  -11.9340 N.am    1  UNL1       -0.3520
     10  H         22.6340  -22.9210  -11.0380 H       1  UNL1        0.1630
     11  O         22.2420  -20.9470  -13.4950 O.2     1  UNL1       -0.2680
     12  C         24.2660  -22.5660  -12.3460 C.3     1  UNL1        0.0880
     13  C         24.5230  -23.8640  -13.1160 C.3     1  UNL1        0.0250
     14  C         25.9500  -23.9290  -13.6650 C.3     1  UNL1        0.0020
     15  C         26.9590  -23.1270  -12.8430 C.3     1  UNL1        0.0010
     16  C         26.5870  -23.0910  -11.3680 C.3     1  UNL1        0.0060
     17  C         25.2040  -22.4550  -11.1170 C.3     1  UNL1        0.0040
     18  C         25.3480  -21.0000  -10.6610 C.3     1  UNL1        0.0120
     19  S         16.1290  -23.2600   -9.5330 S.3     1  UNL1       -0.0870
     20  C         16.2440  -23.1430   -7.8070 C.ar    1  UNL1        0.1700
     21  N         15.4110  -22.4560   -7.0600 N.ar    1  UNL1       -0.2220
     22  C         15.8260  -22.6520   -5.7710 C.ar    1  UNL1        0.0890
     23  C         15.2860  -22.1510   -4.5870 C.2     1  UNL1        0.0530
     24  C         16.9490  -23.4690   -5.7310 C.ar    1  UNL1        0.0830
     25  C         15.9450  -22.5170   -3.4270 C.2     1  UNL1        0.1180
     26  N         17.0470  -23.3040   -3.3790 N.2     1  UNL1       -0.2710
     27  C         17.5650  -23.7950   -4.5310 C.2     1  UNL1        0.1480
     28  N         17.1940  -23.7900   -7.0540 N.ar    1  UNL1       -0.3180
     29  C         18.3160  -24.5910   -7.5240 C.3     1  UNL1        0.1730
     30  C         19.5520  -23.7630   -7.7530 C.2     1  UNL1       -0.0010
     31  C         19.6690  -22.4560   -7.2510 C.2     1  UNL1        0.0120
     32  C         20.8330  -21.7130   -7.4730 C.2     1  UNL1        0.0010
     33  C         21.8950  -22.2650   -8.1890 C.2     1  UNL1        0.0030
     34  C         21.7970  -23.5670   -8.6770 C.2     1  UNL1        0.0430
     35  C         20.6340  -24.3010   -8.4560 C.2     1  UNL1        0.1240
     36  F         20.5600  -25.5520   -8.9390 F       1  UNL1       -0.2050
@<TRIPOS>BOND
     1    14    13    1
     2    14    15    1
     3    11     8    2
     4    13    12    1
     5    15    16    1
     6     8     5    1
     7     8     9   am
     8    12     9    1
     9    12    17    1
    10     5     4    2
    11     5     6    1
    12     9    10    1
    13     4     3    1
    14     6     7    2
    15    16    17    1
    16     3     2    2
    17    17    18    1
    18     7     2    1
    19     2     1    1
    20     1    19    1
    21    19    20    1
    22    36    35    1
    23    34    35    1
    24    34    33    2
    25    35    30    2
    26    33    32    1
    27    20    21   ar
    28    20    28   ar
    29    30    29    1
    30    30    31    1
    31    29    28    1
    32    32    31    2
    33    21    22   ar
    34    28    24   ar
    35    22    24   ar
    36    22    23    1
    37    24    27    1
    38    23    25    2
    39    27    26    2
    40    25    26    1
