@<TRIPOS>MOLECULE
51912_out_ligand_01.pdbqt
 32 35 0 0 0
SMALL
GASTEIGER

@<TRIPOS>ATOM
      1  C         16.3680  -23.5690   -8.9630 C.3     1  UNL1        0.0330
      2  C         17.0800  -22.2150   -8.9150 C.3     1  UNL1        0.0930
      3  C         16.8910  -21.4590  -10.2500 C.3     1  UNL1        0.0660
      4  C         18.2490  -21.5590  -10.8660 C.2     1  UNL1       -0.0290
      5  C         18.6340  -21.1270  -12.1260 C.2     1  UNL1        0.0100
      6  C         19.9780  -21.2400  -12.4840 C.2     1  UNL1        0.0090
      7  C         20.9270  -21.7920  -11.5980 C.2     1  UNL1       -0.0380
      8  C         20.5110  -22.2060  -10.3190 C.2     1  UNL1        0.0390
      9  C         19.1750  -22.0880   -9.9660 C.2     1  UNL1        0.0440
     10  N         18.5480  -22.3930   -8.7360 N.am    1  UNL1       -0.3090
     11  C         19.1990  -22.9020   -7.6230 C.2     1  UNL1        0.2580
     12  O         20.3430  -23.3520   -7.5980 O.2     1  UNL1       -0.2670
     13  C         22.3890  -21.8780  -11.9690 C.3     1  UNL1        0.1630
     14  N         22.6480  -21.4110  -13.3150 N.am    1  UNL1       -0.3390
     15  C         23.8180  -21.7360  -13.9720 C.2     1  UNL1        0.3210
     16  O         24.6660  -22.4750  -13.4780 O.2     1  UNL1       -0.2470
     17  N         23.8790  -21.1330  -15.2070 N.am    1  UNL1       -0.3060
     18  H         23.0360  -20.6820  -15.5360 H       1  UNL1        0.1710
     19  H         22.1910  -20.5540  -13.5820 H       1  UNL1        0.1640
     20  C         24.9370  -21.1810  -16.1370 C.2     1  UNL1        0.0750
     21  C         25.9890  -20.2680  -16.1830 C.2     1  UNL1        0.0330
     22  C         26.9960  -20.3950  -17.1480 C.2     1  UNL1        0.0020
     23  C         26.9590  -21.4340  -18.0760 C.2     1  UNL1        0.0030
     24  C         25.9120  -22.3480  -18.0430 C.2     1  UNL1        0.0440
     25  C         24.9160  -22.2160  -17.0790 C.2     1  UNL1        0.1430
     26  F         23.9140  -23.1130  -17.0610 F       1  UNL1       -0.2040
     27  C         18.4720  -22.8920   -6.3340 C.2     1  UNL1        0.0320
     28  C         17.8570  -24.0660   -5.8850 C.2     1  UNL1        0.0170
     29  C         17.1940  -24.0700   -4.6590 C.2     1  UNL1        0.0010
     30  C         17.1570  -22.9110   -3.8790 C.2     1  UNL1        0.0000
     31  C         17.7890  -21.7460   -4.3180 C.2     1  UNL1        0.0010
     32  C         18.4540  -21.7370   -5.5440 C.2     1  UNL1        0.0170
@<TRIPOS>BOND
     1    23    24    2
     2    23    22    1
     3    24    25    1
     4    22    21    2
     5    25    26    1
     6    25    20    2
     7    21    20    1
     8    20    17    1
     9    18    17    1
    10    17    15   am
    11    15    16    2
    12    15    14   am
    13    19    14    1
    14    14    13    1
    15     6     5    1
    16     6     7    2
    17     5     4    2
    18    13     7    1
    19     7     8    1
    20     4     3    1
    21     4     9    1
    22     8     9    2
    23     3     2    1
    24     9    10    1
    25     1     2    1
    26     2    10    1
    27    10    11   am
    28    11    12    2
    29    11    27    1
    30    27    28    2
    31    27    32    1
    32    28    29    1
    33    32    31    2
    34    29    30    2
    35    31    30    1
