@<TRIPOS>MOLECULE
51944_out_ligand_01.pdbqt
 35 38 0 0 0
SMALL
GASTEIGER

@<TRIPOS>ATOM
      1  N         24.5990  -23.0940  -10.5690 N.1     1  UNL1       -0.1910
      2  C         24.0190  -22.5670  -11.4270 C.1     1  UNL1        0.1020
      3  C         23.3020  -21.8960  -12.4680 C.2     1  UNL1        0.0770
      4  C         21.9640  -21.7170  -12.4130 C.2     1  UNL1        0.0390
      5  C         24.1060  -21.4090  -13.5640 C.ar    1  UNL1        0.1220
      6  N         23.8330  -21.6890  -14.8480 N.ar    1  UNL1       -0.1680
      7  N         24.8180  -21.0880  -15.5470 N.ar    1  UNL1       -0.2500
      8  C         25.6850  -20.3680  -14.7590 C.ar    1  UNL1        0.1410
      9  C         25.2680  -20.5890  -13.4640 C.ar    1  UNL1        0.1210
     10  C         25.8910  -20.0790  -12.2880 C.1     1  UNL1        0.1060
     11  N         26.3620  -19.6510  -11.3170 N.1     1  UNL1       -0.1910
     12  C         24.8910  -21.2920  -16.9850 C.3     1  UNL1        0.1790
     13  C         24.7530  -22.7620  -17.3650 C.3     1  UNL1        0.1860
     14  O         23.3760  -23.1510  -17.3900 O.3     1  UNL1       -0.3990
     15  H         23.2590  -23.7040  -18.1840 H       1  UNL1        0.2090
     16  N         26.7020  -19.6410  -15.2830 N.pl3   1  UNL1       -0.3830
     17  H         26.9890  -18.7790  -14.8000 H       1  UNL1        0.1570
     18  H         27.5070  -20.1080  -15.6970 H       1  UNL1        0.1570
     19  C         21.0540  -22.1260  -11.3900 C.2     1  UNL1       -0.0060
     20  C         21.3450  -22.9400  -10.3210 C.2     1  UNL1        0.1040
     21  N         20.1920  -23.1200   -9.5930 N.pl3   1  UNL1       -0.3510
     22  C         19.1490  -22.4230  -10.1770 C.2     1  UNL1        0.0450
     23  C         17.8010  -22.2860   -9.8050 C.2     1  UNL1        0.0300
     24  C         19.6660  -21.8000  -11.3200 C.2     1  UNL1        0.0020
     25  C         16.9660  -21.5060  -10.6130 C.2     1  UNL1        0.0020
     26  C         17.4570  -20.8800  -11.7540 C.2     1  UNL1        0.0010
     27  C         18.8010  -21.0170  -12.1160 C.2     1  UNL1        0.0140
     28  C         20.1230  -23.9080   -8.3680 C.3     1  UNL1        0.1700
     29  C         19.5180  -23.1210   -7.2390 C.2     1  UNL1       -0.0010
     30  C         20.0330  -21.8710   -6.8620 C.2     1  UNL1        0.0120
     31  C         19.4460  -21.1490   -5.8190 C.2     1  UNL1        0.0010
     32  C         18.3370  -21.6600   -5.1460 C.2     1  UNL1        0.0030
     33  C         17.8120  -22.8960   -5.5170 C.2     1  UNL1        0.0430
     34  C         18.4020  -23.6120   -6.5550 C.2     1  UNL1        0.1240
     35  F         17.8810  -24.8000   -6.8950 F       1  UNL1       -0.2050
@<TRIPOS>BOND
     1    15    14    1
     2    14    13    1
     3    13    12    1
     4    12     7    1
     5    18    16    1
     6     7     6   ar
     7     7     8   ar
     8    16    17    1
     9    16     8    1
    10     6     5   ar
    11     8     9   ar
    12     5     9   ar
    13     5     3    1
    14     9    10    1
    15     3     4    2
    16     3     2    1
    17     4    19    1
    18    10    11    3
    19    27    26    2
    20    27    24    1
    21    26    25    1
    22     2     1    3
    23    19    24    1
    24    19    20    2
    25    24    22    2
    26    25    23    2
    27    20    21    1
    28    22    23    1
    29    22    21    1
    30    21    28    1
    31    28    29    1
    32    29    30    2
    33    29    34    1
    34    35    34    1
    35    30    31    1
    36    34    33    2
    37    31    32    2
    38    33    32    1
