@<TRIPOS>MOLECULE
51959_out_ligand_01.pdbqt
 37 41 0 0 0
SMALL
GASTEIGER

@<TRIPOS>ATOM
      1  C         16.3040  -21.8420  -10.0960 C.3     1  UNL1        0.1210
      2  C         17.7050  -21.7070  -10.6440 C.2     1  UNL1       -0.0480
      3  C         18.5110  -22.8460  -10.7840 C.2     1  UNL1        0.0090
      4  C         19.8050  -22.7450  -11.3010 C.2     1  UNL1        0.0170
      5  C         20.3160  -21.5010  -11.6910 C.2     1  UNL1        0.0320
      6  C         19.5240  -20.3550  -11.5420 C.2     1  UNL1        0.0170
      7  C         18.2250  -20.4600  -11.0280 C.2     1  UNL1        0.0090
      8  C         21.7030  -21.4560  -12.2340 C.2     1  UNL1        0.2510
      9  O         21.9000  -21.0980  -13.3900 O.2     1  UNL1       -0.2680
     10  N         22.7220  -21.7850  -11.3630 N.am    1  UNL1       -0.3570
     11  H         22.5200  -21.8830  -10.3770 H       1  UNL1        0.1620
     12  C         24.1130  -21.6340  -11.7560 C.3     1  UNL1        0.1270
     13  C         24.7840  -22.9890  -12.0080 C.3     1  UNL1        0.0530
     14  C         25.0070  -23.2860  -13.4740 C.2     1  UNL1       -0.0820
     15  C         25.1790  -24.5480  -13.9130 C.2     1  UNL1       -0.0240
     16  C         25.3080  -24.9220  -15.3630 C.3     1  UNL1        0.0270
     17  C         24.8750  -23.7930  -16.2990 C.3     1  UNL1        0.0040
     18  C         25.4530  -22.4610  -15.8390 C.3     1  UNL1        0.0050
     19  C         24.9680  -22.1140  -14.4260 C.3     1  UNL1        0.0340
     20  S         15.8540  -23.4930   -9.4930 S.3     1  UNL1       -0.0870
     21  C         15.9670  -23.2790   -7.7770 C.ar    1  UNL1        0.1700
     22  N         15.1280  -22.5650   -7.0660 N.ar    1  UNL1       -0.2220
     23  C         15.5580  -22.6760   -5.7710 C.ar    1  UNL1        0.0890
     24  C         15.0130  -22.1270   -4.6110 C.2     1  UNL1        0.0530
     25  C         16.7060  -23.4600   -5.6940 C.ar    1  UNL1        0.0830
     26  C         15.6930  -22.4060   -3.4390 C.2     1  UNL1        0.1180
     27  N         16.8230  -23.1520   -3.3580 N.2     1  UNL1       -0.2710
     28  C         17.3450  -23.6920   -4.4840 C.2     1  UNL1        0.1480
     29  N         16.9340  -23.8650   -6.9960 N.ar    1  UNL1       -0.3190
     30  C         18.0450  -24.6960   -7.4350 C.3     1  UNL1        0.1700
     31  C         19.3040  -23.9010   -7.6860 C.2     1  UNL1       -0.0370
     32  C         19.4160  -22.5850   -7.2070 C.2     1  UNL1        0.0090
     33  C         20.5790  -21.8390   -7.4230 C.2     1  UNL1        0.0040
     34  C         21.6480  -22.4040   -8.1120 C.2     1  UNL1        0.0420
     35  C         21.5450  -23.7060   -8.5840 C.2     1  UNL1        0.1170
     36  F         22.5740  -24.2500   -9.2470 F       1  UNL1       -0.2060
     37  C         20.3900  -24.4560   -8.3790 C.2     1  UNL1        0.0510
@<TRIPOS>BOND
     1    17    18    1
     2    17    16    1
     3    18    19    1
     4    16    15    1
     5    19    14    1
     6    15    14    2
     7    14    13    1
     8     9     8    2
     9     8     5    1
    10     8    10   am
    11    13    12    1
    12    12    10    1
    13     5     6    2
    14     5     4    1
    15     6     7    1
    16    10    11    1
    17     4     3    2
    18     7     2    2
    19     3     2    1
    20     2     1    1
    21     1    20    1
    22    20    21    1
    23    36    35    1
    24    35    37    1
    25    35    34    2
    26    37    31    2
    27    34    33    1
    28    21    22   ar
    29    21    29   ar
    30    31    30    1
    31    31    32    1
    32    30    29    1
    33    33    32    2
    34    22    23   ar
    35    29    25   ar
    36    23    25   ar
    37    23    24    1
    38    25    28    1
    39    24    26    2
    40    28    27    2
    41    26    27    1
