@<TRIPOS>MOLECULE
51969_out_ligand_01.pdbqt
 30 33 0 0 0
SMALL
GASTEIGER

@<TRIPOS>ATOM
      1  C         19.1110  -23.6800   -8.3670 C.2     1  UNL1        0.2580
      2  O         20.0560  -24.4370   -8.1670 O.2     1  UNL1       -0.2670
      3  N         18.9900  -22.7670   -9.4030 N.am    1  UNL1       -0.3130
      4  C         17.8090  -21.9330   -9.7030 C.3     1  UNL1        0.1370
      5  C         18.0410  -21.2920  -11.0770 C.3     1  UNL1        0.0610
      6  C         19.4870  -21.5900  -11.3180 C.2     1  UNL1       -0.0300
      7  C         20.2810  -21.1310  -12.3580 C.2     1  UNL1        0.0100
      8  C         21.6010  -21.5770  -12.4260 C.2     1  UNL1        0.0090
      9  C         22.1160  -22.4870  -11.4750 C.2     1  UNL1       -0.0380
     10  C         21.2920  -22.9290  -10.4260 C.2     1  UNL1        0.0390
     11  C         19.9840  -22.4750  -10.3600 C.2     1  UNL1        0.0440
     12  C         23.5580  -22.9250  -11.5380 C.3     1  UNL1        0.1610
     13  N         24.2080  -22.4500  -12.7350 N.am    1  UNL1       -0.3530
     14  C         24.9450  -23.2790  -13.5480 C.2     1  UNL1        0.2550
     15  O         25.1460  -24.4650  -13.2950 O.2     1  UNL1       -0.2680
     16  H         24.0000  -21.5080  -13.0370 H       1  UNL1        0.1630
     17  C         25.5330  -22.6830  -14.7840 C.2     1  UNL1        0.0700
     18  C         26.3540  -21.5500  -14.6520 C.2     1  UNL1        0.0200
     19  C         26.9290  -20.9460  -15.7810 C.2     1  UNL1        0.0010
     20  C         26.6900  -21.4700  -17.0500 C.2     1  UNL1        0.0030
     21  C         25.8760  -22.5970  -17.1930 C.2     1  UNL1        0.0430
     22  C         25.3040  -23.1950  -16.0640 C.2     1  UNL1        0.1320
     23  F         24.5320  -24.2790  -16.2540 F       1  UNL1       -0.2050
     24  C         17.9720  -23.7760   -7.4260 C.2     1  UNL1        0.0320
     25  C         16.7500  -24.3070   -7.8440 C.2     1  UNL1        0.0170
     26  C         15.6870  -24.3830   -6.9420 C.2     1  UNL1        0.0070
     27  C         15.8350  -23.9250   -5.6270 C.2     1  UNL1       -0.0620
     28  C         14.6750  -23.9710   -4.6800 C.3     1  UNL1        0.0480
     29  C         17.0590  -23.3610   -5.2310 C.2     1  UNL1        0.0070
     30  C         18.1250  -23.2840   -6.1280 C.2     1  UNL1        0.0170
@<TRIPOS>BOND
     1    21    20    2
     2    21    22    1
     3    20    19    1
     4    23    22    1
     5    22    17    2
     6    19    18    2
     7    17    18    1
     8    17    14    1
     9    14    15    2
    10    14    13   am
    11    16    13    1
    12    13    12    1
    13     8     7    1
    14     8     9    2
    15     7     6    2
    16    12     9    1
    17     9    10    1
    18     6     5    1
    19     6    11    1
    20     5     4    1
    21    10    11    2
    22    11     3    1
    23     4     3    1
    24     3     1   am
    25     1     2    2
    26     1    24    1
    27    25    24    2
    28    25    26    1
    29    24    30    1
    30    26    27    2
    31    30    29    2
    32    27    29    1
    33    27    28    1
