@<TRIPOS>MOLECULE
51970_out_ligand_01.pdbqt
 32 36 0 0 0
SMALL
GASTEIGER

@<TRIPOS>ATOM
      1  C         22.9890  -22.4940  -12.2360 C.2     1  UNL1        0.0770
      2  C         22.0030  -21.6590  -12.8050 C.2     1  UNL1        0.0380
      3  C         20.7820  -21.4520  -12.1540 C.2     1  UNL1        0.0210
      4  C         20.5990  -22.0820  -10.9350 C.2     1  UNL1        0.0480
      5  C         21.5710  -22.8790  -10.3750 C.2     1  UNL1        0.0510
      6  C         22.7860  -23.1030  -10.9950 C.2     1  UNL1        0.0550
      7  C         21.0580  -23.3710   -9.1010 C.2     1  UNL1        0.2660
      8  O         21.7360  -24.1060   -8.4050 O.2     1  UNL1       -0.2670
      9  N         19.7870  -22.8510   -8.9360 N.am    1  UNL1       -0.2440
     10  C         19.4610  -22.0620  -10.0240 C.2     1  UNL1        0.2660
     11  O         18.4610  -21.4220  -10.2970 O.2     1  UNL1       -0.2670
     12  C         18.9340  -23.0910   -7.8090 C.2     1  UNL1        0.0470
     13  C         18.0270  -24.1880   -7.7910 C.2     1  UNL1        0.0310
     14  C         17.1770  -24.4530   -6.7050 C.2     1  UNL1        0.0200
     15  C         17.2460  -23.6010   -5.6290 C.2     1  UNL1        0.0480
     16  C         18.1150  -22.5290   -5.6180 C.2     1  UNL1        0.0500
     17  C         16.5140  -23.5940   -4.3640 C.2     1  UNL1        0.2590
     18  C         18.9620  -22.2500   -6.6790 C.2     1  UNL1        0.0480
     19  C         17.9350  -21.8370   -4.3400 C.2     1  UNL1        0.2590
     20  O         18.5360  -20.8450   -3.9830 O.2     1  UNL1       -0.2670
     21  N         16.9780  -22.5260   -3.6610 N.am    1  UNL1       -0.2890
     22  H         16.6500  -22.2720   -2.7430 H       1  UNL1        0.1720
     23  O         15.6650  -24.3970   -4.0360 O.2     1  UNL1       -0.2670
     24  O         24.2200  -22.6950  -12.8220 O.2     1  UNL1       -0.3110
     25  C         24.8840  -21.5820  -13.2860 C.2     1  UNL1        0.0760
     26  C         24.8950  -21.2300  -14.6330 C.2     1  UNL1        0.0380
     27  C         25.6130  -20.1080  -15.0460 C.2     1  UNL1        0.0100
     28  C         26.3370  -19.3370  -14.1210 C.2     1  UNL1       -0.0560
     29  C         27.1040  -18.1360  -14.6070 C.3     1  UNL1        0.0490
     30  C         26.3470  -19.7130  -12.7630 C.2     1  UNL1       -0.0530
     31  C         25.6210  -20.8440  -12.3580 C.2     1  UNL1        0.0440
     32  C         27.1210  -18.9320  -11.7360 C.3     1  UNL1        0.0490
@<TRIPOS>BOND
     1    27    26    1
     2    27    28    2
     3    26    25    2
     4    29    28    1
     5    28    30    1
     6    25    24    1
     7    25    31    1
     8    24     1    1
     9     2     1    2
    10     2     3    1
    11    30    31    2
    12    30    32    1
    13     1     6    1
    14     3     4    2
    15     6     5    2
    16     4     5    1
    17     4    10    1
    18     5     7    1
    19    11    10    2
    20    10     9   am
    21     7     9   am
    22     7     8    2
    23     9    12    1
    24    12    13    2
    25    12    18    1
    26    13    14    1
    27    14    15    2
    28    18    16    2
    29    15    16    1
    30    15    17    1
    31    16    19    1
    32    17    23    2
    33    17    21   am
    34    19    20    2
    35    19    21   am
    36    21    22    1
