@<TRIPOS>MOLECULE
51982_out_ligand_01.pdbqt
 31 34 0 0 0
SMALL
GASTEIGER

@<TRIPOS>ATOM
      1  C         21.8140  -23.2500   -8.6570 C.ar    1  UNL1        0.1960
      2  N         21.6110  -24.4510   -9.1470 N.ar    1  UNL1       -0.1220
      3  N         20.4020  -24.9010   -8.6570 N.ar    1  UNL1       -0.1230
      4  C         19.9040  -23.9450   -7.8970 C.ar    1  UNL1        0.2270
      5  C         18.6570  -23.9530   -7.1590 C.2     1  UNL1        0.3000
      6  O         17.9310  -24.9460   -7.1330 O.2     1  UNL1       -0.2630
      7  N         18.3770  -22.7290   -6.4450 N.am    1  UNL1       -0.2850
      8  C         19.3020  -21.6680   -6.4750 C.2     1  UNL1        0.1180
      9  C         20.4530  -21.7290   -7.1590 C.2     1  UNL1        0.1190
     10  N         20.7560  -22.8730   -7.8720 N.ar    1  UNL1       -0.2770
     11  S         23.2310  -22.2990   -8.9360 S.3     1  UNL1       -0.0810
     12  C         23.6480  -22.7530  -10.6450 C.3     1  UNL1        0.1850
     13  C         22.7600  -22.0820  -11.6760 C.2     1  UNL1        0.2270
     14  N         21.6340  -21.4760  -11.1690 N.am    1  UNL1       -0.3560
     15  H         21.3030  -21.8130  -10.2720 H       1  UNL1        0.1620
     16  O         23.0560  -22.0840  -12.8680 O.2     1  UNL1       -0.2730
     17  C         20.6060  -21.0080  -12.0710 C.3     1  UNL1        0.1610
     18  C         19.2430  -21.3790  -11.5490 C.2     1  UNL1       -0.0410
     19  C         18.2030  -20.4410  -11.5210 C.2     1  UNL1        0.0090
     20  C         16.9560  -20.7860  -10.9960 C.2     1  UNL1        0.0070
     21  C         16.7260  -22.0690  -10.4900 C.2     1  UNL1       -0.0620
     22  C         15.4010  -22.4290   -9.8880 C.3     1  UNL1        0.0480
     23  C         17.7720  -22.9990  -10.4970 C.2     1  UNL1        0.0070
     24  C         19.0200  -22.6560  -11.0210 C.2     1  UNL1        0.0090
     25  C         17.1460  -22.6040   -5.6880 C.2     1  UNL1        0.0450
     26  C         17.1340  -22.8210   -4.2960 C.2     1  UNL1        0.0300
     27  C         15.9610  -22.6850   -3.5420 C.2     1  UNL1        0.0050
     28  C         14.7750  -22.3240   -4.1680 C.2     1  UNL1        0.0420
     29  C         14.7730  -22.1060   -5.5370 C.2     1  UNL1        0.1180
     30  F         13.6330  -21.7440   -6.1430 F       1  UNL1       -0.2060
     31  C         15.9350  -22.2420   -6.2950 C.2     1  UNL1        0.0720
@<TRIPOS>BOND
     1    16    13    2
     2    17    18    1
     3    17    14    1
     4    13    14   am
     5    13    12    1
     6    18    19    2
     7    18    24    1
     8    19    20    1
     9    14    15    1
    10    24    23    2
    11    20    21    2
    12    12    11    1
    13    23    21    1
    14    21    22    1
    15     2     3   ar
    16     2     1   ar
    17    11     1    1
    18     3     4   ar
    19     1    10   ar
    20     4    10   ar
    21     4     5    1
    22    10     9    1
    23     9     8    2
    24     5     6    2
    25     5     7   am
    26     8     7    1
    27     7    25    1
    28    31    25    2
    29    31    29    1
    30    30    29    1
    31    25    26    1
    32    29    28    2
    33    26    27    2
    34    28    27    1
