@<TRIPOS>MOLECULE
51992_out_ligand_01.pdbqt
 34 37 0 0 0
SMALL
GASTEIGER

@<TRIPOS>ATOM
      1  C         22.0800  -22.3210  -11.6330 C.2     1  UNL1       -0.0380
      2  C         21.4630  -21.5190  -12.6160 C.2     1  UNL1        0.0090
      3  C         20.1320  -21.1200  -12.4900 C.2     1  UNL1        0.0100
      4  C         19.4300  -21.5210  -11.3660 C.2     1  UNL1       -0.0300
      5  C         20.0260  -22.3130  -10.3820 C.2     1  UNL1        0.0440
      6  C         21.3440  -22.7240  -10.5040 C.2     1  UNL1        0.0390
      7  N         19.1120  -22.5700   -9.3420 N.am    1  UNL1       -0.3130
      8  C         19.3520  -23.3850   -8.2460 C.2     1  UNL1        0.2580
      9  O         20.3530  -24.0700   -8.0530 O.2     1  UNL1       -0.2670
     10  C         17.8570  -21.8550   -9.6450 C.2     1  UNL1        0.1370
     11  C         18.0000  -21.2380  -11.0440 C.2     1  UNL1        0.0610
     12  C         23.5170  -22.7560  -11.7970 C.3     1  UNL1        0.1630
     13  N         24.3640  -21.6410  -12.1760 N.am    1  UNL1       -0.3390
     14  C         24.5860  -21.3510  -13.5060 C.2     1  UNL1        0.3200
     15  N         25.4790  -20.3100  -13.6400 N.am    1  UNL1       -0.3090
     16  O         24.0250  -21.9530  -14.4110 O.2     1  UNL1       -0.2470
     17  H         25.6680  -19.8010  -12.7910 H       1  UNL1        0.1700
     18  H         25.1190  -21.4410  -11.5390 H       1  UNL1        0.1640
     19  C         26.0080  -19.7820  -14.8370 C.2     1  UNL1        0.0370
     20  C         26.3660  -20.5680  -15.9350 C.2     1  UNL1        0.0290
     21  C         26.8910  -19.9780  -17.0880 C.2     1  UNL1        0.0030
     22  C         27.0650  -18.5980  -17.1510 C.2     1  UNL1        0.0150
     23  C         26.7200  -17.7940  -16.0580 C.2     1  UNL1        0.0110
     24  C         26.1950  -18.3920  -14.9020 C.2     1  UNL1        0.0440
     25  C         26.9230  -16.3190  -16.1740 C.2     1  UNL1        0.1550
     26  C         26.8870  -15.6820  -17.5410 C.3     1  UNL1        0.0960
     27  O         27.1210  -15.6460  -15.1630 O.2     1  UNL1       -0.2930
     28  C         18.2840  -23.4680   -7.2250 C.2     1  UNL1        0.0320
     29  C         17.2060  -24.3420   -7.3910 C.2     1  UNL1        0.0170
     30  C         16.2110  -24.4040   -6.4130 C.2     1  UNL1        0.0070
     31  C         16.2840  -23.5870   -5.2730 C.2     1  UNL1       -0.0620
     32  C         15.1930  -23.6380   -4.2460 C.3     1  UNL1        0.0480
     33  C         17.3530  -22.6910   -5.1350 C.2     1  UNL1        0.0070
     34  C         18.3540  -22.6290   -6.1090 C.2     1  UNL1        0.0170
@<TRIPOS>BOND
     1    26    25    1
     2    22    21    2
     3    22    23    1
     4    21    20    1
     5    25    23    1
     6    25    27    2
     7    23    24    2
     8    20    19    2
     9    24    19    1
    10    19    15    1
    11    16    14    2
    12    15    14   am
    13    15    17    1
    14    14    13   am
    15     2     3    1
    16     2     1    2
    17     3     4    2
    18    13    12    1
    19    13    18    1
    20    12     1    1
    21     1     6    1
    22     4    11    1
    23     4     5    1
    24    11    10    2
    25     6     5    2
    26     5     7    1
    27    10     7    1
    28     7     8   am
    29     8     9    2
    30     8    28    1
    31    29    28    2
    32    29    30    1
    33    28    34    1
    34    30    31    2
    35    34    33    2
    36    31    33    1
    37    31    32    1
