@<TRIPOS>MOLECULE
52007_out_ligand_01.pdbqt
 30 32 0 0 0
SMALL
GASTEIGER

@<TRIPOS>ATOM
      1  C         19.5080  -22.1780  -10.3980 C.2     1  UNL1        0.0720
      2  C         20.8290  -22.5000  -10.0530 C.2     1  UNL1        0.0450
      3  C         21.8890  -22.0900  -10.8710 C.2     1  UNL1        0.0800
      4  C         21.6530  -21.3530  -12.0340 C.2     1  UNL1        0.0280
      5  C         20.3420  -21.0260  -12.3760 C.2     1  UNL1        0.0450
      6  C         19.2840  -21.4380  -11.5630 C.2     1  UNL1        0.1320
      7  F         18.0420  -21.1010  -11.9410 F       1  UNL1       -0.2050
      8  C         18.4050  -22.6570   -9.5070 C.2     1  UNL1        0.2590
      9  N         18.5300  -22.3720   -8.1610 N.am    1  UNL1       -0.3230
     10  H         19.3520  -21.8530   -7.8720 H       1  UNL1        0.1690
     11  O         17.4750  -23.2600  -10.0330 O.2     1  UNL1       -0.2670
     12  C         17.6410  -22.7110   -7.1170 C.2     1  UNL1        0.0350
     13  C         18.0830  -23.6610   -6.1930 C.2     1  UNL1        0.0300
     14  C         17.2670  -24.0560   -5.1290 C.2     1  UNL1        0.0090
     15  C         15.9880  -23.5080   -4.9660 C.2     1  UNL1       -0.0560
     16  C         15.1330  -23.9560   -3.8140 C.3     1  UNL1        0.0490
     17  C         15.5330  -22.5490   -5.8910 C.2     1  UNL1       -0.0540
     18  C         16.3680  -22.1620   -6.9580 C.2     1  UNL1        0.0370
     19  C         14.1680  -21.9270   -5.7690 C.3     1  UNL1        0.0490
     20  S         23.5490  -22.5290  -10.4170 S.O2    1  UNL1        0.2590
     21  O         24.3400  -21.3200  -10.3540 O.2     1  UNL1       -0.2010
     22  O         23.4570  -23.4480   -9.3060 O.2     1  UNL1       -0.2010
     23  N         24.0520  -23.4130  -11.7410 N.3     1  UNL1       -0.3110
     24  H         23.8150  -24.4040  -11.7210 H       1  UNL1        0.1720
     25  C         25.1300  -22.9290  -12.6040 C.3     1  UNL1        0.0930
     26  C         26.0220  -24.1040  -13.0130 C.3     1  UNL1        0.0260
     27  C         27.0880  -23.6730  -14.0180 C.3     1  UNL1        0.0020
     28  C         26.4700  -22.9940  -15.2370 C.3     1  UNL1        0.0000
     29  C         25.5700  -21.8280  -14.8370 C.3     1  UNL1        0.0020
     30  C         24.5050  -22.2600  -13.8330 C.3     1  UNL1        0.0260
@<TRIPOS>BOND
     1    28    29    1
     2    28    27    1
     3    29    30    1
     4    27    26    1
     5    30    25    1
     6    26    25    1
     7    25    23    1
     8     5     4    2
     9     5     6    1
    10     4     3    1
    11     7     6    1
    12    23    24    1
    13    23    20    1
    14     6     1    2
    15     3    20    1
    16     3     2    2
    17    20    21    2
    18    20    22    2
    19     1     2    1
    20     1     8    1
    21    11     8    2
    22     8     9   am
    23     9    10    1
    24     9    12    1
    25    12    18    2
    26    12    13    1
    27    18    17    1
    28    13    14    2
    29    17    19    1
    30    17    15    2
    31    14    15    1
    32    15    16    1
