@<TRIPOS>MOLECULE
52033_out_ligand_01.pdbqt
 34 37 0 0 0
SMALL
GASTEIGER

@<TRIPOS>ATOM
      1  C         22.2660  -22.6420  -10.5500 C.ar    1  UNL1        0.1000
      2  N         22.5660  -23.5960   -9.6410 N.ar    1  UNL1       -0.1470
      3  N         21.5700  -24.2180   -8.9410 N.ar    1  UNL1       -0.1310
      4  C         20.2740  -23.8970   -9.1360 C.ar    1  UNL1        0.1610
      5  C         19.9100  -22.9080  -10.0790 C.ar    1  UNL1        0.0240
      6  C         18.5640  -22.5480  -10.3500 C.2     1  UNL1        0.0160
      7  C         18.2370  -21.5500  -11.2670 C.2     1  UNL1        0.0010
      8  C         19.2450  -20.8830  -11.9450 C.2     1  UNL1        0.0010
      9  C         20.5770  -21.2270  -11.7140 C.2     1  UNL1        0.0150
     10  C         20.9370  -22.2490  -10.7970 C.ar    1  UNL1        0.0090
     11  N         19.2590  -24.5420   -8.3760 N.pl3   1  UNL1       -0.3390
     12  H         18.7040  -25.1190   -9.0030 H       1  UNL1        0.1670
     13  C         18.4680  -24.0040   -7.3370 C.2     1  UNL1        0.0340
     14  C         17.1690  -24.4350   -7.0710 C.2     1  UNL1        0.0320
     15  C         16.3920  -23.8320   -6.0720 C.2     1  UNL1        0.0400
     16  C         16.8870  -22.7560   -5.3250 C.2     1  UNL1        0.0840
     17  C         18.1790  -22.2760   -5.6140 C.2     1  UNL1        0.0670
     18  C         18.9440  -22.9000   -6.6200 C.2     1  UNL1        0.0490
     19  O         16.1690  -22.1330   -4.3350 O.2     1  UNL1       -0.3550
     20  C         14.7480  -22.1710   -4.4220 C.3     1  UNL1        0.2100
     21  C         18.8380  -21.1200   -4.9230 C.2     1  UNL1        0.2520
     22  N         18.5730  -20.9120   -3.6030 N.am    1  UNL1       -0.3660
     23  H         19.0250  -20.1420   -3.1320 H       1  UNL1        0.1590
     24  H         17.9610  -21.5320   -3.0850 H       1  UNL1        0.1590
     25  O         19.6000  -20.3640   -5.5190 O.2     1  UNL1       -0.2680
     26  C         23.4420  -22.0830  -11.2320 C.2     1  UNL1       -0.0050
     27  C         23.5600  -22.1160  -12.6290 C.2     1  UNL1        0.0160
     28  C         24.6850  -21.5800  -13.2640 C.2     1  UNL1        0.0370
     29  C         25.7220  -21.0120  -12.5210 C.2     1  UNL1        0.0680
     30  C         25.6210  -20.9810  -11.1320 C.2     1  UNL1        0.0370
     31  C         24.4940  -21.5170  -10.4960 C.2     1  UNL1        0.0160
     32  O         26.7530  -20.5230  -13.2720 O.2     1  UNL1       -0.3520
     33  C         26.8590  -19.1120  -13.4600 C.3     1  UNL1        0.1710
     34  C         26.4670  -18.7270  -14.8750 C.3     1  UNL1        0.0340
@<TRIPOS>BOND
     1    34    33    1
     2    33    32    1
     3    32    29    1
     4    28    27    1
     5    28    29    2
     6    27    26    2
     7    29    30    1
     8     8     9    2
     9     8     7    1
    10     9    10    1
    11     7     6    2
    12    26     1    1
    13    26    31    1
    14    30    31    2
    15    10     1   ar
    16    10     5   ar
    17     1     2   ar
    18     6     5    1
    19     5     4   ar
    20     2     3   ar
    21     4     3   ar
    22     4    11    1
    23    12    11    1
    24    11    13    1
    25    13    14    2
    26    13    18    1
    27    14    15    1
    28    18    17    2
    29    15    16    2
    30    17    16    1
    31    17    21    1
    32    25    21    2
    33    16    19    1
    34    21    22   am
    35    20    19    1
    36    22    23    1
    37    22    24    1
