@<TRIPOS>MOLECULE
52048_out_ligand_01.pdbqt
 39 43 0 0 0
SMALL
GASTEIGER

@<TRIPOS>ATOM
      1  C         20.7390  -22.3420   -8.7120 C.3     1  UNL1        0.0620
      2  C         19.8620  -22.8720   -7.5940 C.2     1  UNL1       -0.0210
      3  C         19.4120  -22.2090   -6.3960 C.2     1  UNL1       -0.0010
      4  C         19.6570  -20.9410   -5.8290 C.2     1  UNL1        0.0140
      5  C         18.5220  -23.0650   -5.7440 C.2     1  UNL1        0.0490
      6  C         19.0040  -20.5770   -4.6460 C.2     1  UNL1        0.0020
      7  C         18.1070  -21.4500   -4.0320 C.2     1  UNL1        0.0090
      8  C         17.8370  -22.7270   -4.5560 C.2     1  UNL1       -0.0310
      9  N         18.4840  -24.2310   -6.4770 N.pl3   1  UNL1       -0.3640
     10  C         19.2610  -24.1180   -7.5960 C.2     1  UNL1        0.0970
     11  H         17.9310  -25.0410   -6.2330 H       1  UNL1        0.1650
     12  C         16.8550  -23.6400   -3.8650 C.3     1  UNL1        0.0360
     13  C         15.5760  -22.9090   -3.4740 C.3     1  UNL1        0.0100
     14  C         21.8640  -23.3260   -9.0660 C.3     1  UNL1        0.1160
     15  C         23.1250  -22.6140   -9.5220 C.2     1  UNL1        0.2180
     16  O         23.3480  -21.4400   -9.2490 O.2     1  UNL1       -0.2740
     17  N         23.9750  -23.4140  -10.2590 N.am    1  UNL1       -0.3610
     18  H         23.8660  -24.4160  -10.1360 H       1  UNL1        0.1620
     19  C         25.2940  -22.9440  -10.6320 C.3     1  UNL1        0.1280
     20  C         25.6660  -23.3730  -12.0500 C.3     1  UNL1        0.0790
     21  C         25.0480  -22.4510  -13.0690 C.2     1  UNL1        0.0350
     22  C         25.8350  -21.8590  -14.0570 C.2     1  UNL1        0.0270
     23  C         25.2500  -20.9320  -14.9140 C.2     1  UNL1        0.0030
     24  C         23.9000  -20.6270  -14.7650 C.2     1  UNL1        0.0190
     25  C         23.1820  -21.2780  -13.7760 C.2     1  UNL1        0.1170
     26  N         23.7280  -22.1720  -12.9230 N.2     1  UNL1       -0.2660
     27  C         19.8080  -21.9590   -9.8680 C.2     1  UNL1       -0.0460
     28  C         20.3050  -21.5000  -11.1060 C.2     1  UNL1        0.0080
     29  C         19.4460  -21.1650  -12.1570 C.2     1  UNL1        0.0030
     30  C         18.0700  -21.2990  -12.0030 C.2     1  UNL1        0.0370
     31  C         17.5580  -21.7510  -10.7880 C.2     1  UNL1        0.0760
     32  C         18.4080  -22.0190   -9.7150 C.2     1  UNL1        0.0450
     33  O         16.2010  -21.9260  -10.6150 O.2     1  UNL1       -0.3110
     34  C         15.8850  -22.6160   -9.4630 C.2     1  UNL1        0.0760
     35  C         15.7460  -24.0050   -9.5320 C.2     1  UNL1        0.0370
     36  C         15.4690  -24.7310   -8.3730 C.2     1  UNL1        0.0030
     37  C         15.3030  -24.0660   -7.1560 C.2     1  UNL1        0.0000
     38  C         15.4000  -22.6700   -7.1010 C.2     1  UNL1        0.0030
     39  C         15.6870  -21.9390   -8.2570 C.2     1  UNL1        0.0370
@<TRIPOS>BOND
     1    23    24    2
     2    23    22    1
     3    24    25    1
     4    22    21    2
     5    25    26    2
     6    21    26    1
     7    21    20    1
     8    29    30    2
     9    29    28    1
    10    20    19    1
    11    30    31    1
    12    28    27    2
    13    31    33    1
    14    31    32    2
    15    19    17    1
    16    33    34    1
    17    17    18    1
    18    17    15   am
    19    27    32    1
    20    27     1    1
    21    35    34    2
    22    35    36    1
    23    15    16    2
    24    15    14    1
    25    34    39    1
    26    14     1    1
    27     1     2    1
    28    36    37    2
    29    39    38    2
    30    10     2    2
    31    10     9    1
    32     2     3    1
    33    37    38    1
    34     9    11    1
    35     9     5    1
    36     3     4    2
    37     3     5    1
    38     4     6    1
    39     5     8    2
    40     6     7    2
    41     8     7    1
    42     8    12    1
    43    12    13    1
