@<TRIPOS>MOLECULE
52041_out_ligand_01.pdbqt
 31 35 0 0 0
SMALL
GASTEIGER

@<TRIPOS>ATOM
      1  N         20.4960  -22.7050   -9.3620 N.am    1  UNL1       -0.2440
      2  C         20.1260  -21.9720  -10.4740 C.2     1  UNL1        0.2660
      3  O         19.0990  -21.3850  -10.7620 O.2     1  UNL1       -0.2670
      4  C         21.2560  -21.9810  -11.3970 C.2     1  UNL1        0.0480
      5  C         21.4030  -21.3880  -12.6380 C.2     1  UNL1        0.0210
      6  C         22.6260  -21.5700  -13.2940 C.2     1  UNL1        0.0380
      7  C         23.6490  -22.3400  -12.7060 C.2     1  UNL1        0.0770
      8  C         23.4830  -22.9130  -11.4400 C.2     1  UNL1        0.0550
      9  C         22.2650  -22.7160  -10.8180 C.2     1  UNL1        0.0510
     10  C         21.7860  -23.1790   -9.5200 C.2     1  UNL1        0.2660
     11  O         22.5000  -23.8540   -8.8020 O.2     1  UNL1       -0.2670
     12  C         19.6680  -22.9420   -8.2140 C.2     1  UNL1        0.0470
     13  C         19.5730  -21.9960   -7.1740 C.2     1  UNL1        0.0480
     14  C         18.7570  -22.2770   -6.0880 C.2     1  UNL1        0.0500
     15  C         18.4750  -21.4910   -4.8870 C.2     1  UNL1        0.2590
     16  C         18.0370  -23.4500   -5.9910 C.2     1  UNL1        0.0480
     17  N         17.6060  -22.2290   -4.1410 N.am    1  UNL1       -0.2890
     18  O         18.9370  -20.3980   -4.6310 O.2     1  UNL1       -0.2670
     19  C         17.2960  -23.4140   -4.7320 C.2     1  UNL1        0.2590
     20  H         17.2380  -21.9300   -3.2520 H       1  UNL1        0.1720
     21  O         16.5570  -24.2860   -4.3240 O.2     1  UNL1       -0.2670
     22  C         18.0930  -24.4070   -6.9760 C.2     1  UNL1        0.0200
     23  C         18.9130  -24.1410   -8.0850 C.2     1  UNL1        0.0310
     24  O         24.8280  -22.4290  -13.4140 O.2     1  UNL1       -0.3110
     25  C         25.3630  -21.2560  -13.8950 C.2     1  UNL1        0.0760
     26  C         25.9420  -20.3880  -12.9670 C.2     1  UNL1        0.0380
     27  C         26.4730  -19.1700  -13.3940 C.2     1  UNL1        0.0220
     28  C         26.4050  -18.8220  -14.7430 C.2     1  UNL1        0.0110
     29 BR         27.1210  -17.1700  -15.3210 Br      1  UNL1       -0.0510
     30  C         25.8050  -19.6760  -15.6690 C.2     1  UNL1        0.0220
     31  C         25.2750  -20.8950  -15.2430 C.2     1  UNL1        0.0380
@<TRIPOS>BOND
     1    30    31    1
     2    30    28    2
     3    29    28    1
     4    31    25    2
     5    28    27    1
     6    25    24    1
     7    25    26    1
     8    24     7    1
     9    27    26    2
    10     6     7    2
    11     6     5    1
    12     7     8    1
    13     5     4    2
    14     8     9    2
    15     4     9    1
    16     4     2    1
    17     9    10    1
    18     3     2    2
    19     2     1   am
    20    10     1   am
    21    10    11    2
    22     1    12    1
    23    12    23    2
    24    12    13    1
    25    23    22    1
    26    13    14    2
    27    22    16    2
    28    14    16    1
    29    14    15    1
    30    16    19    1
    31    15    18    2
    32    15    17   am
    33    19    21    2
    34    19    17   am
    35    17    20    1
