@<TRIPOS>MOLECULE
52047_out_ligand_01.pdbqt
 35 38 0 0 0
SMALL
GASTEIGER

@<TRIPOS>ATOM
      1  C         17.3450  -21.7460  -10.7330 C.2     1  UNL1        0.0700
      2  C         17.8260  -20.9830  -11.7930 C.2     1  UNL1        0.0380
      3  C         19.1960  -20.9550  -12.0630 C.2     1  UNL1        0.0160
      4  C         20.0920  -21.6880  -11.2740 C.2     1  UNL1       -0.0080
      5  C         21.5180  -21.6440  -11.5700 C.2     1  UNL1        0.0270
      6  C         22.4030  -22.3450  -10.8430 C.2     1  UNL1        0.0240
      7  C         21.9240  -23.2130   -9.7250 C.2     1  UNL1        0.2560
      8  O         22.7320  -23.9210   -9.1260 O.2     1  UNL1       -0.2670
      9  N         20.5650  -23.2040   -9.4270 N.am    1  UNL1       -0.3040
     10  C         19.6230  -22.4580  -10.2010 C.2     1  UNL1        0.0510
     11  C         18.2430  -22.4780   -9.9450 C.2     1  UNL1        0.0670
     12  C         20.1150  -24.0040   -8.2790 C.3     1  UNL1        0.2350
     13  C         19.3080  -23.2400   -7.2170 C.2     1  UNL1        0.2400
     14  O         19.7390  -22.1780   -6.7710 O.2     1  UNL1       -0.2710
     15  N         18.1600  -23.8900   -6.8050 N.am    1  UNL1       -0.3260
     16  H         17.9770  -24.7780   -7.2540 H       1  UNL1        0.1690
     17  C         17.2140  -23.4710   -5.8500 C.2     1  UNL1        0.0350
     18  C         17.4870  -23.7710   -4.5100 C.2     1  UNL1        0.0290
     19  C         16.5960  -23.4000   -3.5010 C.2     1  UNL1        0.0030
     20  C         15.4240  -22.7190   -3.8220 C.2     1  UNL1        0.0070
     21  C         15.1410  -22.3980   -5.1530 C.2     1  UNL1       -0.0600
     22  C         13.8640  -21.6920   -5.5110 C.3     1  UNL1        0.0480
     23  C         16.0360  -22.7890   -6.1620 C.2     1  UNL1        0.0360
     24  C         23.8980  -22.3780  -11.0520 C.3     1  UNL1        0.1360
     25  N         24.2900  -23.5420  -11.8490 N.pl3   1  UNL1       -0.2890
     26  H         23.5800  -24.2720  -11.8180 H       1  UNL1        0.1280
     27  C         24.7110  -23.3550  -13.1750 C.2     1  UNL1        0.0080
     28  C         24.3980  -22.1380  -13.8010 C.2     1  UNL1        0.0240
     29  C         24.7250  -21.8980  -15.1400 C.2     1  UNL1        0.0080
     30  C         25.3410  -22.8900  -15.9040 C.2     1  UNL1       -0.0620
     31  C         25.7240  -22.6310  -17.3300 C.3     1  UNL1        0.0480
     32  C         25.6350  -24.1150  -15.3000 C.2     1  UNL1        0.0080
     33  C         25.3050  -24.3480  -13.9580 C.2     1  UNL1        0.0240
     34  O         16.0350  -21.8640  -10.3590 O.2     1  UNL1       -0.3560
     35  C         15.6690  -23.0380   -9.6450 C.3     1  UNL1        0.2100
@<TRIPOS>BOND
     1    31    30    1
     2    30    32    2
     3    30    29    1
     4    32    33    1
     5    29    28    2
     6    33    27    2
     7    28    27    1
     8    27    25    1
     9     3     2    1
    10     3     4    2
    11    25    26    1
    12    25    24    1
    13     2     1    2
    14     5     4    1
    15     5     6    2
    16     4    10    1
    17    24     6    1
    18     6     7    1
    19     1    34    1
    20     1    11    1
    21    34    35    1
    22    10    11    2
    23    10     9    1
    24     7     9   am
    25     7     8    2
    26     9    12    1
    27    12    13    1
    28    16    15    1
    29    13    15   am
    30    13    14    2
    31    15    17    1
    32    23    17    2
    33    23    21    1
    34    17    18    1
    35    22    21    1
    36    21    20    2
    37    18    19    2
    38    20    19    1
