@<TRIPOS>MOLECULE
52061_out_ligand_01.pdbqt
 31 34 0 0 0
SMALL
GASTEIGER

@<TRIPOS>ATOM
      1  C         21.1300  -23.1630   -9.9220 C.2     1  UNL1       -0.0380
      2  C         20.7550  -22.4960  -11.1080 C.2     1  UNL1        0.0090
      3  C         19.4520  -22.0230  -11.2880 C.2     1  UNL1        0.0100
      4  C         18.5390  -22.2120  -10.2650 C.2     1  UNL1       -0.0300
      5  C         18.8950  -22.8740   -9.0890 C.2     1  UNL1        0.0440
      6  C         20.1780  -23.3600   -8.9070 C.2     1  UNL1        0.0390
      7  N         17.8060  -22.9060   -8.1980 N.am    1  UNL1       -0.3130
      8  C         17.7850  -23.5700   -6.9810 C.2     1  UNL1        0.2580
      9  O         18.6300  -24.3630   -6.5750 O.2     1  UNL1       -0.2670
     10  C         16.7050  -22.1250   -8.7940 C.3     1  UNL1        0.1370
     11  C         17.0980  -21.8150  -10.2460 C.3     1  UNL1        0.0610
     12  C         22.5460  -23.6460   -9.7370 C.3     1  UNL1        0.1630
     13  N         23.3850  -23.2650  -10.8530 N.am    1  UNL1       -0.3390
     14  C         24.0310  -22.0470  -10.8740 C.2     1  UNL1        0.3200
     15  O         23.9700  -21.2540   -9.9430 O.2     1  UNL1       -0.2470
     16  N         24.7450  -21.8910  -12.0420 N.am    1  UNL1       -0.3090
     17  H         24.8010  -22.7090  -12.6270 H       1  UNL1        0.1700
     18  H         23.1440  -23.6770  -11.7420 H       1  UNL1        0.1640
     19  C         25.5210  -20.7810  -12.4350 C.2     1  UNL1        0.0370
     20  C         26.3060  -20.1660  -11.4480 C.2     1  UNL1        0.0290
     21  C         27.1000  -19.0590  -11.7530 C.2     1  UNL1        0.0040
     22  C         27.1210  -18.5530  -13.0510 C.2     1  UNL1        0.0190
     23  C         26.3480  -19.1640  -14.0360 C.2     1  UNL1        0.0130
     24 BR         26.3790  -18.4820  -15.8000 Br      1  UNL1       -0.0510
     25  C         25.5530  -20.2730  -13.7360 C.2     1  UNL1        0.0480
     26  C         16.6390  -23.2990   -6.0840 C.2     1  UNL1        0.0320
     27  C         15.4380  -23.9890   -6.2720 C.2     1  UNL1        0.0170
     28  C         14.3690  -23.7600   -5.4050 C.2     1  UNL1        0.0010
     29  C         14.5110  -22.8580   -4.3460 C.2     1  UNL1        0.0000
     30  C         15.7190  -22.1870   -4.1470 C.2     1  UNL1        0.0010
     31  C         16.7900  -22.4130   -5.0110 C.2     1  UNL1        0.0170
@<TRIPOS>BOND
     1    24    23    1
     2    23    25    1
     3    23    22    2
     4    25    19    2
     5    22    21    1
     6    17    16    1
     7    19    16    1
     8    19    20    1
     9    16    14   am
    10    21    20    2
    11    18    13    1
    12     3     2    1
    13     3     4    2
    14     2     1    2
    15    14    13   am
    16    14    15    2
    17    13    12    1
    18     4    11    1
    19     4     5    1
    20    11    10    1
    21     1    12    1
    22     1     6    1
    23     5     6    2
    24     5     7    1
    25    10     7    1
    26     7     8   am
    27     8     9    2
    28     8    26    1
    29    27    26    2
    30    27    28    1
    31    26    31    1
    32    28    29    2
    33    31    30    2
    34    29    30    1
