@<TRIPOS>MOLECULE
52069_out_ligand_01.pdbqt
 33 36 0 0 0
SMALL
GASTEIGER

@<TRIPOS>ATOM
      1  C         21.3950  -23.2040  -10.0570 C.2     1  UNL1        0.2580
      2  O         20.8950  -24.0110   -9.2790 O.2     1  UNL1       -0.2670
      3  N         20.7340  -22.2170  -10.7690 N.am    1  UNL1       -0.3130
      4  C         21.3590  -21.2250  -11.6620 C.2     1  UNL1        0.1370
      5  C         20.2480  -20.3040  -12.1800 C.2     1  UNL1        0.0610
      6  C         19.0240  -20.9220  -11.5890 C.2     1  UNL1       -0.0300
      7  C         17.7090  -20.5260  -11.7790 C.2     1  UNL1        0.0100
      8  C         16.7000  -21.2410  -11.1300 C.2     1  UNL1        0.0090
      9  C         17.0070  -22.3300  -10.2850 C.2     1  UNL1       -0.0380
     10  C         18.3500  -22.7020  -10.1010 C.2     1  UNL1        0.0390
     11  C         19.3430  -22.0000  -10.7660 C.2     1  UNL1        0.0440
     12  C         15.9090  -23.1110   -9.6090 C.3     1  UNL1        0.1610
     13  N         15.8870  -22.8870   -8.1800 N.am    1  UNL1       -0.3530
     14  C         16.5090  -23.7370   -7.3020 C.2     1  UNL1        0.2520
     15  O         17.0980  -24.7590   -7.6170 O.2     1  UNL1       -0.2680
     16  H         15.3830  -22.0750   -7.8480 H       1  UNL1        0.1630
     17  C         16.3700  -23.3950   -5.8640 C.2     1  UNL1        0.0470
     18  C         15.2870  -23.9780   -5.1850 C.2     1  UNL1        0.0180
     19  C         15.0660  -23.7020   -3.8360 C.2     1  UNL1        0.0010
     20  C         15.9320  -22.8520   -3.1530 C.2     1  UNL1        0.0010
     21  C         17.0250  -22.2870   -3.8170 C.2     1  UNL1        0.0170
     22  C         17.2670  -22.5590   -5.1790 C.2     1  UNL1        0.0630
     23  C         18.4700  -21.9640   -5.8600 C.3     1  UNL1        0.4180
     24  F         18.1130  -21.1000   -6.8550 F       1  UNL1       -0.1660
     25  F         19.2530  -21.2320   -5.0170 F       1  UNL1       -0.1660
     26  F         19.2970  -22.8830   -6.4170 F       1  UNL1       -0.1660
     27  C         22.8560  -23.2940  -10.2460 C.2     1  UNL1        0.0320
     28  C         23.3940  -23.0510  -11.5090 C.2     1  UNL1        0.0170
     29  C         24.7790  -23.1030  -11.6880 C.2     1  UNL1        0.0070
     30  C         25.6230  -23.3960  -10.6100 C.2     1  UNL1       -0.0620
     31  C         27.1130  -23.3940  -10.7960 C.3     1  UNL1        0.0480
     32  C         25.0670  -23.6140   -9.3420 C.2     1  UNL1        0.0070
     33  C         23.6850  -23.5650   -9.1580 C.2     1  UNL1        0.0170
@<TRIPOS>BOND
     1     5     4    2
     2     5     6    1
     3     7     6    2
     4     7     8    1
     5    29    28    1
     6    29    30    2
     7     4     3    1
     8     6    11    1
     9    28    27    2
    10     8     9    2
    11    31    30    1
    12     3    11    1
    13     3     1   am
    14    11    10    2
    15    30    32    1
    16     9    10    1
    17     9    12    1
    18    27     1    1
    19    27    33    1
    20     1     2    2
    21    12    13    1
    22    32    33    2
    23    13    16    1
    24    13    14   am
    25    15    14    2
    26    14    17    1
    27    24    23    1
    28    26    23    1
    29    17    18    2
    30    17    22    1
    31    23    22    1
    32    23    25    1
    33    18    19    1
    34    22    21    2
    35    19    20    2
    36    21    20    1
