@<TRIPOS>MOLECULE
52072_out_ligand_01.pdbqt
 29 32 0 0 0
SMALL
GASTEIGER

@<TRIPOS>ATOM
      1  C         26.2290  -21.6440  -14.0860 C.3     1  UNL1        0.0480
      2  C         24.9350  -21.9580  -13.3900 C.2     1  UNL1       -0.0610
      3  C         24.8670  -23.0200  -12.4830 C.2     1  UNL1        0.0090
      4  C         23.6840  -23.3200  -11.7960 C.2     1  UNL1        0.0310
      5  C         22.5710  -22.5100  -12.0410 C.2     1  UNL1        0.0430
      6  N         21.3000  -22.5630  -11.5190 N.pl3   1  UNL1       -0.3520
      7  C         20.5210  -21.5630  -12.0440 C.2     1  UNL1        0.0890
      8  C         19.1560  -21.3970  -11.6740 C.2     1  UNL1        0.2230
      9  N         18.5500  -22.1510  -10.7770 N.2     1  UNL1       -0.2030
     10  C         17.2810  -21.6280  -10.7600 C.2     1  UNL1        0.1580
     11  N         17.0790  -20.6100  -11.6040 N.4     1  UNL1       -0.1110
     12  O         18.3270  -20.4440  -12.2070 O.2     1  UNL1       -0.1890
     13  C         21.3080  -20.8440  -12.9200 C.2     1  UNL1        0.0480
     14  C         22.6040  -21.4350  -12.9270 C.2     1  UNL1       -0.0070
     15  C         23.8060  -21.1510  -13.6060 C.2     1  UNL1        0.0200
     16  H         20.9740  -23.2420  -10.8430 H       1  UNL1        0.1660
     17  C         16.2120  -22.1710   -9.8880 C.3     1  UNL1        0.1030
     18  C         16.7120  -23.2450   -8.9170 C.3     1  UNL1        0.1330
     19  N         16.9160  -22.7760   -7.5350 N.am    1  UNL1       -0.3520
     20  C         15.7230  -22.4410   -6.7700 C.3     1  UNL1        0.1520
     21  C         18.0760  -23.0250   -6.7930 C.2     1  UNL1        0.2530
     22  O         18.1290  -22.9760   -5.5680 O.2     1  UNL1       -0.2670
     23  C         19.3210  -23.3730   -7.5080 C.2     1  UNL1        0.0330
     24  C         19.4730  -24.6710   -8.0080 C.2     1  UNL1        0.0170
     25  C         20.6520  -25.0240   -8.6630 C.2     1  UNL1        0.0020
     26  C         21.6810  -24.0880   -8.8030 C.2     1  UNL1        0.0190
     27  C         21.5290  -22.8040   -8.2760 C.2     1  UNL1        0.0110
     28 BR         22.9250  -21.5420   -8.4650 Br      1  UNL1       -0.0510
     29  C         20.3560  -22.4390   -7.6180 C.2     1  UNL1        0.0360
@<TRIPOS>BOND
     1     1     2    1
     2    15     2    2
     3    15    14    1
     4     2     3    1
     5    14    13    1
     6    14     5    2
     7    13     7    2
     8     3     4    2
     9    12     8    1
    10    12    11    1
    11     7     8    1
    12     7     6    1
    13     5     4    1
    14     5     6    1
    15     8     9    2
    16    11    10    1
    17     6    16    1
    18     9    10    2
    19    10    17    1
    20    17    18    1
    21    18    19    1
    22    26    25    2
    23    26    27    1
    24    25    24    1
    25    28    27    1
    26    27    29    2
    27    24    23    2
    28    29    23    1
    29    19    21   am
    30    19    20    1
    31    23    21    1
    32    21    22    2
