@<TRIPOS>MOLECULE
52086_out_ligand_01.pdbqt
 32 36 0 0 0
SMALL
GASTEIGER

@<TRIPOS>ATOM
      1  N         17.1330  -23.9690   -6.8140 N.ar    1  UNL1       -0.3040
      2  C         16.1830  -23.3300   -7.5780 C.ar    1  UNL1        0.1710
      3  N         15.3860  -22.5750   -6.8500 N.ar    1  UNL1       -0.2210
      4  C         15.8330  -22.7250   -5.5630 C.ar    1  UNL1        0.1050
      5  C         15.3860  -22.1610   -4.3640 C.2     1  UNL1        0.0370
      6  C         16.0590  -22.5280   -3.1980 C.2     1  UNL1        0.0220
      7  C         17.1210  -23.4240   -3.2790 C.2     1  UNL1        0.1190
      8  N         17.5920  -23.9960   -4.4140 N.2     1  UNL1       -0.2410
      9  C         16.9120  -23.5990   -5.5100 C.ar    1  UNL1        0.1610
     10  C         18.1500  -24.9150   -7.2360 C.3     1  UNL1        0.1710
     11  C         19.3850  -24.2270   -7.7660 C.2     1  UNL1       -0.0400
     12  C         19.6260  -22.8750   -7.4770 C.2     1  UNL1        0.0100
     13  C         20.7680  -22.2340   -7.9610 C.2     1  UNL1        0.0170
     14  C         21.6920  -22.9390   -8.7440 C.2     1  UNL1        0.0320
     15  C         21.4490  -24.2800   -9.0540 C.2     1  UNL1        0.0170
     16  C         20.3080  -24.9220   -8.5620 C.2     1  UNL1        0.0100
     17  C         22.9290  -22.2980   -9.2740 C.2     1  UNL1        0.2520
     18  O         23.1190  -21.0990   -9.1170 O.2     1  UNL1       -0.2680
     19  N         23.7880  -23.1290   -9.9750 N.am    1  UNL1       -0.3520
     20  H         23.4650  -24.0500  -10.2420 H       1  UNL1        0.1630
     21  C         24.9770  -22.6390  -10.5950 C.3     1  UNL1        0.0840
     22  C         25.4140  -23.1710  -11.9340 C.3     1  UNL1        0.0270
     23  C         26.1970  -23.5120  -10.6990 C.3     1  UNL1        0.0270
     24  S         16.0560  -23.5390   -9.2940 S.3     1  UNL1       -0.0870
     25  C         16.3460  -21.8510   -9.9090 C.3     1  UNL1        0.1210
     26  C         17.6760  -21.7020  -10.6100 C.2     1  UNL1       -0.0480
     27  C         18.4620  -22.8310  -10.8970 C.2     1  UNL1        0.0110
     28  C         19.6910  -22.6890  -11.5540 C.2     1  UNL1        0.0430
     29  C         20.1360  -21.4260  -11.9120 C.2     1  UNL1        0.1160
     30  F         21.3170  -21.2940  -12.5340 F       1  UNL1       -0.2060
     31  C         19.3830  -20.2940  -11.6270 C.2     1  UNL1        0.0430
     32  C         18.1520  -20.4330  -10.9750 C.2     1  UNL1        0.0110
@<TRIPOS>BOND
     1    30    29    1
     2    22    23    1
     3    22    21    1
     4    29    31    2
     5    29    28    1
     6    31    32    1
     7    28    27    2
     8    32    26    2
     9    27    26    1
    10    23    21    1
    11    26    25    1
    12    21    19    1
    13    20    19    1
    14    19    17   am
    15    25    24    1
    16    24     2    1
    17    17    18    2
    18    17    14    1
    19    15    14    2
    20    15    16    1
    21    14    13    1
    22    16    11    2
    23    13    12    2
    24    11    12    1
    25    11    10    1
    26     2     3   ar
    27     2     1   ar
    28    10     1    1
    29     3     4   ar
    30     1     9   ar
    31     4     9   ar
    32     4     5    1
    33     9     8    1
    34     8     7    2
    35     5     6    2
    36     7     6    1
