@<TRIPOS>MOLECULE
52085_out_ligand_01.pdbqt
 33 37 0 0 0
SMALL
GASTEIGER

@<TRIPOS>ATOM
      1  C         22.9780  -23.7330   -9.2140 C.3     1  UNL1        0.0520
      2  C         22.1700  -22.9830  -10.2120 C.ar    1  UNL1       -0.0090
      3  C         22.6740  -22.3840  -11.3610 C.ar    1  UNL1        0.1500
      4  O         21.6680  -21.7500  -12.0340 O.2     1  UNL1       -0.3040
      5  C         20.5190  -21.9570  -11.3460 C.ar    1  UNL1        0.0880
      6  C         19.2830  -21.4520  -11.7330 C.2     1  UNL1        0.0410
      7  C         18.2110  -21.7420  -10.8940 C.2     1  UNL1        0.0400
      8  C         18.3860  -22.5110   -9.7410 C.2     1  UNL1        0.0790
      9  C         19.6370  -23.0730   -9.3900 C.2     1  UNL1        0.0180
     10  C         20.7490  -22.7370  -10.2150 C.ar    1  UNL1        0.0180
     11  C         19.7290  -23.9230   -8.1500 C.3     1  UNL1        0.1570
     12  C         18.3620  -24.2850   -7.5890 C.3     1  UNL1        0.0750
     13  C         17.4100  -23.0840   -7.6270 C.3     1  UNL1        0.0700
     14  C         16.0000  -23.5110   -7.1580 C.3     1  UNL1        0.0380
     15  C         15.9170  -23.7930   -5.6590 C.3     1  UNL1        0.0030
     16  C         16.4280  -22.6150   -4.8350 C.3     1  UNL1        0.0000
     17  C         17.8190  -22.1710   -5.2730 C.3     1  UNL1        0.0030
     18  C         17.8640  -21.8800   -6.7700 C.3     1  UNL1        0.0380
     19  O         17.2450  -22.6630   -8.9930 O.2     1  UNL1       -0.3390
     20  C         24.0090  -22.3430  -11.9290 C.2     1  UNL1        0.2760
     21  O         24.7210  -21.3440  -11.9470 O.2     1  UNL1       -0.2650
     22  N         24.4270  -23.5560  -12.4380 N.am    1  UNL1       -0.3550
     23  H         23.8160  -24.3460  -12.2590 H       1  UNL1        0.1620
     24  C         25.8100  -23.8270  -12.7750 C.3     1  UNL1        0.1270
     25  C         25.9540  -24.4370  -14.1740 C.3     1  UNL1        0.0580
     26  C         25.5840  -23.4570  -15.2650 C.2     1  UNL1       -0.0570
     27  C         26.1180  -22.1610  -15.2630 C.2     1  UNL1        0.0070
     28  C         25.8200  -21.2720  -16.2970 C.2     1  UNL1        0.0010
     29  C         24.9910  -21.6730  -17.3430 C.2     1  UNL1        0.0000
     30  C         24.4520  -22.9580  -17.3500 C.2     1  UNL1        0.0010
     31  C         24.7440  -23.8460  -16.3150 C.2     1  UNL1        0.0070
     32  O         20.4080  -25.1450   -8.4310 O.3     1  UNL1       -0.3910
     33  H         20.6170  -25.1430   -9.3800 H       1  UNL1        0.2100
@<TRIPOS>BOND
     1    30    29    2
     2    30    31    1
     3    29    28    1
     4    31    26    2
     5    28    27    2
     6    26    27    1
     7    26    25    1
     8    25    24    1
     9    24    22    1
    10    22    23    1
    11    22    20   am
    12     4     3   ar
    13     4     5   ar
    14    21    20    2
    15    20     3    1
    16     6     5    2
    17     6     7    1
    18     3     2   ar
    19     5    10   ar
    20     7     8    2
    21    10     2   ar
    22    10     9    2
    23     2     1    1
    24     8     9    1
    25     8    19    1
    26     9    11    1
    27    33    32    1
    28    19    13    1
    29    32    11    1
    30    11    12    1
    31    13    12    1
    32    13    14    1
    33    13    18    1
    34    14    15    1
    35    18    17    1
    36    15    16    1
    37    17    16    1
