@<TRIPOS>MOLECULE
52095_out_ligand_01.pdbqt
 35 38 0 0 0
SMALL
GASTEIGER

@<TRIPOS>ATOM
      1  C         23.5690  -21.3630  -13.7290 C.2     1  UNL1        0.2580
      2  O         22.3890  -21.4230  -14.0640 O.2     1  UNL1       -0.2670
      3  N         24.1130  -21.8400  -12.5480 N.am    1  UNL1       -0.3130
      4  C         25.5500  -21.9250  -12.2180 C.2     1  UNL1        0.1370
      5  C         25.6770  -22.7130  -10.9080 C.2     1  UNL1        0.0610
      6  C         24.2490  -22.8660  -10.4940 C.2     1  UNL1       -0.0300
      7  C         23.7680  -23.4470   -9.3310 C.2     1  UNL1        0.0100
      8  C         22.3840  -23.5230   -9.1510 C.2     1  UNL1        0.0090
      9  C         21.4970  -23.0180  -10.1260 C.2     1  UNL1       -0.0380
     10  C         22.0100  -22.4440  -11.3020 C.2     1  UNL1        0.0390
     11  C         23.3820  -22.3740  -11.4700 C.2     1  UNL1        0.0440
     12  C         20.0070  -23.1390   -9.9290 C.3     1  UNL1        0.1630
     13  N         19.5750  -22.3430   -8.7990 N.am    1  UNL1       -0.3390
     14  C         18.9370  -22.9220   -7.7220 C.2     1  UNL1        0.3210
     15  O         18.7920  -24.1320   -7.6170 O.2     1  UNL1       -0.2470
     16  N         18.5370  -21.9590   -6.8190 N.am    1  UNL1       -0.3080
     17  H         18.8240  -21.0190   -7.0610 H       1  UNL1        0.1700
     18  H         19.3550  -21.3810   -9.0100 H       1  UNL1        0.1640
     19  C         17.8400  -22.1260   -5.5970 C.2     1  UNL1        0.0510
     20  C         18.4840  -22.0170   -4.3550 C.2     1  UNL1        0.0300
     21  C         17.7880  -22.1850   -3.1530 C.2     1  UNL1        0.0020
     22  C         16.4300  -22.4690   -3.1690 C.2     1  UNL1        0.0010
     23  C         15.7710  -22.5850   -4.3910 C.2     1  UNL1        0.0180
     24  C         16.4590  -22.4210   -5.6140 C.2     1  UNL1        0.0740
     25  C         15.6470  -22.5570   -6.8770 C.3     1  UNL1        0.4190
     26  F         16.0630  -21.7550   -7.9020 F       1  UNL1       -0.1660
     27  F         14.3330  -22.2510   -6.6880 F       1  UNL1       -0.1660
     28  F         15.6630  -23.8260   -7.3780 F       1  UNL1       -0.1660
     29  C         24.5010  -20.7290  -14.6850 C.2     1  UNL1        0.0320
     30  C         25.2510  -19.6160  -14.2930 C.2     1  UNL1        0.0170
     31  C         26.1120  -19.0110  -15.2090 C.2     1  UNL1        0.0070
     32  C         26.2240  -19.5100  -16.5160 C.2     1  UNL1       -0.0620
     33  C         27.1210  -18.8250  -17.5070 C.3     1  UNL1        0.0480
     34  C         25.4400  -20.6060  -16.9050 C.2     1  UNL1        0.0070
     35  C         24.5770  -21.2160  -15.9910 C.2     1  UNL1        0.0170
@<TRIPOS>BOND
     1    33    32    1
     2    34    32    2
     3    34    35    1
     4    32    31    1
     5    35    29    2
     6    31    30    2
     7    29    30    1
     8    29     1    1
     9     2     1    2
    10     1     3   am
    11     3     4    1
    12     3    11    1
    13     4     5    2
    14    11    10    1
    15    11     6    2
    16    10     9    2
    17     5     6    1
    18     6     7    1
    19     9    12    1
    20     9     8    1
    21    12    13    1
    22     7     8    2
    23    18    13    1
    24    13    14   am
    25    26    25    1
    26    14    15    2
    27    14    16   am
    28    28    25    1
    29    17    16    1
    30    25    27    1
    31    25    24    1
    32    16    19    1
    33    24    19    2
    34    24    23    1
    35    19    20    1
    36    23    22    2
    37    20    21    2
    38    22    21    1
