@<TRIPOS>MOLECULE
52093_out_ligand_01.pdbqt
 33 36 0 0 0
SMALL
GASTEIGER

@<TRIPOS>ATOM
      1  C         20.0450  -21.9620  -10.6720 C.2     1  UNL1       -0.0380
      2  C         19.1230  -21.9490  -11.7380 C.2     1  UNL1        0.0090
      3  C         17.7520  -22.0940  -11.5070 C.2     1  UNL1        0.0100
      4  C         17.3240  -22.2870  -10.2060 C.2     1  UNL1       -0.0290
      5  C         18.2230  -22.3310   -9.1410 C.2     1  UNL1        0.0440
      6  C         19.5800  -22.1550   -9.3570 C.2     1  UNL1        0.0390
      7  N         17.5330  -22.5770   -7.9280 N.am    1  UNL1       -0.3090
      8  C         18.1390  -22.6670   -6.6770 C.2     1  UNL1        0.2580
      9  O         19.3450  -22.5910   -6.4500 O.2     1  UNL1       -0.2670
     10  C         16.1220  -22.9140   -8.2760 C.3     1  UNL1        0.0930
     11  C         15.8690  -24.4250   -8.1920 C.3     1  UNL1        0.0330
     12  C         15.9140  -22.4140   -9.7250 C.3     1  UNL1        0.0660
     13  C         21.5220  -21.7990  -10.9350 C.3     1  UNL1        0.1630
     14  N         21.7770  -21.4340  -12.3150 N.am    1  UNL1       -0.3390
     15  C         22.9830  -21.7280  -12.9180 C.2     1  UNL1        0.3200
     16  N         22.9820  -21.3460  -14.2430 N.am    1  UNL1       -0.3090
     17  O         23.9100  -22.2430  -12.3070 O.2     1  UNL1       -0.2470
     18  H         22.1700  -20.8300  -14.5500 H       1  UNL1        0.1700
     19  H         20.9630  -21.3520  -12.9060 H       1  UNL1        0.1640
     20  C         24.0310  -21.4750  -15.1790 C.2     1  UNL1        0.0360
     21  C         24.1270  -22.6860  -15.8720 C.2     1  UNL1        0.0300
     22  C         25.1310  -22.8860  -16.8260 C.2     1  UNL1        0.0090
     23  C         26.0640  -21.8780  -17.1080 C.2     1  UNL1       -0.0560
     24  C         27.1210  -22.1210  -18.1530 C.3     1  UNL1        0.0490
     25  C         25.9800  -20.6560  -16.4140 C.2     1  UNL1       -0.0540
     26  C         24.9660  -20.4730  -15.4520 C.2     1  UNL1        0.0370
     27  C         26.9490  -19.5350  -16.6750 C.3     1  UNL1        0.0490
     28  C         17.2700  -22.8760   -5.4960 C.2     1  UNL1        0.0320
     29  C         17.7330  -23.6960   -4.4620 C.2     1  UNL1        0.0170
     30  C         16.9400  -23.8940   -3.3300 C.2     1  UNL1        0.0010
     31  C         15.7030  -23.2580   -3.2230 C.2     1  UNL1        0.0000
     32  C         15.2560  -22.4150   -4.2440 C.2     1  UNL1        0.0010
     33  C         16.0440  -22.2140   -5.3800 C.2     1  UNL1        0.0170
@<TRIPOS>BOND
     1    24    23    1
     2    23    22    2
     3    23    25    1
     4    22    21    1
     5    27    25    1
     6    25    26    2
     7    21    20    2
     8    26    20    1
     9    20    16    1
    10    18    16    1
    11    16    15   am
    12    15    14   am
    13    15    17    2
    14    19    14    1
    15    14    13    1
    16     2     3    1
    17     2     1    2
    18     3     4    2
    19    13     1    1
    20     1     6    1
    21     4    12    1
    22     4     5    1
    23    12    10    1
    24     6     5    2
    25     5     7    1
    26    10    11    1
    27    10     7    1
    28     7     8   am
    29     8     9    2
    30     8    28    1
    31    28    33    2
    32    28    29    1
    33    33    32    1
    34    29    30    2
    35    32    31    2
    36    30    31    1
