@<TRIPOS>MOLECULE
52109_out_ligand_01.pdbqt
 33 35 0 0 0
SMALL
GASTEIGER

@<TRIPOS>ATOM
      1  C         26.3810  -18.3670  -15.9030 C.3     1  UNL1        0.0500
      2  C         26.0450  -19.4260  -14.8830 C.2     1  UNL1       -0.0340
      3  C         26.4900  -19.1410  -13.5330 C.2     1  UNL1        0.0330
      4  C         26.2960  -20.0050  -12.5230 C.2     1  UNL1        0.0120
      5  C         26.7810  -19.6710  -11.1390 C.3     1  UNL1        0.0680
      6  N         25.6380  -21.2120  -12.7690 N.am    1  UNL1       -0.3080
      7  C         25.1170  -21.5300  -14.0290 C.2     1  UNL1        0.2690
      8  O         24.4430  -22.5450  -14.2180 O.2     1  UNL1       -0.2660
      9  C         25.3820  -20.5700  -15.1430 C.2     1  UNL1        0.1180
     10  C         24.8930  -20.9090  -16.4350 C.1     1  UNL1        0.1050
     11  N         24.5060  -21.1480  -17.5030 N.1     1  UNL1       -0.1910
     12  C         25.3830  -22.1830  -11.6970 C.3     1  UNL1        0.2350
     13  C         24.0510  -21.8880  -11.0000 C.2     1  UNL1        0.2400
     14  O         24.0140  -21.2010   -9.9850 O.2     1  UNL1       -0.2710
     15  N         22.9650  -22.4190  -11.6750 N.am    1  UNL1       -0.3260
     16  H         23.1670  -22.8350  -12.5860 H       1  UNL1        0.1690
     17  C         21.6040  -22.3270  -11.3240 C.2     1  UNL1        0.0350
     18  C         20.7940  -21.5100  -12.1250 C.2     1  UNL1        0.0290
     19  C         19.4350  -21.3540  -11.8450 C.2     1  UNL1        0.0030
     20  C         18.8680  -22.0150  -10.7570 C.2     1  UNL1        0.0170
     21  C         19.6670  -22.8350   -9.9510 C.2     1  UNL1        0.0340
     22  C         21.0300  -22.9970  -10.2440 C.2     1  UNL1        0.0460
     23  C         19.1020  -23.5710   -8.7870 C.2     1  UNL1        0.2520
     24  O         19.7150  -24.5090   -8.2920 O.2     1  UNL1       -0.2680
     25  N         17.8990  -23.1070   -8.3000 N.am    1  UNL1       -0.3530
     26  H         17.5620  -22.2080   -8.6140 H       1  UNL1        0.1630
     27  C         17.3300  -23.6290   -7.0770 C.3     1  UNL1        0.1620
     28  C         17.7590  -22.8270   -5.8840 C.2     1  UNL1       -0.0230
     29  C         18.5010  -21.6500   -6.0200 C.2     1  UNL1        0.0120
     30  C         18.8830  -20.9360   -4.8920 C.2     1  UNL1        0.0200
     31  C         18.5220  -21.4340   -3.6520 C.2     1  UNL1        0.1160
     32  N         17.8040  -22.5650   -3.4740 N.2     1  UNL1       -0.2730
     33  C         17.4410  -23.2330   -4.5930 C.2     1  UNL1        0.1240
@<TRIPOS>BOND
     1    11    10    3
     2    10     9    1
     3     1     2    1
     4     9     2    2
     5     9     7    1
     6     2     3    1
     7     8     7    2
     8     7     6   am
     9     3     4    2
    10     6     4    1
    11     6    12    1
    12    16    15    1
    13     4     5    1
    14    18    19    1
    15    18    17    2
    16    19    20    2
    17    12    13    1
    18    15    17    1
    19    15    13   am
    20    17    22    1
    21    13    14    2
    22    20    21    1
    23    22    21    2
    24    21    23    1
    25    23    25   am
    26    23    24    2
    27    26    25    1
    28    25    27    1
    29    27    28    1
    30    29    28    2
    31    29    30    1
    32    28    33    1
    33    30    31    2
    34    33    32    2
    35    31    32    1
