@<TRIPOS>MOLECULE
52115_out_ligand_01.pdbqt
 30 33 0 0 0
SMALL
GASTEIGER

@<TRIPOS>ATOM
      1  C         22.5530  -23.0430   -8.8790 C.2     1  UNL1       -0.0580
      2  C         22.2780  -21.9830   -8.0080 C.2     1  UNL1        0.0090
      3  C         21.0170  -21.8620   -7.4170 C.2     1  UNL1        0.0300
      4  C         20.0040  -22.7910   -7.6890 C.2     1  UNL1        0.0350
      5  C         20.2820  -23.8500   -8.5520 C.2     1  UNL1        0.0300
      6  C         21.5450  -23.9790   -9.1390 C.2     1  UNL1        0.0090
      7  C         23.9010  -23.1580   -9.5520 C.3     1  UNL1        0.0460
      8  C         24.2320  -21.9590  -10.4470 C.3     1  UNL1        0.0830
      9  C         24.4160  -22.3410  -11.8780 C.ar    1  UNL1        0.1050
     10  N         24.8100  -23.5990  -12.2640 N.ar    1  UNL1       -0.3430
     11  C         24.9000  -23.6220  -13.6320 C.ar    1  UNL1        0.0620
     12  H         25.0410  -24.3610  -11.6420 H       1  UNL1        0.1670
     13  C         25.2720  -24.6190  -14.5330 C.2     1  UNL1        0.0320
     14  C         24.5270  -22.3410  -14.0190 C.ar    1  UNL1        0.0860
     15  C         25.2490  -24.2760  -15.8920 C.2     1  UNL1        0.0090
     16  C         24.8590  -23.0000  -16.3260 C.2     1  UNL1       -0.0600
     17  C         24.8780  -22.6610  -17.7890 C.3     1  UNL1        0.0480
     18  C         24.5080  -22.0180  -15.3840 C.2     1  UNL1        0.0400
     19  N         24.2310  -21.5640  -12.9250 N.ar    1  UNL1       -0.2330
     20  N         18.7600  -22.5870   -7.0540 N.am    1  UNL1       -0.3230
     21  C         17.9190  -23.5420   -6.5120 C.2     1  UNL1        0.2590
     22  O         18.1150  -24.7540   -6.5190 O.2     1  UNL1       -0.2670
     23  H         18.4570  -21.6210   -6.9960 H       1  UNL1        0.1690
     24  C         16.6620  -23.0400   -5.8750 C.2     1  UNL1        0.0700
     25  C         16.5730  -23.0530   -4.4730 C.2     1  UNL1        0.0200
     26  C         15.4210  -22.5950   -3.8270 C.2     1  UNL1        0.0010
     27  C         14.3440  -22.1180   -4.5710 C.2     1  UNL1        0.0030
     28  C         14.4190  -22.1010   -5.9630 C.2     1  UNL1        0.0430
     29  C         15.5710  -22.5590   -6.6030 C.2     1  UNL1        0.1320
     30  F         15.5950  -22.5250   -7.9450 F       1  UNL1       -0.2050
@<TRIPOS>BOND
     1    17    16    1
     2    16    15    2
     3    16    18    1
     4    15    13    1
     5    18    14    2
     6    13    11    2
     7    14    11   ar
     8    14    19   ar
     9    11    10   ar
    10    19     9   ar
    11    10     9   ar
    12    10    12    1
    13     9     8    1
    14     8     7    1
    15     7     1    1
    16     6     1    2
    17     6     5    1
    18     1     2    1
    19     5     4    2
    20     2     3    2
    21    30    29    1
    22     4     3    1
    23     4    20    1
    24    20    23    1
    25    20    21   am
    26    29    28    1
    27    29    24    2
    28    22    21    2
    29    21    24    1
    30    28    27    2
    31    24    25    1
    32    27    26    1
    33    25    26    2
