@<TRIPOS>MOLECULE
52124_out_ligand_01.pdbqt
 32 35 0 0 0
SMALL
GASTEIGER

@<TRIPOS>ATOM
      1  C         21.9820  -22.9700   -8.8990 C.2     1  UNL1        0.0320
      2  C         21.5820  -24.2820   -9.1820 C.2     1  UNL1        0.0200
      3  C         20.3920  -24.7800   -8.6440 C.2     1  UNL1        0.0380
      4  C         19.5940  -23.9730   -7.8300 C.2     1  UNL1        0.0780
      5  C         20.0080  -22.6760   -7.5160 C.2     1  UNL1        0.0380
      6  C         21.1980  -22.1770   -8.0510 C.2     1  UNL1        0.0200
      7  O         18.4450  -24.5570   -7.3410 O.2     1  UNL1       -0.2900
      8  C         17.5130  -23.6980   -6.7960 C.2     1  UNL1        0.2060
      9  N         17.7390  -23.3180   -5.5110 N.2     1  UNL1       -0.2330
     10  C         16.7940  -22.5140   -4.9760 C.2     1  UNL1        0.1380
     11  C         15.6730  -22.1130   -5.6820 C.2     1  UNL1        0.1370
     12  N         15.4340  -22.5010   -6.9550 N.2     1  UNL1       -0.2480
     13  C         16.3690  -23.3190   -7.5110 C.2     1  UNL1        0.1510
     14  S         16.0320  -23.8710   -9.1730 S.3     1  UNL1       -0.0660
     15  C         16.9960  -22.6770  -10.0780 C.2     1  UNL1        0.0070
     16  C         16.4990  -21.3880  -10.2880 C.2     1  UNL1        0.0190
     17  C         17.2520  -20.4520  -11.0020 C.2     1  UNL1        0.0010
     18  C         18.4990  -20.8030  -11.5130 C.2     1  UNL1        0.0000
     19  C         18.9980  -22.0890  -11.3110 C.2     1  UNL1        0.0010
     20  C         18.2480  -23.0240  -10.5960 C.2     1  UNL1        0.0190
     21  C         23.2400  -22.3930   -9.4480 C.2     1  UNL1        0.2510
     22  O         23.4430  -21.1860   -9.3770 O.2     1  UNL1       -0.2680
     23  N         24.1040  -23.2820  -10.0520 N.am    1  UNL1       -0.3530
     24  H         23.7620  -24.2010  -10.2910 H       1  UNL1        0.1630
     25  C         25.2820  -22.8230  -10.7520 C.3     1  UNL1        0.1610
     26  C         25.0360  -22.7700  -12.2390 C.2     1  UNL1       -0.0400
     27  C         25.4630  -23.8250  -13.0620 C.2     1  UNL1        0.0120
     28  C         25.2580  -23.7730  -14.4420 C.2     1  UNL1        0.0430
     29  C         24.6330  -22.6660  -14.9980 C.2     1  UNL1        0.1160
     30  F         24.4350  -22.6160  -16.3230 F       1  UNL1       -0.2060
     31  C         24.2090  -21.6070  -14.2040 C.2     1  UNL1        0.0430
     32  C         24.4130  -21.6550  -12.8240 C.2     1  UNL1        0.0120
@<TRIPOS>BOND
     1    30    29    1
     2    29    28    2
     3    29    31    1
     4    28    27    1
     5    31    32    2
     6    27    26    2
     7    32    26    1
     8    26    25    1
     9    18    19    2
    10    18    17    1
    11    19    20    1
    12    17    16    2
    13    25    23    1
    14    20    15    2
    15    24    23    1
    16    16    15    1
    17    15    14    1
    18    23    21   am
    19    21    22    2
    20    21     1    1
    21     2     1    2
    22     2     3    1
    23    14    13    1
    24     1     6    1
    25     3     4    2
    26     6     5    2
    27     4     5    1
    28     4     7    1
    29    13    12    2
    30    13     8    1
    31     7     8    1
    32    12    11    1
    33     8     9    2
    34    11    10    2
    35     9    10    1
