@<TRIPOS>MOLECULE
52122_out_ligand_01.pdbqt
 35 38 0 0 0
SMALL
GASTEIGER

@<TRIPOS>ATOM
      1  C         20.3290  -22.5880   -9.6820 C.2     1  UNL1        0.0510
      2  C         19.6730  -21.8210  -10.6330 C.2     1  UNL1        0.1330
      3  N         20.2200  -21.4700  -11.8190 N.2     1  UNL1       -0.2700
      4  C         21.4780  -21.9200  -12.0680 C.2     1  UNL1        0.1400
      5  C         22.2220  -22.6920  -11.1770 C.2     1  UNL1        0.0410
      6  C         21.6150  -23.0550   -9.9760 C.2     1  UNL1        0.0440
      7  N         23.5180  -23.2300  -11.4760 N.pl3   1  UNL1       -0.1800
      8  H         23.6770  -24.1850  -11.1530 H       1  UNL1        0.1460
      9  S         24.8570  -22.2330  -11.1810 S.O2    1  UNL1        0.2460
     10  O         25.9750  -23.0980  -10.8720 O.2     1  UNL1       -0.2060
     11  O         24.4610  -21.1550  -10.3040 O.2     1  UNL1       -0.2060
     12  C         25.1260  -21.5490  -12.7970 C.2     1  UNL1        0.0770
     13  C         25.8580  -20.3660  -12.9470 C.2     1  UNL1        0.0280
     14  C         26.0580  -19.8430  -14.2260 C.2     1  UNL1        0.0410
     15  C         25.5230  -20.4960  -15.3360 C.2     1  UNL1        0.1020
     16  C         24.8090  -21.6900  -15.1780 C.2     1  UNL1        0.1030
     17  O         25.7440  -19.9110  -16.5570 O.2     1  UNL1       -0.3460
     18  C         24.5920  -22.2120  -13.9060 C.2     1  UNL1        0.0640
     19  O         24.2860  -22.3990  -16.2290 O.2     1  UNL1       -0.3460
     20  C         24.8330  -21.9640  -17.4800 C.3     1  UNL1        0.2020
     21  C         24.8670  -20.4460  -17.5570 C.3     1  UNL1        0.2020
     22  C         19.6950  -22.9590   -8.3950 C.2     1  UNL1        0.2570
     23  O         19.8040  -24.1220   -8.0270 O.2     1  UNL1       -0.2670
     24  N         19.0810  -21.9230   -7.7150 N.am    1  UNL1       -0.3230
     25  H         19.2140  -20.9840   -8.0730 H       1  UNL1        0.1690
     26  C         18.3660  -22.0090   -6.5000 C.2     1  UNL1        0.0350
     27  C         18.8290  -21.5030   -5.2850 C.2     1  UNL1        0.0290
     28  C         18.0630  -21.6320   -4.1230 C.2     1  UNL1        0.0030
     29  C         16.8280  -22.2730   -4.1640 C.2     1  UNL1        0.0160
     30  C         16.3460  -22.7990   -5.3690 C.2     1  UNL1        0.0500
     31  C         17.1240  -22.6570   -6.5330 C.2     1  UNL1        0.0450
     32  C         15.0000  -23.4770   -5.4170 C.3     1  UNL1        0.4170
     33  F         13.9670  -22.5970   -5.5370 F       1  UNL1       -0.1660
     34  F         14.7290  -24.2160   -4.3030 F       1  UNL1       -0.1660
     35  F         14.8880  -24.3340   -6.4690 F       1  UNL1       -0.1660
@<TRIPOS>BOND
     1    21    20    1
     2    21    17    1
     3    20    19    1
     4    17    15    1
     5    19    16    1
     6    15    16    2
     7    15    14    1
     8    16    18    1
     9    14    13    2
    10    18    12    2
    11    13    12    1
    12    12     9    1
    13     4     3    2
    14     4     5    1
    15     3     2    1
    16     7     9    1
    17     7     5    1
    18     7     8    1
    19     9    10    2
    20     9    11    2
    21     5     6    2
    22     2     1    2
    23     6     1    1
    24     1    22    1
    25    22    23    2
    26    22    24   am
    27    25    24    1
    28    24    26    1
    29    31    26    2
    30    31    30    1
    31    26    27    1
    32    35    32    1
    33    33    32    1
    34    32    30    1
    35    32    34    1
    36    30    29    2
    37    27    28    2
    38    29    28    1
