@<TRIPOS>MOLECULE
52130_out_ligand_01.pdbqt
 37 40 0 0 0
SMALL
GASTEIGER

@<TRIPOS>ATOM
      1  C         16.5560  -22.5610  -10.0390 C.2     1  UNL1        0.0900
      2  C         17.8750  -22.4760  -10.2890 C.2     1  UNL1        0.1050
      3  N         18.8880  -23.2360   -9.7360 N.pl3   1  UNL1       -0.3500
      4  C         20.2430  -22.9680   -9.9730 C.2     1  UNL1        0.0590
      5  C         21.2420  -23.7470   -9.3870 C.2     1  UNL1        0.0330
      6  C         22.5870  -23.4940   -9.6730 C.2     1  UNL1        0.0190
      7  C         22.9430  -22.4600  -10.5490 C.2     1  UNL1        0.0340
      8  C         21.9470  -21.6960  -11.1690 C.2     1  UNL1        0.0490
      9  C         20.6080  -21.9600  -10.8810 C.2     1  UNL1        0.0620
     10  N         19.6020  -21.2100  -11.5070 N.am    1  UNL1       -0.3200
     11  C         18.2580  -21.3910  -11.2840 C.2     1  UNL1        0.2720
     12  O         17.4320  -20.6990  -11.8750 O.2     1  UNL1       -0.2660
     13  H         18.6680  -23.8180   -8.9380 H       1  UNL1        0.1660
     14  H         19.8370  -20.4840  -12.1700 H       1  UNL1        0.1690
     15  C         24.3860  -22.2300  -10.8200 C.2     1  UNL1        0.2520
     16  O         24.8910  -21.1450  -10.5560 O.2     1  UNL1       -0.2680
     17  N         25.0660  -23.2770  -11.4040 N.am    1  UNL1       -0.3530
     18  H         24.5330  -24.0260  -11.8250 H       1  UNL1        0.1630
     19  C         26.4280  -23.1210  -11.8680 C.3     1  UNL1        0.1610
     20  C         26.4550  -22.7000  -13.3150 C.2     1  UNL1       -0.0380
     21  C         27.0790  -21.5070  -13.7030 C.2     1  UNL1        0.0090
     22  C         27.1200  -21.1420  -15.0480 C.2     1  UNL1        0.0030
     23  C         26.5470  -21.9700  -16.0130 C.2     1  UNL1        0.0370
     24  C         25.9300  -23.1680  -15.6470 C.2     1  UNL1        0.0680
     25  C         25.8860  -23.5280  -14.3000 C.2     1  UNL1        0.0450
     26  O         25.4160  -23.8890  -16.6900 O.2     1  UNL1       -0.3560
     27  C         24.2850  -23.3350  -17.3540 C.3     1  UNL1        0.2100
     28  C         15.9150  -23.5190   -9.1080 C.2     1  UNL1        0.1840
     29  O         15.1310  -24.3540   -9.5480 O.2     1  UNL1       -0.2880
     30  C         16.2240  -23.4800   -7.6570 C.2     1  UNL1        0.0140
     31  C         17.1130  -24.3810   -7.0590 C.2     1  UNL1        0.0180
     32  C         17.3880  -24.2940   -5.6890 C.2     1  UNL1        0.0370
     33  C         16.7710  -23.3170   -4.9070 C.2     1  UNL1        0.0680
     34  C         15.8650  -22.4350   -5.5040 C.2     1  UNL1        0.0370
     35  C         15.5860  -22.5170   -6.8700 C.2     1  UNL1        0.0180
     36  O         16.9590  -23.1210   -3.5680 O.2     1  UNL1       -0.3560
     37  C         17.9370  -22.1620   -3.1860 C.3     1  UNL1        0.2100
@<TRIPOS>BOND
     1    27    26    1
     2    26    24    1
     3    23    24    2
     4    23    22    1
     5    24    25    1
     6    22    21    2
     7    25    20    2
     8    21    20    1
     9    20    19    1
    10    14    10    1
    11    12    11    2
    12    19    17    1
    13    18    17    1
    14    10    11   am
    15    10     9    1
    16    17    15   am
    17    11     2    1
    18     8     9    1
    19     8     7    2
    20     9     4    2
    21    15    16    2
    22    15     7    1
    23     7     6    1
    24     2     1    2
    25     2     3    1
    26     1    28    1
    27     4     3    1
    28     4     5    1
    29     3    13    1
    30     6     5    2
    31    29    28    2
    32    28    30    1
    33    30    31    2
    34    30    35    1
    35    31    32    1
    36    35    34    2
    37    32    33    2
    38    34    33    1
    39    33    36    1
    40    36    37    1
