@<TRIPOS>MOLECULE
52132_out_ligand_01.pdbqt
 32 34 0 0 0
SMALL
GASTEIGER

@<TRIPOS>ATOM
      1  C         19.3020  -22.0300  -10.5540 C.2     1  UNL1        0.0330
      2  C         18.5620  -21.2490  -11.4530 C.2     1  UNL1        0.0170
      3  C         17.1790  -21.1220  -11.2970 C.2     1  UNL1        0.0030
      4  C         16.5350  -21.7610  -10.2370 C.2     1  UNL1        0.0250
      5  C         17.2820  -22.5170   -9.3270 C.2     1  UNL1        0.0800
      6  C         18.6620  -22.6670   -9.4870 C.2     1  UNL1        0.0420
      7  C         20.7790  -22.1590  -10.6760 C.2     1  UNL1        0.2560
      8  N         21.2560  -22.1100  -11.9720 N.am    1  UNL1       -0.3230
      9  H         20.5680  -22.0890  -12.7140 H       1  UNL1        0.1690
     10  O         21.4260  -22.3140   -9.6480 O.2     1  UNL1       -0.2670
     11  C         22.6040  -22.1730  -12.3890 C.2     1  UNL1        0.0360
     12  C         23.5800  -22.9470  -11.7590 C.2     1  UNL1        0.0290
     13  C         24.8970  -22.9530  -12.2310 C.2     1  UNL1        0.0030
     14  C         25.2520  -22.1830  -13.3370 C.2     1  UNL1        0.0180
     15  C         24.2850  -21.4000  -13.9740 C.2     1  UNL1        0.0390
     16  C         22.9650  -21.3990  -13.4980 C.2     1  UNL1        0.0480
     17  C         24.6020  -20.5590  -15.1510 C.2     1  UNL1        0.1760
     18  O         24.4200  -20.8700  -16.3140 O.2     1  UNL1       -0.6460
     19  O         25.1310  -19.3690  -14.8180 O.3     1  UNL1       -0.7730
     20  H         24.8760  -19.2480  -13.8790 H       1  UNL1        0.1670
     21  S         16.4600  -23.3420   -7.9870 S.O2    1  UNL1        0.2630
     22  O         15.8080  -24.5250   -8.5020 O.2     1  UNL1       -0.2000
     23  O         15.7130  -22.3380   -7.2590 O.2     1  UNL1       -0.2000
     24  N         17.7450  -23.7820   -6.9760 N.pl3   1  UNL1       -0.2810
     25  H         18.5360  -24.1010   -7.5350 H       1  UNL1        0.1790
     26  C         18.0330  -22.9400   -5.8650 C.2     1  UNL1        0.0450
     27  C         17.5930  -23.3050   -4.5910 C.2     1  UNL1        0.0300
     28  C         17.8240  -22.4600   -3.5030 C.2     1  UNL1        0.0050
     29  C         18.4970  -21.2540   -3.6930 C.2     1  UNL1        0.0420
     30  C         18.9270  -20.9030   -4.9700 C.2     1  UNL1        0.1180
     31  F         19.5710  -19.7420   -5.1490 F       1  UNL1       -0.2060
     32  C         18.6980  -21.7330   -6.0610 C.2     1  UNL1        0.0720
@<TRIPOS>BOND
     1    18    17    2
     2    17    19    1
     3    17    15    1
     4    19    20    1
     5    15    16    1
     6    15    14    2
     7    16    11    2
     8    14    13    1
     9     9     8    1
    10    11     8    1
    11    11    12    1
    12    13    12    2
    13     8     7   am
    14     2     3    1
    15     2     1    2
    16     3     4    2
    17     7     1    1
    18     7    10    2
    19     1     6    1
    20     4     5    1
    21     6     5    2
    22     5    21    1
    23    22    21    2
    24    21    23    2
    25    21    24    1
    26    25    24    1
    27    24    26    1
    28    32    26    2
    29    32    30    1
    30    26    27    1
    31    31    30    1
    32    30    29    2
    33    27    28    2
    34    29    28    1
