@<TRIPOS>MOLECULE
5214_out_ligand_01.pdbqt
 29 32 0 0 0
SMALL
GASTEIGER

@<TRIPOS>ATOM
      1  N         22.4450  -23.1890  -10.0830 N.3     1  UNL1        0.0940
      2  C         21.2750  -22.7480  -10.8730 C.3     1  UNL1        0.2800
      3  C         21.4330  -21.5050  -11.7610 C.3     1  UNL1        0.1090
      4  C         22.5960  -21.5710  -12.6830 C.2     1  UNL1        0.1080
      5  N         22.5360  -21.4300  -13.9920 N.2     1  UNL1       -0.2280
      6  C         23.8290  -21.5420  -14.4670 C.2     1  UNL1        0.1410
      7  C         24.6850  -21.7260  -13.3970 C.2     1  UNL1        0.1290
      8  N         23.8920  -21.7360  -12.2740 N.pl3   1  UNL1       -0.3410
      9  C         24.4040  -21.9180  -10.9320 C.3     1  UNL1        0.1600
     10  C         23.3970  -22.1190   -9.7860 C.3     1  UNL1        0.2930
     11  C         22.0590  -23.9590   -8.8900 C.3     1  UNL1        0.3160
     12  C         20.7550  -23.5110   -8.2850 C.2     1  UNL1        0.0390
     13  C         19.5850  -24.1390   -8.5030 C.2     1  UNL1        0.0280
     14  C         18.3480  -23.6600   -7.8870 C.2     1  UNL1       -0.0090
     15  C         17.1340  -24.3240   -8.0700 C.2     1  UNL1        0.0140
     16  C         18.3900  -22.5160   -7.0830 C.2     1  UNL1        0.0450
     17  C         15.9740  -23.8410   -7.4570 C.2     1  UNL1        0.0070
     18  C         16.0120  -22.6860   -6.6650 C.2     1  UNL1       -0.0600
     19  C         14.7700  -22.1950   -5.9800 C.3     1  UNL1        0.0480
     20  C         17.2340  -22.0300   -6.4710 C.2     1  UNL1        0.0370
     21  N         19.6080  -21.8550   -6.8970 N.am    1  UNL1       -0.3220
     22  C         20.7910  -22.2620   -7.4600 C.2     1  UNL1        0.2540
     23  H         19.6560  -21.0180   -6.3350 H       1  UNL1        0.1690
     24  O         21.8180  -21.6070   -7.3010 O.2     1  UNL1       -0.2680
     25  C         24.1630  -21.4680  -15.8930 C.2     1  UNL1        0.2690
     26  N         24.4960  -20.2250  -16.3670 N.am    1  UNL1       -0.3650
     27  H         24.8760  -20.2060  -17.3040 H       1  UNL1        0.1590
     28  H         24.7320  -19.4720  -15.7380 H       1  UNL1        0.1590
     29  O         24.1850  -22.4300  -16.6550 O.2     1  UNL1       -0.2660
@<TRIPOS>BOND
     1    27    26    1
     2    29    25    2
     3    26    25   am
     4    26    28    1
     5    25     6    1
     6     6     5    1
     7     6     7    2
     8     5     4    2
     9     7     8    1
    10     4     8    1
    11     4     3    1
    12     8     9    1
    13     3     2    1
    14     9    10    1
    15     2     1    1
    16     1    10    1
    17     1    11    1
    18    11    12    1
    19    13    12    2
    20    13    14    1
    21    12    22    1
    22    15    14    2
    23    15    17    1
    24    14    16    1
    25    22    24    2
    26    22    21   am
    27    17    18    2
    28    16    21    1
    29    16    20    2
    30    21    23    1
    31    18    20    1
    32    18    19    1
