@<TRIPOS>MOLECULE
52143_out_ligand_01.pdbqt
 34 37 0 0 0
SMALL
GASTEIGER

@<TRIPOS>ATOM
      1  N         18.2910  -22.1860  -10.3880 N.am    1  UNL1       -0.3570
      2  C         18.9950  -21.3610  -11.2400 C.2     1  UNL1        0.2510
      3  O         18.4830  -20.4340  -11.8570 O.2     1  UNL1       -0.2680
      4  H         18.6930  -23.0780  -10.1350 H       1  UNL1        0.1620
      5  C         20.4340  -21.6860  -11.4330 C.2     1  UNL1        0.0340
      6  C         21.0990  -22.3920  -10.4320 C.2     1  UNL1        0.0190
      7  C         22.4540  -22.7140  -10.5740 C.2     1  UNL1        0.0330
      8  C         23.1910  -22.3380  -11.7100 C.2     1  UNL1        0.0580
      9  C         22.4830  -21.6550  -12.7220 C.2     1  UNL1        0.0620
     10  N         24.5360  -22.6790  -11.8740 N.pl3   1  UNL1       -0.3650
     11  C         21.1250  -21.3320  -12.5940 C.2     1  UNL1        0.0490
     12  N         23.1190  -21.3060  -13.9150 N.am    1  UNL1       -0.3230
     13  C         24.4430  -21.5440  -14.1520 C.2     1  UNL1        0.2450
     14  H         22.5980  -20.9230  -14.6910 H       1  UNL1        0.1690
     15  O         24.9170  -21.2890  -15.2600 O.2     1  UNL1       -0.2710
     16  C         25.2920  -22.0220  -12.9650 C.3     1  UNL1        0.1770
     17  C         26.3830  -22.9750  -13.4820 C.3     1  UNL1        0.0350
     18  C         27.0800  -23.7750  -12.3800 C.3     1  UNL1        0.0040
     19  C         26.8150  -23.1850  -11.0040 C.3     1  UNL1        0.0200
     20  C         25.3150  -23.1280  -10.7110 C.3     1  UNL1        0.1240
     21  C         16.8520  -22.0550  -10.2400 C.3     1  UNL1        0.1270
     22  C         16.1870  -23.3090   -9.6590 C.3     1  UNL1        0.0580
     23  C         16.2700  -23.3700   -8.1500 C.2     1  UNL1       -0.0570
     24  C         17.0840  -24.3240   -7.5200 C.2     1  UNL1        0.0090
     25  C         17.1380  -24.3980   -6.1270 C.2     1  UNL1        0.0250
     26  C         16.3780  -23.5100   -5.3620 C.2     1  UNL1        0.0740
     27  C         15.5530  -22.5630   -5.9740 C.2     1  UNL1        0.0250
     28  C         15.5050  -22.4930   -7.3660 C.2     1  UNL1        0.0090
     29  S         16.4290  -23.5980   -3.5930 S.O2    1  UNL1        0.2390
     30  O         15.5840  -24.6880   -3.1680 O.2     1  UNL1       -0.2060
     31  O         17.8020  -23.4670   -3.1660 O.2     1  UNL1       -0.2060
     32  N         15.6790  -22.1540   -3.1610 N.3     1  UNL1       -0.2250
     33  H         16.2700  -21.3740   -3.4550 H       1  UNL1        0.1360
     34  H         14.7300  -22.0690   -3.5240 H       1  UNL1        0.1360
@<TRIPOS>BOND
     1    15    13    2
     2    14    12    1
     3    13    12   am
     4    13    16    1
     5    12     9    1
     6    17    16    1
     7    17    18    1
     8    16    10    1
     9     9    11    1
    10     9     8    2
    11    11     5    2
    12    18    19    1
    13    10     8    1
    14    10    20    1
    15     3     2    2
    16     8     7    1
    17     5     2    1
    18     5     6    1
    19     2     1   am
    20    19    20    1
    21     7     6    2
    22     1    21    1
    23     1     4    1
    24    21    22    1
    25    22    23    1
    26    23    24    2
    27    23    28    1
    28    24    25    1
    29    28    27    2
    30    25    26    2
    31    27    26    1
    32    26    29    1
    33    29    30    2
    34    29    31    2
    35    29    32    1
    36    34    32    1
    37    33    32    1
