@<TRIPOS>MOLECULE
52156_out_ligand_01.pdbqt
 39 42 0 0 0
SMALL
GASTEIGER

@<TRIPOS>ATOM
      1  C         19.1020  -22.1290  -10.7480 C.2     1  UNL1        0.0320
      2  C         19.5070  -21.2420  -11.7510 C.2     1  UNL1        0.0190
      3  C         20.8460  -21.1980  -12.1540 C.2     1  UNL1        0.0300
      4  C         21.8000  -22.0310  -11.5550 C.2     1  UNL1        0.0360
      5  C         21.3920  -22.9110  -10.5510 C.2     1  UNL1        0.0300
      6  C         20.0530  -22.9560  -10.1410 C.2     1  UNL1        0.0190
      7  C         17.6680  -22.1370  -10.3440 C.2     1  UNL1        0.2510
      8  N         17.1830  -23.3230   -9.8240 N.am    1  UNL1       -0.3570
      9  H         17.7110  -24.1650  -10.0120 H       1  UNL1        0.1620
     10  O         16.9750  -21.1380  -10.5110 O.2     1  UNL1       -0.2680
     11  C         15.7650  -23.4630   -9.5510 C.3     1  UNL1        0.1240
     12  C         15.5200  -24.1900   -8.2360 C.3     1  UNL1        0.0390
     13  C         15.7040  -23.3170   -6.9830 C.3     1  UNL1        0.1190
     14  N         15.8980  -23.9920   -5.6950 N.3     1  UNL1       -0.4050
     15  C         14.9300  -23.5970   -4.6570 C.3     1  UNL1        0.0710
     16  C         14.4840  -22.1300   -4.6040 C.3     1  UNL1        0.0310
     17  C         15.5150  -23.9920   -3.2930 C.3     1  UNL1        0.0310
     18  C         17.3070  -24.1730   -5.3320 C.3     1  UNL1        0.1560
     19  C         18.1670  -22.9360   -5.5040 C.2     1  UNL1       -0.0410
     20  C         18.1670  -21.9120   -4.5450 C.2     1  UNL1        0.0090
     21  C         18.9870  -20.7930   -4.6980 C.2     1  UNL1        0.0010
     22  C         19.8290  -20.6910   -5.8030 C.2     1  UNL1        0.0000
     23  C         19.8550  -21.7090   -6.7550 C.2     1  UNL1        0.0010
     24  C         19.0330  -22.8290   -6.6040 C.2     1  UNL1        0.0090
     25  N         23.1250  -21.9260  -12.0210 N.am    1  UNL1       -0.3090
     26  C         24.2520  -21.5460  -11.3170 C.2     1  UNL1        0.3270
     27  O         24.2350  -21.1170  -10.1650 O.2     1  UNL1       -0.2460
     28  N         25.4420  -21.5970  -12.0670 N.am    1  UNL1       -0.2990
     29  C         26.5810  -20.8350  -11.5670 C.3     1  UNL1        0.1340
     30  C         25.6630  -22.3860  -13.2400 C.2     1  UNL1        0.0450
     31  C         26.6130  -19.4350  -12.1650 C.3     1  UNL1        0.0210
     32  C         26.4050  -19.4240  -13.6790 C.3     1  UNL1        0.0060
     33  C         27.1210  -20.5650  -14.4000 C.3     1  UNL1        0.0410
     34  C         26.4710  -21.9360  -14.3080 C.2     1  UNL1       -0.0310
     35  C         26.7060  -22.8090  -15.3920 C.2     1  UNL1        0.0090
     36  C         26.1420  -24.0840  -15.4370 C.2     1  UNL1        0.0010
     37  C         25.3430  -24.5210  -14.3900 C.2     1  UNL1        0.0020
     38  C         25.1140  -23.6820  -13.3000 C.2     1  UNL1        0.0300
     39  H         23.2560  -22.0010  -13.0210 H       1  UNL1        0.1700
@<TRIPOS>BOND
     1    36    35    2
     2    36    37    1
     3    35    34    1
     4    33    34    1
     5    33    32    1
     6    37    38    2
     7    34    30    2
     8    32    31    1
     9    38    30    1
    10    30    28    1
    11    39    25    1
    12    31    29    1
    13     3     2    1
    14     3     4    2
    15    28    29    1
    16    28    26   am
    17    25     4    1
    18    25    26   am
    19     2     1    2
    20     4     5    1
    21    26    27    2
    22     1     7    1
    23     1     6    1
    24     5     6    2
    25    10     7    2
    26     7     8   am
    27     9     8    1
    28     8    11    1
    29    11    12    1
    30    12    13    1
    31    13    14    1
    32    23    24    1
    33    23    22    2
    34    24    19    2
    35    22    21    1
    36    14    18    1
    37    14    15    1
    38    19    18    1
    39    19    20    1
    40    21    20    2
    41    15    16    1
    42    15    17    1
