@<TRIPOS>MOLECULE
52178_out_ligand_01.pdbqt
 34 37 0 0 0
SMALL
GASTEIGER

@<TRIPOS>ATOM
      1  C         22.0510  -22.9420   -8.9760 C.2     1  UNL1        0.0320
      2  C         21.6310  -24.2500   -9.2400 C.2     1  UNL1        0.0200
      3  C         20.4390  -24.7240   -8.6850 C.2     1  UNL1        0.0380
      4  C         19.6590  -23.9030   -7.8630 C.2     1  UNL1        0.0780
      5  C         20.0910  -22.6050   -7.5810 C.2     1  UNL1        0.0380
      6  C         21.2840  -22.1280   -8.1340 C.2     1  UNL1        0.0200
      7  C         23.3200  -22.3930   -9.5330 C.2     1  UNL1        0.2510
      8  N         24.1710  -23.3010  -10.1190 N.am    1  UNL1       -0.3530
      9  H         23.8240  -24.2160  -10.3720 H       1  UNL1        0.1630
     10  O         23.5520  -21.1910   -9.4790 O.2     1  UNL1       -0.2680
     11  C         25.3880  -22.8590  -10.7590 C.3     1  UNL1        0.1610
     12  C         25.1830  -22.7290  -12.2440 C.2     1  UNL1       -0.0400
     13  C         24.6900  -21.5500  -12.8020 C.2     1  UNL1        0.0110
     14  C         24.4700  -21.4550  -14.1830 C.2     1  UNL1        0.0300
     15  C         24.7320  -22.5230  -15.0580 C.2     1  UNL1        0.0290
     16  C         25.2030  -23.7080  -14.4710 C.2     1  UNL1        0.0300
     17  C         25.4300  -23.8130  -13.0910 C.2     1  UNL1        0.0110
     18  N         24.4850  -22.3950  -16.4360 N.pl3   1  UNL1       -0.3900
     19  C         25.4200  -21.5240  -17.1550 C.3     1  UNL1        0.1490
     20  C         24.0580  -23.5770  -17.1820 C.3     1  UNL1        0.1490
     21  O         18.5070  -24.4890   -7.3860 O.2     1  UNL1       -0.2900
     22  C         17.5530  -23.6640   -6.8340 C.2     1  UNL1        0.2060
     23  N         17.7780  -23.2710   -5.5530 N.2     1  UNL1       -0.2330
     24  C         16.8070  -22.5070   -5.0070 C.2     1  UNL1        0.1380
     25  C         15.6620  -22.1560   -5.7010 C.2     1  UNL1        0.1370
     26  N         15.4280  -22.5530   -6.9730 N.2     1  UNL1       -0.2480
     27  C         16.3910  -23.3300   -7.5400 C.2     1  UNL1        0.1510
     28  S         16.0720  -23.8570   -9.2120 S.3     1  UNL1       -0.0660
     29  C         17.0310  -22.6570  -10.1160 C.2     1  UNL1        0.0070
     30  C         18.2810  -22.9890  -10.6500 C.2     1  UNL1        0.0190
     31  C         19.0190  -22.0390  -11.3580 C.2     1  UNL1        0.0010
     32  C         18.5090  -20.7550  -11.5410 C.2     1  UNL1        0.0000
     33  C         17.2600  -20.4210  -11.0220 C.2     1  UNL1        0.0010
     34  C         16.5200  -21.3700  -10.3150 C.2     1  UNL1        0.0190
@<TRIPOS>BOND
     1    20    18    1
     2    19    18    1
     3    18    15    1
     4    15    16    2
     5    15    14    1
     6    16    17    1
     7    14    13    2
     8    17    12    2
     9    13    12    1
    10    12    11    1
    11    32    31    2
    12    32    33    1
    13    31    30    1
    14    33    34    2
    15    11     8    1
    16    30    29    2
    17     9     8    1
    18    34    29    1
    19     8     7   am
    20    29    28    1
    21     7    10    2
    22     7     1    1
    23     2     1    2
    24     2     3    1
    25    28    27    1
    26     1     6    1
    27     3     4    2
    28     6     5    2
    29     4     5    1
    30     4    21    1
    31    27    26    2
    32    27    22    1
    33    21    22    1
    34    26    25    1
    35    22    23    2
    36    25    24    2
    37    23    24    1
