@<TRIPOS>MOLECULE
52181_out_ligand_01.pdbqt
 33 37 0 0 0
SMALL
GASTEIGER

@<TRIPOS>ATOM
      1  C         17.5520  -22.5860   -8.2350 C.2     1  UNL1        0.0880
      2  C         16.6050  -22.0360   -9.2550 C.2     1  UNL1        0.0380
      3  C         17.0960  -21.7270  -10.4630 C.2     1  UNL1        0.0570
      4  C         18.4640  -21.9290  -10.7220 C.ar    1  UNL1        0.1750
      5  N         19.1990  -21.7570  -11.8000 N.ar    1  UNL1       -0.1280
      6  N         20.4910  -22.1200  -11.4920 N.ar    1  UNL1       -0.1200
      7  C         20.5090  -22.4920  -10.2290 C.ar    1  UNL1        0.2130
      8  N         19.2460  -22.4090   -9.6870 N.ar    1  UNL1       -0.1870
      9  N         18.8290  -22.7450   -8.4240 N.2     1  UNL1       -0.1630
     10  S         21.8940  -23.0290   -9.3440 S.3     1  UNL1       -0.0790
     11  C         22.9370  -21.5440   -9.3800 C.3     1  UNL1        0.1850
     12  C         23.8980  -21.5720  -10.5600 C.2     1  UNL1        0.2310
     13  O         24.9960  -21.0250  -10.4860 O.2     1  UNL1       -0.2720
     14  N         23.4020  -22.2610  -11.6540 N.am    1  UNL1       -0.3260
     15  H         22.4150  -22.5180  -11.6150 H       1  UNL1        0.1690
     16  C         24.0520  -22.5280  -12.8750 C.2     1  UNL1        0.0370
     17  C         24.9030  -23.6430  -12.9060 C.2     1  UNL1        0.0320
     18  C         25.6020  -23.9760  -14.0720 C.2     1  UNL1        0.0420
     19  C         25.4650  -23.1850  -15.2090 C.2     1  UNL1        0.1020
     20  C         24.6060  -22.0810  -15.1900 C.2     1  UNL1        0.1040
     21  O         26.2020  -23.5500  -16.3080 O.2     1  UNL1       -0.3460
     22  C         23.9110  -21.7470  -14.0250 C.2     1  UNL1        0.0690
     23  O         24.4070  -21.2710  -16.2820 O.2     1  UNL1       -0.3460
     24  C         24.8770  -21.8880  -17.4860 C.3     1  UNL1        0.2020
     25  C         26.2580  -22.4900  -17.2710 C.3     1  UNL1        0.2020
     26  C         16.9670  -22.9490   -6.9090 C.2     1  UNL1       -0.0030
     27  C         15.7440  -23.6270   -6.8100 C.2     1  UNL1        0.0140
     28  C         15.2370  -23.9650   -5.5560 C.2     1  UNL1        0.0040
     29  C         15.9550  -23.6350   -4.4050 C.2     1  UNL1        0.0370
     30  C         17.1850  -22.9750   -4.4940 C.2     1  UNL1        0.0690
     31  C         17.6930  -22.6340   -5.7490 C.2     1  UNL1        0.0500
     32  O         17.7860  -22.7290   -3.2890 O.2     1  UNL1       -0.3560
     33  C         18.4840  -21.4970   -3.1530 C.3     1  UNL1        0.2100
@<TRIPOS>BOND
     1    24    25    1
     2    24    23    1
     3    25    21    1
     4    21    19    1
     5    23    20    1
     6    19    20    2
     7    19    18    1
     8    20    22    1
     9    18    17    2
    10    22    16    2
    11    17    16    1
    12    16    14    1
    13     5     6   ar
    14     5     4   ar
    15    14    15    1
    16    14    12   am
    17     6     7   ar
    18     4     3    1
    19     4     8   ar
    20    12    13    2
    21    12    11    1
    22     3     2    2
    23     7     8   ar
    24     7    10    1
    25     8     9    1
    26    11    10    1
    27     2     1    1
    28     9     1    2
    29     1    26    1
    30    26    27    2
    31    26    31    1
    32    27    28    1
    33    31    30    2
    34    28    29    2
    35    30    29    1
    36    30    32    1
    37    32    33    1
