@<TRIPOS>MOLECULE
52194_out_ligand_01.pdbqt
 35 38 0 0 0
SMALL
GASTEIGER

@<TRIPOS>ATOM
      1  C         19.9840  -22.6040   -8.9840 C.2     1  UNL1        0.0340
      2  C         21.1470  -22.5590   -8.2050 C.2     1  UNL1        0.0180
      3  C         22.3770  -22.2630   -8.8020 C.2     1  UNL1        0.0170
      4  C         22.4610  -21.9960  -10.1760 C.ar    1  UNL1        0.0260
      5  C         23.7370  -21.6790  -10.8460 C.ar    1  UNL1        0.1050
      6  C         23.7550  -21.4220  -12.1710 C.ar    1  UNL1        0.1650
      7  C         22.5090  -21.4450  -12.9670 C.ar    1  UNL1        0.2700
      8  O         22.4830  -21.1900  -14.1650 O.2     1  UNL1       -0.2660
      9  N         21.3500  -21.7520  -12.3060 N.ar    1  UNL1       -0.3210
     10  C         21.2850  -22.0280  -10.9380 C.ar    1  UNL1        0.0490
     11  C         20.0530  -22.3230  -10.3540 C.2     1  UNL1        0.0470
     12  H         20.5070  -21.7610  -12.8690 H       1  UNL1        0.1690
     13  C         18.6500  -22.9050   -8.3920 C.2     1  UNL1        0.2560
     14  O         17.7980  -23.3980   -9.1200 O.2     1  UNL1       -0.2670
     15  N         18.5300  -22.6230   -7.0440 N.am    1  UNL1       -0.3230
     16  H         19.3690  -22.3490   -6.5510 H       1  UNL1        0.1690
     17  C         17.3740  -22.7620   -6.2440 C.2     1  UNL1        0.0370
     18  C         17.5060  -23.4920   -5.0520 C.2     1  UNL1        0.0290
     19  C         16.4140  -23.6710   -4.1960 C.2     1  UNL1        0.0050
     20  C         15.1800  -23.1200   -4.5260 C.2     1  UNL1        0.0420
     21  C         15.0520  -22.3950   -5.7040 C.2     1  UNL1        0.1180
     22  F         13.8640  -21.8610   -6.0160 F       1  UNL1       -0.2060
     23  C         16.1330  -22.2110   -6.5630 C.2     1  UNL1        0.0710
     24  O         24.8330  -21.6810  -10.0010 O.3     1  UNL1       -0.3580
     25  H         25.4670  -20.9660  -10.2400 H       1  UNL1        0.2170
     26  S         25.2340  -21.0750  -12.9850 S.O2    1  UNL1        0.2150
     27  O         24.9430  -20.2720  -14.1690 O.2     1  UNL1       -0.2170
     28  O         26.2290  -20.5910  -12.0480 O.2     1  UNL1       -0.2170
     29  C         25.7770  -22.6550  -13.6100 C.2     1  UNL1        0.0640
     30  C         26.7110  -23.3950  -12.8760 C.2     1  UNL1        0.0250
     31  C         27.1210  -24.6440  -13.3490 C.2     1  UNL1        0.0250
     32  C         26.5880  -25.1470  -14.5380 C.2     1  UNL1        0.0340
     33 CL         27.0970  -26.6850  -15.1150 Cl      1  UNL1       -0.0840
     34  C         25.6450  -24.4140  -15.2590 C.2     1  UNL1        0.0250
     35  C         25.2300  -23.1640  -14.7910 C.2     1  UNL1        0.0250
@<TRIPOS>BOND
     1    34    35    1
     2    34    32    2
     3    33    32    1
     4    35    29    2
     5    32    31    1
     6    27    26    2
     7     8     7    2
     8    29    26    1
     9    29    30    1
    10    31    30    2
    11    26     6    1
    12    26    28    2
    13     7     9   ar
    14     7     6   ar
    15    12     9    1
    16     9    10   ar
    17     6     5   ar
    18    10    11    1
    19    10     4   ar
    20     5     4   ar
    21     5    24    1
    22    11     1    2
    23    25    24    1
    24     4     3    1
    25    14    13    2
    26     1    13    1
    27     1     2    1
    28     3     2    2
    29    13    15   am
    30    15    16    1
    31    15    17    1
    32    23    17    2
    33    23    21    1
    34    17    18    1
    35    22    21    1
    36    21    20    2
    37    18    19    2
    38    20    19    1
