@<TRIPOS>MOLECULE
52206_out_ligand_01.pdbqt
 31 34 0 0 0
SMALL
GASTEIGER

@<TRIPOS>ATOM
      1  C         22.4160  -23.2180   -8.9090 C.2     1  UNL1       -0.0400
      2  C         21.4330  -24.2060   -9.1290 C.2     1  UNL1        0.0110
      3  C         20.1900  -24.1440   -8.4890 C.2     1  UNL1        0.0310
      4  C         19.9380  -23.0880   -7.6340 C.2     1  UNL1        0.0430
      5  C         20.9040  -22.1070   -7.4110 C.2     1  UNL1       -0.0290
      6  C         22.1410  -22.1540   -8.0390 C.2     1  UNL1        0.0180
      7  C         20.4280  -21.0870   -6.4280 C.2     1  UNL1        0.0610
      8  C         18.9910  -21.5460   -6.1550 C.2     1  UNL1        0.1370
      9  N         18.7780  -22.8070   -6.8870 N.am    1  UNL1       -0.3130
     10  C         17.6540  -23.6140   -6.8210 C.2     1  UNL1        0.2580
     11  O         17.5020  -24.7060   -7.3600 O.2     1  UNL1       -0.2670
     12  C         23.7380  -23.2990   -9.6280 C.3     1  UNL1        0.1620
     13  N         23.5400  -23.2890  -11.0600 N.am    1  UNL1       -0.3390
     14  C         24.4980  -22.7010  -11.8630 C.2     1  UNL1        0.3200
     15  N         24.1070  -22.7410  -13.1840 N.am    1  UNL1       -0.3090
     16  O         25.5350  -22.2370  -11.4110 O.2     1  UNL1       -0.2470
     17  H         23.3440  -23.3680  -13.3830 H       1  UNL1        0.1700
     18  H         22.5880  -23.1640  -11.3680 H       1  UNL1        0.1640
     19  C         24.7670  -22.1770  -14.2930 C.2     1  UNL1        0.0360
     20  C         24.7440  -20.8180  -14.6030 C.2     1  UNL1        0.0300
     21  C         25.4170  -20.3340  -15.7310 C.2     1  UNL1        0.0090
     22  C         26.1280  -21.2040  -16.5640 C.2     1  UNL1       -0.0620
     23  C         26.8210  -20.6850  -17.7890 C.3     1  UNL1        0.0480
     24  C         26.1350  -22.5690  -16.2660 C.2     1  UNL1        0.0090
     25  C         25.4620  -23.0510  -15.1380 C.2     1  UNL1        0.0300
     26  C         16.5290  -23.1200   -5.9990 C.2     1  UNL1        0.0320
     27  C         16.5410  -23.3590   -4.6220 C.2     1  UNL1        0.0170
     28  C         15.4820  -22.9030   -3.8380 C.2     1  UNL1        0.0010
     29  C         14.4150  -22.2240   -4.4310 C.2     1  UNL1        0.0000
     30  C         14.3990  -22.0060   -5.8110 C.2     1  UNL1        0.0010
     31  C         15.4550  -22.4590   -6.6010 C.2     1  UNL1        0.0170
@<TRIPOS>BOND
     1    23    22    1
     2    22    24    2
     3    22    21    1
     4    24    25    1
     5    21    20    2
     6    25    19    2
     7    20    19    1
     8    19    15    1
     9    17    15    1
    10    15    14   am
    11    14    16    2
    12    14    13   am
    13    18    13    1
    14    13    12    1
    15    12     1    1
    16     2     1    2
    17     2     3    1
    18     1     6    1
    19     3     4    2
    20     6     5    2
    21     4     5    1
    22     4     9    1
    23     5     7    1
    24    11    10    2
    25     9    10   am
    26     9     8    1
    27    10    26    1
    28    31    26    2
    29    31    30    1
    30     7     8    2
    31    26    27    1
    32    30    29    2
    33    27    28    2
    34    29    28    1
