@<TRIPOS>MOLECULE
52202_out_ligand_01.pdbqt
 31 35 0 0 0
SMALL
GASTEIGER

@<TRIPOS>ATOM
      1  C         19.0170  -22.7320  -10.2230 C.2     1  UNL1        0.1730
      2  N         18.2740  -23.1440   -9.2630 N.2     1  UNL1       -0.2350
      3  C         18.9750  -23.7710   -8.1270 C.3     1  UNL1        0.2450
      4  N         20.3850  -24.1060   -8.2580 N.pl3   1  UNL1       -0.3570
      5  C         21.0660  -23.5480   -9.2780 C.ar    1  UNL1        0.0870
      6  S         22.7550  -23.6110   -9.4500 S.2     1  UNL1       -0.0740
      7  C         22.6840  -22.7530  -10.9190 C.ar    1  UNL1        0.0200
      8  C         21.3920  -22.3900  -11.2590 C.ar    1  UNL1       -0.0240
      9  C         20.4470  -22.8620  -10.2950 C.ar    1  UNL1        0.0570
     10  C         21.1360  -21.6230  -12.5180 C.3     1  UNL1        0.0710
     11  C         22.4450  -21.0230  -13.0850 C.3     1  UNL1        0.2780
     12  N         23.5550  -22.0010  -13.0970 N.3     1  UNL1        0.0970
     13  C         23.9110  -22.4080  -11.7130 C.3     1  UNL1        0.3190
     14  H         20.8700  -24.3170   -7.3930 H       1  UNL1        0.1620
     15  C         18.7430  -23.0200   -6.8220 C.2     1  UNL1        0.0190
     16  C         19.3540  -21.7620   -6.6410 C.2     1  UNL1        0.0140
     17  C         19.1580  -21.0260   -5.4710 C.2     1  UNL1        0.0010
     18  C         18.3440  -21.5290   -4.4610 C.2     1  UNL1        0.0030
     19  C         17.7240  -22.7670   -4.6200 C.2     1  UNL1        0.0370
     20  C         17.9230  -23.5030   -5.7920 C.2     1  UNL1        0.0750
     21  O         17.3030  -24.7130   -5.9270 O.2     1  UNL1       -0.3600
     22  H         17.6130  -25.3080   -5.2260 H       1  UNL1        0.2170
     23  O         18.4060  -22.1330  -11.2620 O.2     1  UNL1       -0.3440
     24  H         18.7190  -21.2140  -11.2610 H       1  UNL1        0.2190
     25  C         24.7210  -21.4420  -13.7990 C.3     1  UNL1        0.3110
     26  C         24.7310  -21.7230  -15.2870 C.2     1  UNL1       -0.0300
     27  C         24.9500  -20.6870  -16.2090 C.2     1  UNL1        0.0090
     28  C         24.9770  -20.9470  -17.5790 C.2     1  UNL1        0.0010
     29  C         24.7950  -22.2480  -18.0440 C.2     1  UNL1        0.0000
     30  C         24.5860  -23.2870  -17.1400 C.2     1  UNL1        0.0010
     31  C         24.5550  -23.0280  -15.7680 C.2     1  UNL1        0.0090
@<TRIPOS>BOND
     1    29    28    2
     2    29    30    1
     3    28    27    1
     4    30    31    2
     5    27    26    2
     6    31    26    1
     7    26    25    1
     8    25    12    1
     9    12    11    1
    10    12    13    1
    11    11    10    1
    12    10     8    1
    13    13     7    1
    14    23    24    1
    15    23     1    1
    16     8     7   ar
    17     8     9   ar
    18     7     6   ar
    19     9     1    1
    20     9     5   ar
    21     1     2    2
    22     6     5   ar
    23     5     4    1
    24     2     3    1
    25     4     3    1
    26     4    14    1
    27     3    15    1
    28    15    16    2
    29    15    20    1
    30    16    17    1
    31    21    20    1
    32    21    22    1
    33    20    19    2
    34    17    18    2
    35    19    18    1
