@<TRIPOS>MOLECULE
52204_out_ligand_01.pdbqt
 35 38 0 0 0
SMALL
GASTEIGER

@<TRIPOS>ATOM
      1  C         20.8610  -21.8090  -11.4130 C.2     1  UNL1       -0.0380
      2  C         19.8980  -21.3780  -12.3500 C.2     1  UNL1        0.0090
      3  C         18.5460  -21.3110  -12.0120 C.2     1  UNL1        0.0100
      4  C         18.1690  -21.6770  -10.7260 C.2     1  UNL1       -0.0290
      5  C         19.1060  -22.0990   -9.7840 C.2     1  UNL1        0.0440
      6  C         20.4520  -22.1630  -10.1140 C.2     1  UNL1        0.0390
      7  N         18.4750  -22.3770   -8.5480 N.am    1  UNL1       -0.3090
      8  C         19.1420  -22.7530   -7.3870 C.2     1  UNL1        0.2580
      9  O         20.3380  -23.0300   -7.2990 O.2     1  UNL1       -0.2670
     10  C         17.0030  -22.2780   -8.7560 C.3     1  UNL1        0.0930
     11  C         16.3400  -23.6600   -8.7380 C.3     1  UNL1        0.0330
     12  C         16.8000  -21.5970  -10.1300 C.3     1  UNL1        0.0660
     13  C         22.3260  -21.8460  -11.7750 C.3     1  UNL1        0.1630
     14  N         22.5540  -21.4470  -13.1520 N.am    1  UNL1       -0.3390
     15  C         23.8180  -21.4820  -13.7040 C.2     1  UNL1        0.3210
     16  N         23.7940  -21.0280  -15.0020 N.am    1  UNL1       -0.3080
     17  O         24.7930  -21.8850  -13.0800 O.2     1  UNL1       -0.2470
     18  H         22.8710  -20.8530  -15.3820 H       1  UNL1        0.1700
     19  H         21.8960  -20.7840  -13.5340 H       1  UNL1        0.1640
     20  C         24.8660  -20.8690  -15.9130 C.2     1  UNL1        0.0520
     21  C         25.6200  -19.6860  -15.9480 C.2     1  UNL1        0.0300
     22  C         26.6830  -19.5270  -16.8430 C.2     1  UNL1        0.0020
     23  C         27.0140  -20.5480  -17.7210 C.2     1  UNL1        0.0010
     24  C         26.2770  -21.7300  -17.7070 C.2     1  UNL1        0.0200
     25  C         25.1990  -21.9070  -16.8150 C.2     1  UNL1        0.0660
     26  C         24.5030  -23.2280  -16.9210 C.2     1  UNL1        0.2950
     27  O         23.3310  -23.3400  -17.2580 O.2     1  UNL1       -0.2590
     28  O         25.3100  -24.2670  -16.5830 O.3     1  UNL1       -0.3220
     29  C         25.2790  -24.5950  -15.1910 C.3     1  UNL1        0.2130
     30  C         18.3700  -22.8050   -6.1250 C.2     1  UNL1        0.0320
     31  C         17.7820  -24.0120   -5.7340 C.2     1  UNL1        0.0170
     32  C         17.0850  -24.0820   -4.5260 C.2     1  UNL1        0.0010
     33  C         16.9960  -22.9540   -3.7050 C.2     1  UNL1        0.0000
     34  C         17.6080  -21.7570   -4.0820 C.2     1  UNL1        0.0010
     35  C         18.3040  -21.6830   -5.2910 C.2     1  UNL1        0.0170
@<TRIPOS>BOND
     1    23    24    2
     2    23    22    1
     3    24    25    1
     4    27    26    2
     5    26    25    1
     6    26    28    1
     7    22    21    2
     8    25    20    2
     9    28    29    1
    10    21    20    1
    11    20    16    1
    12    18    16    1
    13    16    15   am
    14    15    14   am
    15    15    17    2
    16    19    14    1
    17    14    13    1
    18     2     3    1
    19     2     1    2
    20     3     4    2
    21    13     1    1
    22     1     6    1
    23     4    12    1
    24     4     5    1
    25    12    10    1
    26     6     5    2
    27     5     7    1
    28    10    11    1
    29    10     7    1
    30     7     8   am
    31     8     9    2
    32     8    30    1
    33    30    31    2
    34    30    35    1
    35    31    32    1
    36    35    34    2
    37    32    33    2
    38    34    33    1
