@<TRIPOS>MOLECULE
52210_out_ligand_01.pdbqt
 31 34 0 0 0
SMALL
GASTEIGER

@<TRIPOS>ATOM
      1  C         15.7360  -23.2870   -9.8670 C.3     1  UNL1        0.0330
      2  C         16.6630  -22.1460   -9.4340 C.3     1  UNL1        0.0930
      3  C         17.0750  -21.2910  -10.6530 C.3     1  UNL1        0.0660
      4  C         18.5040  -21.6850  -10.8410 C.2     1  UNL1       -0.0290
      5  C         19.3450  -21.3100  -11.8760 C.2     1  UNL1        0.0100
      6  C         20.6770  -21.7230  -11.8290 C.2     1  UNL1        0.0090
      7  C         21.1600  -22.4990  -10.7550 C.2     1  UNL1       -0.0380
      8  C         20.2880  -22.8580   -9.7140 C.2     1  UNL1        0.0390
      9  C         18.9650  -22.4500   -9.7710 C.2     1  UNL1        0.0440
     10  N         17.9260  -22.6680   -8.8410 N.am    1  UNL1       -0.3090
     11  C         18.0720  -23.3510   -7.6400 C.2     1  UNL1        0.2580
     12  O         19.0540  -24.0000   -7.2910 O.2     1  UNL1       -0.2670
     13  C         22.6050  -22.9360  -10.7190 C.3     1  UNL1        0.1620
     14  N         23.2620  -22.6820  -11.9830 N.am    1  UNL1       -0.3390
     15  C         24.3450  -21.8450  -12.0600 C.2     1  UNL1        0.3160
     16  O         24.8900  -21.3270  -11.0950 O.2     1  UNL1       -0.2470
     17  N         24.7350  -21.6620  -13.3640 N.am    1  UNL1       -0.3390
     18  H         24.4980  -22.4230  -13.9820 H       1  UNL1        0.1640
     19  H         22.6670  -22.7010  -12.7950 H       1  UNL1        0.1640
     20  C         25.9410  -20.9070  -13.6850 C.3     1  UNL1        0.0860
     21  C         25.5520  -19.5390  -14.2740 C.3     1  UNL1        0.0250
     22  C         26.6600  -18.9700  -15.1480 C.3     1  UNL1        0.0020
     23  C         26.9530  -19.8740  -16.3470 C.3     1  UNL1        0.0000
     24  C         26.6580  -21.3510  -16.0830 C.3     1  UNL1        0.0020
     25  C         26.8700  -21.7150  -14.6140 C.3     1  UNL1        0.0250
     26  C         16.9550  -23.2850   -6.6680 C.2     1  UNL1        0.0320
     27  C         16.0070  -24.3140   -6.6430 C.2     1  UNL1        0.0170
     28  C         14.9700  -24.2740   -5.7090 C.2     1  UNL1        0.0010
     29  C         14.8910  -23.2180   -4.7960 C.2     1  UNL1        0.0000
     30  C         15.8580  -22.2090   -4.8000 C.2     1  UNL1        0.0010
     31  C         16.9000  -22.2460   -5.7290 C.2     1  UNL1        0.0170
@<TRIPOS>BOND
     1    23    24    1
     2    23    22    1
     3    24    25    1
     4    22    21    1
     5    25    20    1
     6    21    20    1
     7    18    17    1
     8    20    17    1
     9    17    15   am
    10    19    14    1
    11    15    14   am
    12    15    16    2
    13    14    13    1
    14     5     6    1
    15     5     4    2
    16     6     7    2
    17     4     3    1
    18     4     9    1
    19     7    13    1
    20     7     8    1
    21     3     2    1
    22     1     2    1
    23     9     8    2
    24     9    10    1
    25     2    10    1
    26    10    11   am
    27    11    12    2
    28    11    26    1
    29    26    27    2
    30    26    31    1
    31    27    28    1
    32    31    30    2
    33    28    29    2
    34    30    29    1
