@<TRIPOS>MOLECULE
52226_out_ligand_01.pdbqt
 33 36 0 0 0
SMALL
GASTEIGER

@<TRIPOS>ATOM
      1  C         20.0840  -21.9610  -10.6040 C.2     1  UNL1       -0.0330
      2  C         19.7260  -20.7350  -11.1730 C.2     1  UNL1        0.0110
      3  C         18.3820  -20.4350  -11.3910 C.2     1  UNL1        0.0040
      4  C         17.3980  -21.3650  -11.0510 C.2     1  UNL1        0.0370
      5  C         17.7420  -22.5960  -10.4850 C.2     1  UNL1        0.0690
      6  C         19.0890  -22.8880  -10.2560 C.2     1  UNL1        0.0480
      7  C         21.4940  -22.3130  -10.4200 C.3     1  UNL1        0.0320
      8  C         22.4990  -22.2320  -11.3160 C.ar    1  UNL1        0.0820
      9  C         22.3750  -21.7350  -12.7270 C.ar    1  UNL1        0.1620
     10  C         23.8690  -22.6770  -10.8350 C.ar    1  UNL1        0.2830
     11  N         23.5360  -21.7710  -13.4720 N.ar    1  UNL1       -0.1890
     12  N         21.2620  -21.2910  -13.2310 N.pl3   1  UNL1       -0.2810
     13  N         23.5910  -21.3450  -14.7910 N.ar    1  UNL1       -0.1610
     14  C         24.7080  -22.2280  -12.9230 C.ar    1  UNL1        0.2010
     15  C         24.8080  -21.4980  -15.2200 C.ar    1  UNL1        0.0990
     16  S         25.9920  -22.1560  -14.1040 S.2     1  UNL1       -0.0330
     17  N         24.9190  -22.6560  -11.7310 N.ar    1  UNL1       -0.1820
     18  H         21.4670  -21.0190  -14.2040 H       1  UNL1        0.1880
     19  O         24.0350  -23.0440   -9.6760 O.2     1  UNL1       -0.2650
     20  C         25.2510  -21.1140  -16.6000 C.3     1  UNL1        0.0640
     21  C         24.8870  -22.2000  -17.5930 C.3     1  UNL1        0.0120
     22  O         16.6770  -23.4090  -10.2140 O.2     1  UNL1       -0.3490
     23  C         15.8940  -23.1710   -9.0410 C.3     1  UNL1        0.2020
     24  C         15.9270  -24.3480   -8.0640 C.3     1  UNL1        0.2020
     25  O         17.2410  -24.4630   -7.5090 O.2     1  UNL1       -0.3490
     26  C         17.5820  -23.5290   -6.5660 C.2     1  UNL1        0.0690
     27  C         18.6290  -22.6100   -6.6790 C.2     1  UNL1        0.0430
     28  C         18.8900  -21.7000   -5.6420 C.2     1  UNL1       -0.0590
     29  C         20.0050  -20.7010   -5.7640 C.3     1  UNL1        0.0480
     30  C         18.0700  -21.7010   -4.5030 C.2     1  UNL1        0.0130
     31  C         16.9980  -22.5970   -4.3910 C.2     1  UNL1       -0.0590
     32  C         16.1420  -22.6150   -3.1530 C.3     1  UNL1        0.0480
     33  C         16.7690  -23.5150   -5.4250 C.2     1  UNL1        0.0430
@<TRIPOS>BOND
     1    21    20    1
     2    20    15    1
     3    15    13   ar
     4    15    16   ar
     5    13    11   ar
     6    18    12    1
     7    16    14   ar
     8    11    14   ar
     9    11     9   ar
    10    12     9    1
    11    14    17   ar
    12     9     8   ar
    13    17    10   ar
    14     3     2    1
    15     3     4    2
    16     8    10   ar
    17     8     7    1
    18     2     1    2
    19     4     5    1
    20    10    19    2
    21     1     7    1
    22     1     6    1
    23     5     6    2
    24     5    22    1
    25    22    23    1
    26    23    24    1
    27    24    25    1
    28    25    26    1
    29    27    26    2
    30    27    28    1
    31    26    33    1
    32    29    28    1
    33    28    30    2
    34    33    31    2
    35    30    31    1
    36    31    32    1
