@<TRIPOS>MOLECULE
52237_out_ligand_01.pdbqt
 37 41 0 0 0
SMALL
GASTEIGER

@<TRIPOS>ATOM
      1  C         17.0160  -21.4810  -10.0300 C.3     1  UNL1        0.1210
      2  C         18.3110  -21.4780  -10.8090 C.2     1  UNL1       -0.0480
      3  C         18.8300  -20.3070  -11.3770 C.2     1  UNL1        0.0090
      4  C         20.0300  -20.3290  -12.0860 C.2     1  UNL1        0.0170
      5  C         20.7460  -21.5180  -12.1960 C.2     1  UNL1        0.0320
      6  C         20.2580  -22.6900  -11.6210 C.2     1  UNL1        0.0170
      7  C         19.0440  -22.6660  -10.9390 C.2     1  UNL1        0.0090
      8  C         22.0290  -21.5370  -12.9320 C.2     1  UNL1        0.2510
      9  N         22.9560  -22.4210  -12.4290 N.am    1  UNL1       -0.3530
     10  H         22.7780  -22.8550  -11.5320 H       1  UNL1        0.1630
     11  O         22.2110  -20.8050  -13.8960 O.2     1  UNL1       -0.2680
     12  C         24.2900  -22.5230  -12.9740 C.3     1  UNL1        0.1620
     13  C         25.1560  -21.3630  -12.5390 C.2     1  UNL1       -0.0350
     14  C         25.4530  -21.2320  -11.1700 C.2     1  UNL1        0.0090
     15  C         26.2450  -20.1830  -10.7060 C.2     1  UNL1        0.0010
     16  C         26.7650  -19.2540  -11.6060 C.2     1  UNL1        0.0010
     17  C         26.4960  -19.3780  -12.9690 C.2     1  UNL1        0.0070
     18  C         25.6990  -20.4300  -13.4540 C.2     1  UNL1       -0.0540
     19  C         25.4320  -20.5100  -14.9310 C.3     1  UNL1        0.0490
     20  S         16.3700  -23.1220   -9.6090 S.3     1  UNL1       -0.0870
     21  C         16.4020  -23.0480   -7.8760 C.ar    1  UNL1        0.1700
     22  N         15.5050  -22.4150   -7.1570 N.ar    1  UNL1       -0.2220
     23  C         15.8750  -22.6270   -5.8550 C.ar    1  UNL1        0.0890
     24  C         15.2660  -22.1870   -4.6780 C.2     1  UNL1        0.0530
     25  C         17.0180  -23.4170   -5.7870 C.ar    1  UNL1        0.0830
     26  C         15.8540  -22.6100   -3.4980 C.2     1  UNL1        0.1180
     27  N         16.9470  -23.4080   -3.4250 N.2     1  UNL1       -0.2710
     28  C         17.5520  -23.8140   -4.5660 C.2     1  UNL1        0.1480
     29  N         17.3690  -23.6420   -7.1030 N.ar    1  UNL1       -0.3180
     30  C         18.4750  -24.4790   -7.5440 C.3     1  UNL1        0.1730
     31  C         19.7370  -23.7040   -7.8020 C.2     1  UNL1       -0.0010
     32  C         19.9030  -22.3970   -7.3080 C.2     1  UNL1        0.0120
     33  C         21.0810  -21.6820   -7.5540 C.2     1  UNL1        0.0010
     34  C         22.1140  -22.2640   -8.2850 C.2     1  UNL1        0.0030
     35  C         21.9710  -23.5630   -8.7760 C.2     1  UNL1        0.0430
     36  C         20.7890  -24.2660   -8.5380 C.2     1  UNL1        0.1240
     37  F         20.6640  -25.4950   -9.0590 F       1  UNL1       -0.2050
@<TRIPOS>BOND
     1    19    18    1
     2    11     8    2
     3    18    17    1
     4    18    13    2
     5    12    13    1
     6    12     9    1
     7    17    16    2
     8     8     9   am
     9     8     5    1
    10    13    14    1
    11     9    10    1
    12     5     4    2
    13     5     6    1
    14     4     3    1
    15     6     7    2
    16    16    15    1
    17     3     2    2
    18    14    15    2
    19     7     2    1
    20     2     1    1
    21     1    20    1
    22    20    21    1
    23    37    36    1
    24    35    36    1
    25    35    34    2
    26    36    31    2
    27    34    33    1
    28    21    22   ar
    29    21    29   ar
    30    31    30    1
    31    31    32    1
    32    33    32    2
    33    30    29    1
    34    22    23   ar
    35    29    25   ar
    36    23    25   ar
    37    23    24    1
    38    25    28    1
    39    24    26    2
    40    28    27    2
    41    26    27    1
