@<TRIPOS>MOLECULE
52231_out_ligand_01.pdbqt
 32 35 0 0 0
SMALL
GASTEIGER

@<TRIPOS>ATOM
      1  C         15.6890  -23.5090   -9.7200 C.3     1  UNL1        0.0330
      2  C         16.5830  -22.3460   -9.2760 C.3     1  UNL1        0.0930
      3  C         17.1110  -21.5680  -10.5020 C.3     1  UNL1        0.0660
      4  C         18.5340  -22.0220  -10.5660 C.2     1  UNL1       -0.0290
      5  C         19.4540  -21.7520  -11.5640 C.2     1  UNL1        0.0100
      6  C         20.7620  -22.2060  -11.4000 C.2     1  UNL1        0.0090
      7  C         21.1450  -22.9140  -10.2420 C.2     1  UNL1       -0.0380
      8  C         20.1950  -23.1660   -9.2370 C.2     1  UNL1        0.0390
      9  C         18.8960  -22.7200   -9.4120 C.2     1  UNL1        0.0440
     10  N         17.7860  -22.8380   -8.5460 N.am    1  UNL1       -0.3090
     11  C         17.8250  -23.4230   -7.2870 C.2     1  UNL1        0.2580
     12  O         18.7710  -24.0470   -6.8080 O.2     1  UNL1       -0.2670
     13  C         22.5610  -23.4180  -10.0940 C.3     1  UNL1        0.1630
     14  N         23.3460  -23.1040  -11.2700 N.am    1  UNL1       -0.3390
     15  C         24.1420  -21.9770  -11.3050 C.2     1  UNL1        0.3200
     16  O         24.3050  -21.2570  -10.3300 O.2     1  UNL1       -0.2470
     17  N         24.7010  -21.8090  -12.5540 N.am    1  UNL1       -0.3090
     18  H         24.5940  -22.5900  -13.1860 H       1  UNL1        0.1700
     19  H         22.9410  -23.3980  -12.1440 H       1  UNL1        0.1640
     20  C         25.5040  -20.7390  -13.0010 C.2     1  UNL1        0.0370
     21  C         26.3580  -20.0050  -12.1700 C.2     1  UNL1        0.0290
     22  C         27.1200  -18.9480  -12.6820 C.2     1  UNL1        0.0040
     23  C         27.0310  -18.6130  -14.0310 C.2     1  UNL1        0.0240
     24  C         26.1810  -19.3400  -14.8640 C.2     1  UNL1        0.0360
     25 CL         26.0660  -18.9300  -16.5330 Cl      1  UNL1       -0.0840
     26  C         25.4190  -20.3970  -14.3570 C.2     1  UNL1        0.0530
     27  C         16.6290  -23.2870   -6.4250 C.2     1  UNL1        0.0320
     28  C         16.5330  -22.2360   -5.5070 C.2     1  UNL1        0.0170
     29  C         15.4040  -22.1310   -4.6920 C.2     1  UNL1        0.0010
     30  C         14.3830  -23.0790   -4.7870 C.2     1  UNL1        0.0000
     31  C         14.4980  -24.1480   -5.6790 C.2     1  UNL1        0.0010
     32  C         15.6250  -24.2590   -6.4950 C.2     1  UNL1        0.0170
@<TRIPOS>BOND
     1    25    24    1
     2    24    26    1
     3    24    23    2
     4    26    20    2
     5    23    22    1
     6    18    17    1
     7    20    17    1
     8    20    21    1
     9    22    21    2
    10    17    15   am
    11    19    14    1
    12     5     6    1
    13     5     4    2
    14     6     7    2
    15    15    14   am
    16    15    16    2
    17    14    13    1
    18     4     3    1
    19     4     9    1
    20     3     2    1
    21     7    13    1
    22     7     8    1
    23     1     2    1
    24     9     8    2
    25     9    10    1
    26     2    10    1
    27    10    11   am
    28    11    12    2
    29    11    27    1
    30    32    27    2
    31    32    31    1
    32    27    28    1
    33    31    30    2
    34    28    29    2
    35    30    29    1
