@<TRIPOS>MOLECULE
52262_out_ligand_01.pdbqt
 32 35 0 0 0
SMALL
GASTEIGER

@<TRIPOS>ATOM
      1  O         24.6110  -23.2630  -10.4880 O.2     1  UNL1       -0.2920
      2  C         23.9820  -22.7530  -11.4130 C.2     1  UNL1        0.1620
      3  C         24.6360  -22.4900  -12.7500 C.3     1  UNL1        0.0950
      4  C         24.0620  -21.2250  -13.3830 C.3     1  UNL1        0.0560
      5  C         22.5390  -21.3410  -13.5320 C.3     1  UNL1        0.0690
      6  C         21.8810  -21.8060  -12.2600 C.2     1  UNL1        0.0270
      7  N         20.5330  -21.5460  -12.1300 N.am    1  UNL1       -0.3250
      8  C         19.7750  -21.8870  -11.0330 C.2     1  UNL1        0.2610
      9  O         18.5740  -21.6260  -10.9830 O.2     1  UNL1       -0.2670
     10  C         20.4830  -22.5800   -9.9170 C.2     1  UNL1        0.1010
     11  C         21.8000  -22.8230  -10.0660 C.2     1  UNL1        0.0400
     12  C         22.5260  -22.4340  -11.2620 C.2     1  UNL1        0.0340
     13  H         20.0290  -21.0770  -12.8760 H       1  UNL1        0.1690
     14  C         19.8120  -23.0180   -8.6480 C.2     1  UNL1        0.2610
     15  O         19.9230  -24.1790   -8.2650 O.2     1  UNL1       -0.2670
     16  N         19.1020  -22.0260   -8.0040 N.am    1  UNL1       -0.3230
     17  H         19.1000  -21.1060   -8.4480 H       1  UNL1        0.1690
     18  C         18.3700  -22.1190   -6.8030 C.2     1  UNL1        0.0350
     19  C         18.9420  -21.5350   -5.6660 C.2     1  UNL1        0.0290
     20  C         18.2870  -21.5770   -4.4350 C.2     1  UNL1        0.0030
     21  C         17.0500  -22.2090   -4.3250 C.2     1  UNL1        0.0160
     22  C         16.4600  -22.8060   -5.4480 C.2     1  UNL1        0.0500
     23  C         17.1310  -22.7510   -6.6860 C.2     1  UNL1        0.0450
     24  C         15.1160  -23.4840   -5.3540 C.3     1  UNL1        0.4170
     25  F         14.0700  -22.6100   -5.3770 F       1  UNL1       -0.1660
     26  F         14.9660  -24.2070   -4.2100 F       1  UNL1       -0.1660
     27  F         14.8960  -24.3500   -6.3800 F       1  UNL1       -0.1660
     28  C         24.7120  -20.9350  -14.6940 C.2     1  UNL1        0.0570
     29  C         25.8240  -20.2040  -15.0540 C.2     1  UNL1        0.0350
     30  C         25.9320  -20.3110  -16.4620 C.2     1  UNL1        0.0270
     31  C         24.8820  -21.1000  -16.8680 C.2     1  UNL1        0.1420
     32  O         24.1350  -21.4830  -15.8020 O.2     1  UNL1       -0.3270
@<TRIPOS>BOND
     1    31    30    2
     2    31    32    1
     3    30    29    1
     4    32    28    1
     5    29    28    2
     6    28     4    1
     7     5     4    1
     8     5     6    1
     9     4     3    1
    10    13     7    1
    11     3     2    1
    12     6     7    1
    13     6    12    2
    14     7     8   am
    15     2    12    1
    16     2     1    2
    17    12    11    1
    18     8     9    2
    19     8    10    1
    20    11    10    2
    21    10    14    1
    22    14    15    2
    23    14    16   am
    24    17    16    1
    25    16    18    1
    26    18    23    2
    27    18    19    1
    28    23    22    1
    29    27    24    1
    30    19    20    2
    31    22    24    1
    32    22    21    2
    33    25    24    1
    34    24    26    1
    35    20    21    1
