@<TRIPOS>MOLECULE
52274_out_ligand_01.pdbqt
 33 36 0 0 0
SMALL
GASTEIGER

@<TRIPOS>ATOM
      1  C         15.7840  -23.7410   -9.4840 C.3     1  UNL1        0.0330
      2  C         16.4570  -22.4000   -9.1780 C.3     1  UNL1        0.0930
      3  C         16.7220  -21.6140  -10.4810 C.3     1  UNL1        0.0660
      4  C         18.1950  -21.7960  -10.6540 C.2     1  UNL1       -0.0290
      5  C         18.9630  -21.4240  -11.7460 C.2     1  UNL1        0.0100
      6  C         20.3460  -21.6200  -11.6850 C.2     1  UNL1        0.0090
      7  C         20.9500  -22.1920  -10.5450 C.2     1  UNL1       -0.0380
      8  C         20.1460  -22.5370   -9.4420 C.2     1  UNL1        0.0390
      9  C         18.7760  -22.3380   -9.5090 C.2     1  UNL1        0.0440
     10  N         17.7870  -22.5950   -8.5350 N.am    1  UNL1       -0.3090
     11  C         18.0460  -23.0360   -7.2440 C.2     1  UNL1        0.2580
     12  O         19.1460  -23.3370   -6.7860 O.2     1  UNL1       -0.2670
     13  C         22.4480  -22.3850  -10.4500 C.3     1  UNL1        0.1630
     14  N         23.1870  -21.6680  -11.4690 N.am    1  UNL1       -0.3390
     15  C         23.8690  -22.3510  -12.4560 C.2     1  UNL1        0.3200
     16  O         23.9550  -23.5700  -12.4890 O.2     1  UNL1       -0.2470
     17  N         24.4390  -21.4650  -13.3490 N.am    1  UNL1       -0.3090
     18  H         24.4810  -20.5080  -13.0320 H       1  UNL1        0.1700
     19  H         22.8510  -20.7500  -11.7050 H       1  UNL1        0.1640
     20  C         25.1290  -21.7720  -14.5390 C.2     1  UNL1        0.0380
     21  C         26.5020  -21.5770  -14.7120 C.2     1  UNL1        0.0320
     22  C         27.1200  -21.9160  -15.9210 C.2     1  UNL1        0.0460
     23  C         26.3660  -22.4550  -16.9560 C.2     1  UNL1        0.1380
     24  F         26.9780  -22.7730  -18.1070 F       1  UNL1       -0.2040
     25  C         25.0000  -22.6600  -16.7960 C.2     1  UNL1        0.0740
     26 CL         24.0560  -23.3330  -18.0700 Cl      1  UNL1       -0.0810
     27  C         24.3800  -22.3230  -15.5900 C.2     1  UNL1        0.0560
     28  C         16.9060  -23.1330   -6.3070 C.2     1  UNL1        0.0320
     29  C         16.6820  -22.0930   -5.4000 C.2     1  UNL1        0.0170
     30  C         15.5920  -22.1590   -4.5310 C.2     1  UNL1        0.0010
     31  C         14.7240  -23.2510   -4.5830 C.2     1  UNL1        0.0000
     32  C         14.9290  -24.2710   -5.5150 C.2     1  UNL1        0.0010
     33  C         16.0150  -24.2090   -6.3880 C.2     1  UNL1        0.0170
@<TRIPOS>BOND
     1    24    23    1
     2    26    25    1
     3    23    25    2
     4    23    22    1
     5    25    27    1
     6    22    21    2
     7    27    20    2
     8    21    20    1
     9    20    17    1
    10    17    18    1
    11    17    15   am
    12    16    15    2
    13    15    14   am
    14     5     6    1
    15     5     4    2
    16    19    14    1
    17     6     7    2
    18    14    13    1
    19     4     3    1
    20     4     9    1
    21     7    13    1
    22     7     8    1
    23     3     2    1
    24     9     8    2
    25     9    10    1
    26     1     2    1
    27     2    10    1
    28    10    11   am
    29    11    12    2
    30    11    28    1
    31    33    28    2
    32    33    32    1
    33    28    29    1
    34    32    31    2
    35    29    30    2
    36    31    30    1
