@<TRIPOS>MOLECULE
52271_out_ligand_01.pdbqt
 31 34 0 0 0
SMALL
GASTEIGER

@<TRIPOS>ATOM
      1  N         21.3620  -23.2870   -9.7030 N.ar    1  UNL1       -0.2080
      2  N         20.5570  -23.6380   -8.6290 N.ar    1  UNL1       -0.1440
      3  C         19.3790  -23.2420   -9.0130 C.ar    1  UNL1        0.2120
      4  C         18.0630  -23.3400   -8.3010 C.2     1  UNL1        0.2190
      5  N         16.9500  -22.8870   -8.8090 N.2     1  UNL1       -0.2320
      6  C         17.0340  -22.3060  -10.0610 C.2     1  UNL1        0.1370
      7  C         18.1670  -22.1780  -10.7700 C.2     1  UNL1        0.1230
      8  N         19.3240  -22.6490  -10.2290 N.ar    1  UNL1       -0.2510
      9  C         20.6060  -22.6520  -10.7010 C.ar    1  UNL1        0.3510
     10  O         21.0350  -22.2300  -11.7630 O.2     1  UNL1       -0.2440
     11  C         22.8000  -23.4400   -9.6960 C.3     1  UNL1        0.2590
     12  C         23.5240  -22.1720  -10.1520 C.2     1  UNL1        0.2420
     13  N         24.1760  -22.3000  -11.3680 N.am    1  UNL1       -0.3230
     14  H         24.0760  -23.1840  -11.8700 H       1  UNL1        0.1690
     15  O         23.4090  -21.1280   -9.5140 O.2     1  UNL1       -0.2710
     16  C         24.9390  -21.3240  -12.0470 C.2     1  UNL1        0.0730
     17  C         26.0350  -20.6570  -11.4980 C.2     1  UNL1        0.0330
     18  C         26.7360  -19.7080  -12.2560 C.2     1  UNL1        0.0090
     19  C         26.3620  -19.4180  -13.5740 C.2     1  UNL1       -0.0590
     20  C         27.1210  -18.3930  -14.3630 C.3     1  UNL1        0.0480
     21  C         25.2620  -20.0810  -14.1230 C.2     1  UNL1        0.0510
     22  C         24.5700  -21.0220  -13.3630 C.2     1  UNL1        0.1430
     23  F         23.5250  -21.6560  -13.9190 F       1  UNL1       -0.2040
     24  O         18.2230  -23.9520   -7.0840 O.2     1  UNL1       -0.2890
     25  C         18.2830  -23.0740   -5.9990 C.2     1  UNL1        0.0810
     26  C         17.6850  -23.4490   -4.7950 C.2     1  UNL1        0.0370
     27  C         17.7000  -22.5620   -3.7180 C.2     1  UNL1        0.0060
     28  C         18.2990  -21.3090   -3.8600 C.2     1  UNL1        0.0420
     29  C         18.8730  -20.9500   -5.0780 C.2     1  UNL1        0.1190
     30  F         19.4370  -19.7420   -5.2080 F       1  UNL1       -0.2060
     31  C         18.8670  -21.8200   -6.1600 C.2     1  UNL1        0.0790
@<TRIPOS>BOND
     1    20    19    1
     2    21    19    2
     3    21    22    1
     4    23    22    1
     5    19    18    1
     6    22    16    2
     7    18    17    2
     8    16    17    1
     9    16    13    1
    10    14    13    1
    11    10     9    2
    12    13    12   am
    13     7     8    1
    14     7     6    2
    15     9     8   ar
    16     9     1   ar
    17     8     3   ar
    18    12    11    1
    19    12    15    2
    20     6     5    1
    21     1    11    1
    22     1     2   ar
    23     3     2   ar
    24     3     4    1
    25     5     4    2
    26     4    24    1
    27    24    25    1
    28    31    25    2
    29    31    29    1
    30    25    26    1
    31    30    29    1
    32    29    28    2
    33    26    27    2
    34    28    27    1
