@<TRIPOS>MOLECULE
52289_out_ligand_01.pdbqt
 36 40 0 0 0
SMALL
GASTEIGER

@<TRIPOS>ATOM
      1  C         25.4710  -21.4930  -11.2040 C.ar    1  UNL1        0.1960
      2  N         24.9820  -20.9720  -10.1020 N.ar    1  UNL1       -0.1220
      3  N         23.6300  -21.1680  -10.1150 N.ar    1  UNL1       -0.1320
      4  C         23.3110  -21.8180  -11.2220 C.ar    1  UNL1        0.1540
      5  N         24.4600  -22.0370  -11.9730 N.ar    1  UNL1       -0.2740
      6  C         21.9640  -22.3870  -11.5270 C.3     1  UNL1        0.1460
      7  C         21.2130  -21.5470  -12.5630 C.3     1  UNL1        0.0300
      8  C         19.7610  -21.8030  -12.2050 C.3     1  UNL1        0.0180
      9  C         19.7780  -21.7800  -10.6830 C.3     1  UNL1        0.1080
     10  N         21.1150  -22.2940  -10.3080 N.3     1  UNL1       -0.1950
     11  S         21.2040  -23.6070   -9.2530 S.O2    1  UNL1        0.2440
     12  O         20.6180  -24.7420   -9.9350 O.2     1  UNL1       -0.2060
     13  O         22.5440  -23.6740   -8.7110 O.2     1  UNL1       -0.2060
     14  C         20.1260  -23.0980   -7.9440 C.2     1  UNL1        0.0750
     15  C         20.4030  -21.9460   -7.2090 C.2     1  UNL1        0.0260
     16  C         19.5440  -21.5760   -6.1730 C.2     1  UNL1        0.0140
     17  C         18.4110  -22.3500   -5.8660 C.2     1  UNL1       -0.0260
     18  C         17.5420  -21.9910   -4.8240 C.2     1  UNL1        0.0120
     19  C         18.1380  -23.5170   -6.6200 C.2     1  UNL1       -0.0250
     20  C         16.4210  -22.7700   -4.5300 C.2     1  UNL1        0.0010
     21  C         16.1550  -23.9170   -5.2720 C.2     1  UNL1        0.0010
     22  C         17.0080  -24.2890   -6.3120 C.2     1  UNL1        0.0120
     23  C         19.0030  -23.8810   -7.6610 C.2     1  UNL1        0.0370
     24  C         24.5570  -22.6520  -13.2440 C.2     1  UNL1        0.0430
     25  C         24.2000  -21.9370  -14.3950 C.2     1  UNL1        0.0300
     26  C         24.3130  -22.5410  -15.6480 C.2     1  UNL1        0.0020
     27  C         24.7770  -23.8520  -15.7540 C.2     1  UNL1        0.0000
     28  C         25.1350  -24.5620  -14.6090 C.2     1  UNL1        0.0020
     29  C         25.0300  -23.9650  -13.3510 C.2     1  UNL1        0.0300
     30  S         27.1210  -21.2510  -11.6910 S.3     1  UNL1       -0.0810
     31  C         27.1080  -19.4870  -12.1350 C.3     1  UNL1        0.1850
     32  C         27.0780  -19.2590  -13.6360 C.2     1  UNL1        0.2260
     33  N         27.0270  -17.9320  -14.0180 N.am    1  UNL1       -0.3650
     34  C         26.8290  -17.5900  -15.4040 C.3     1  UNL1        0.1490
     35  H         26.6220  -17.2970  -13.3370 H       1  UNL1        0.1610
     36  O         27.1190  -20.1960  -14.4310 O.2     1  UNL1       -0.2730
@<TRIPOS>BOND
     1    27    26    2
     2    27    28    1
     3    26    25    1
     4    34    33    1
     5    28    29    2
     6    36    32    2
     7    25    24    2
     8    33    32   am
     9    33    35    1
    10    32    31    1
    11    29    24    1
    12    24     5    1
    13     7     8    1
    14     7     6    1
    15     8     9    1
    16    31    30    1
    17     5     4   ar
    18     5     1   ar
    19    30     1    1
    20     6     4    1
    21     6    10    1
    22     4     3   ar
    23     1     2   ar
    24     9    10    1
    25    10    11    1
    26     3     2   ar
    27    12    11    2
    28    11    13    2
    29    11    14    1
    30    14    23    2
    31    14    15    1
    32    23    19    1
    33    15    16    2
    34    19    22    1
    35    19    17    2
    36    22    21    2
    37    16    17    1
    38    17    18    1
    39    21    20    1
    40    18    20    2
