@<TRIPOS>MOLECULE
52282_out_ligand_01.pdbqt
 36 39 0 0 0
SMALL
GASTEIGER

@<TRIPOS>ATOM
      1  N         21.1000  -23.4460   -9.6470 N.pl3   1  UNL1       -0.3310
      2  C         22.4450  -23.2130   -9.8850 C.2     1  UNL1        0.1210
      3  C         22.9320  -22.3370  -10.7730 C.2     1  UNL1        0.1300
      4  C         21.9690  -21.5040  -11.5130 C.2     1  UNL1        0.2090
      5  O         22.3180  -20.6280  -12.2940 O.2     1  UNL1       -0.2860
      6  C         20.5260  -21.7570  -11.2860 C.2     1  UNL1        0.0620
      7  C         19.5700  -21.0220  -11.9830 C.2     1  UNL1        0.0210
      8  C         18.2250  -21.2730  -11.7550 C.2     1  UNL1        0.0280
      9  C         17.8770  -22.2650  -10.8490 C.2     1  UNL1        0.0330
     10  C         16.4320  -22.5590  -10.5610 C.3     1  UNL1        0.0700
     11  N         18.7970  -22.9760  -10.1520 N.2     1  UNL1       -0.2350
     12  C         20.1180  -22.7250  -10.3640 C.2     1  UNL1        0.1440
     13  C         20.6160  -24.3610   -8.6020 C.3     1  UNL1        0.2330
     14  C         19.6260  -23.6640   -7.6570 C.2     1  UNL1        0.2400
     15  N         18.4340  -24.3460   -7.5440 N.am    1  UNL1       -0.3260
     16  H         18.3190  -25.1250   -8.1940 H       1  UNL1        0.1690
     17  O         19.9230  -22.6210   -7.0840 O.2     1  UNL1       -0.2710
     18  C         17.3200  -24.0390   -6.7430 C.2     1  UNL1        0.0360
     19  C         16.0040  -24.3270   -7.0960 C.2     1  UNL1        0.0290
     20  C         14.9570  -23.9750   -6.2340 C.2     1  UNL1        0.0040
     21  C         15.2150  -23.3240   -5.0300 C.2     1  UNL1        0.0180
     22  C         16.5280  -23.0340   -4.6650 C.2     1  UNL1        0.0020
     23  C         17.5720  -23.3940   -5.5230 C.2     1  UNL1        0.0480
     24  S         16.9400  -22.1780   -3.1530 S.3     1  UNL1       -0.1340
     25  C         18.5100  -21.3880   -3.6210 C.3     1  UNL1        0.0950
     26  S         24.6320  -22.1800  -10.9880 S.O2    1  UNL1        0.2120
     27  O         25.3090  -23.2970  -10.3450 O.2     1  UNL1       -0.2170
     28  O         25.0450  -20.8270  -10.6610 O.2     1  UNL1       -0.2170
     29  C         24.8910  -22.4250  -12.7350 C.2     1  UNL1        0.0650
     30  C         25.0240  -21.3150  -13.5710 C.2     1  UNL1        0.0240
     31  C         25.2380  -21.5080  -14.9350 C.2     1  UNL1        0.0090
     32  C         25.3130  -22.8040  -15.4760 C.2     1  UNL1       -0.0560
     33  C         25.5880  -22.9720  -16.9450 C.3     1  UNL1        0.0490
     34  C         25.1460  -23.9220  -14.6320 C.2     1  UNL1       -0.0550
     35  C         25.2270  -25.3300  -15.1600 C.3     1  UNL1        0.0490
     36  C         24.9290  -23.7200  -13.2590 C.2     1  UNL1        0.0310
@<TRIPOS>BOND
     1    33    32    1
     2    32    31    2
     3    32    34    1
     4    35    34    1
     5    31    30    1
     6    34    36    2
     7    30    29    2
     8    36    29    1
     9    29    26    1
    10     5     4    2
    11     7     8    1
    12     7     6    2
    13     8     9    2
    14     4     6    1
    15     4     3    1
    16     6    12    1
    17    26     3    1
    18    26    28    2
    19    26    27    2
    20     9    10    1
    21     9    11    1
    22     3     2    2
    23    12    11    2
    24    12     1    1
    25     2     1    1
    26     1    13    1
    27    13    14    1
    28    16    15    1
    29    14    15   am
    30    14    17    2
    31    15    18    1
    32    19    18    2
    33    19    20    1
    34    18    23    1
    35    20    21    2
    36    23    22    2
    37    21    22    1
    38    22    24    1
    39    25    24    1
