@<TRIPOS>MOLECULE
52291_out_ligand_01.pdbqt
 31 35 0 0 0
SMALL
GASTEIGER

@<TRIPOS>ATOM
      1  N         23.1710  -22.1950  -11.6070 N.am    1  UNL1       -0.3210
      2  C         21.8090  -22.1510  -11.3350 C.2     1  UNL1        0.2790
      3  O         20.9370  -22.0870  -12.1970 O.2     1  UNL1       -0.2650
      4  H         23.7900  -22.2110  -10.8110 H       1  UNL1        0.1690
      5  C         21.4880  -22.1790   -9.9110 C.2     1  UNL1        0.1430
      6  C         22.2140  -21.9390   -8.7570 C.2     1  UNL1        0.0450
      7  C         21.3320  -22.1320   -7.6640 C.2     1  UNL1        0.0360
      8  C         20.1100  -22.4790   -8.1990 C.2     1  UNL1        0.0620
      9  O         20.2050  -22.5090   -9.5590 O.2     1  UNL1       -0.3090
     10  C         18.7640  -22.8190   -7.6220 C.3     1  UNL1        0.0100
     11  C         17.6170  -22.4580   -8.6040 C.3     1  UNL1        0.0210
     12  C         16.2480  -22.8120   -7.9990 C.3     1  UNL1       -0.0130
     13  C         16.0540  -22.0300   -6.6910 C.3     1  UNL1        0.0090
     14  C         16.1990  -24.3190   -7.7030 C.3     1  UNL1        0.0090
     15  C         17.1640  -22.3940   -5.6930 C.3     1  UNL1       -0.0130
     16  C         17.1150  -23.9030   -5.4060 C.3     1  UNL1        0.0090
     17  C         18.5320  -22.0380   -6.3020 C.3     1  UNL1        0.0210
     18  C         17.3100  -24.6950   -6.7100 C.3     1  UNL1       -0.0130
     19  C         18.6780  -24.3380   -7.3190 C.3     1  UNL1        0.0210
     20  C         23.8050  -22.1970  -12.8690 C.2     1  UNL1        0.0350
     21  C         23.6300  -21.2070  -13.8390 C.2     1  UNL1        0.0310
     22  C         24.2960  -21.2890  -15.0680 C.2     1  UNL1        0.0270
     23  C         25.1500  -22.3620  -15.3240 C.2     1  UNL1        0.0740
     24  C         25.3260  -23.3660  -14.3710 C.2     1  UNL1        0.0270
     25  C         24.6560  -23.2790  -13.1480 C.2     1  UNL1        0.0310
     26  S         25.9670  -22.4750  -16.8880 S.O2    1  UNL1        0.2390
     27  O         27.1210  -23.3340  -16.7610 O.2     1  UNL1       -0.2060
     28  O         26.0410  -21.1600  -17.4810 O.2     1  UNL1       -0.2060
     29  N         24.8480  -23.3270  -17.8040 N.3     1  UNL1       -0.2250
     30  H         25.1870  -24.2750  -17.9710 H       1  UNL1        0.1360
     31  H         24.6320  -22.8100  -18.6570 H       1  UNL1        0.1360
@<TRIPOS>BOND
     1    31    29    1
     2    30    29    1
     3    29    26    1
     4    28    26    2
     5    26    27    2
     6    26    23    1
     7    23    22    2
     8    23    24    1
     9    22    21    1
    10    24    25    2
    11    21    20    2
    12    25    20    1
    13    20     1    1
    14     3     2    2
    15     1     2   am
    16     1     4    1
    17     2     5    1
    18     5     9    1
    19     5     6    2
    20     9     8    1
    21     6     7    1
    22    11    12    1
    23    11    10    1
    24     8     7    2
    25     8    10    1
    26    12    14    1
    27    12    13    1
    28    14    18    1
    29    10    19    1
    30    10    17    1
    31    19    18    1
    32    18    16    1
    33    13    15    1
    34    17    15    1
    35    15    16    1
