@<TRIPOS>MOLECULE
52292_out_ligand_01.pdbqt
 34 38 0 0 0
SMALL
GASTEIGER

@<TRIPOS>ATOM
      1  C         21.6280  -22.2480  -10.0500 C.2     1  UNL1        0.0350
      2  C         22.7250  -21.7730   -9.3270 C.2     1  UNL1        0.0310
      3  C         23.9420  -21.5140   -9.9680 C.2     1  UNL1        0.0270
      4  C         24.0660  -21.7440  -11.3380 C.2     1  UNL1        0.0750
      5  C         22.9740  -22.2040  -12.0790 C.2     1  UNL1        0.0270
      6  C         21.7620  -22.4560  -11.4310 C.2     1  UNL1        0.0310
      7  N         20.3700  -22.5310   -9.4820 N.am    1  UNL1       -0.3230
      8  C         19.1330  -22.0480   -9.8690 C.2     1  UNL1        0.2590
      9  O         18.9230  -21.2640  -10.7890 O.2     1  UNL1       -0.2670
     10  H         20.3790  -23.1650   -8.6890 H       1  UNL1        0.1690
     11  C         17.9630  -22.5310   -9.0860 C.2     1  UNL1        0.0670
     12  C         16.8980  -23.1750   -9.7440 C.2     1  UNL1        0.0200
     13  C         15.7820  -23.6440   -9.0480 C.2     1  UNL1        0.0020
     14  C         15.6860  -23.4870   -7.6600 C.2     1  UNL1        0.0150
     15  C         16.7340  -22.8470   -6.9720 C.ar    1  UNL1        0.0120
     16  C         17.8340  -22.3910   -7.6990 C.ar    1  UNL1        0.1030
     17  C         16.9910  -22.5150   -5.6090 C.ar    1  UNL1        0.0110
     18  O         18.7360  -21.8040   -6.8550 O.2     1  UNL1       -0.3080
     19  C         18.2260  -21.8790   -5.5960 C.ar    1  UNL1        0.0870
     20  C         18.8440  -21.3940   -4.4460 C.2     1  UNL1        0.0380
     21  C         18.1540  -21.5700   -3.2440 C.2     1  UNL1        0.0030
     22  C         16.9090  -22.2040   -3.2120 C.2     1  UNL1        0.0010
     23  C         16.3120  -22.6820   -4.3870 C.2     1  UNL1        0.0150
     24  S         25.5940  -21.3920  -12.1700 S.O2    1  UNL1        0.2480
     25  O         26.3190  -22.6260  -12.3950 O.2     1  UNL1       -0.2050
     26  O         26.2200  -20.3110  -11.4320 O.2     1  UNL1       -0.2050
     27  N         25.1210  -20.7330  -13.6190 N.pl3   1  UNL1       -0.1480
     28  H         25.2930  -19.7380  -13.6870 H       1  UNL1        0.1490
     29  C         25.4590  -21.4260  -14.7740 C.cat   1  UNL1        0.2150
     30  N         24.5690  -22.2530  -15.3210 N.2     1  UNL1       -0.2300
     31  C         24.9100  -22.7690  -16.5150 C.2     1  UNL1        0.1210
     32  C         26.0720  -22.4450  -17.1750 C.2     1  UNL1        0.0390
     33  C         26.8840  -21.5360  -16.5360 C.2     1  UNL1        0.1210
     34  N         26.5900  -20.9900  -15.3400 N.2     1  UNL1       -0.2300
@<TRIPOS>BOND
     1    32    33    1
     2    32    31    2
     3    33    34    2
     4    31    30    1
     5    34    29    1
     6    30    29    2
     7    29    27    1
     8    28    27    1
     9    27    24    1
    10    25    24    2
    11    24    26    2
    12    24     4    1
    13     5     6    1
    14     5     4    2
    15     6     1    2
    16     4     3    1
    17     9     8    2
    18     1     7    1
    19     1     2    1
    20     3     2    2
    21     8     7   am
    22     8    11    1
    23    12    11    2
    24    12    13    1
    25     7    10    1
    26    11    16    1
    27    13    14    2
    28    16    15   ar
    29    16    18   ar
    30    14    15    1
    31    15    17   ar
    32    18    19   ar
    33    17    19   ar
    34    17    23    1
    35    19    20    1
    36    20    21    2
    37    23    22    2
    38    21    22    1
