@<TRIPOS>MOLECULE
5229_out_ligand_01.pdbqt
 36 39 0 0 0
SMALL
GASTEIGER

@<TRIPOS>ATOM
      1  N         24.6580  -23.1460  -10.2970 N.1     1  UNL1       -0.1910
      2  C         24.0740  -22.6270  -11.1560 C.1     1  UNL1        0.1020
      3  C         23.3940  -21.9940  -12.2410 C.2     1  UNL1        0.0770
      4  C         22.0530  -21.8330  -12.2550 C.2     1  UNL1        0.0390
      5  C         24.2120  -21.5520  -13.3500 C.ar    1  UNL1        0.1220
      6  N         23.9290  -21.8720  -14.6260 N.ar    1  UNL1       -0.1680
      7  N         24.9130  -21.3050  -15.3500 N.ar    1  UNL1       -0.2500
      8  C         25.8030  -20.5820  -14.5910 C.ar    1  UNL1        0.1410
      9  C         25.3640  -20.7170  -13.2900 C.ar    1  UNL1        0.1210
     10  C         25.9560  -20.0900  -12.1540 C.1     1  UNL1        0.1060
     11  N         26.4430  -19.5570  -11.2450 N.1     1  UNL1       -0.1910
     12  C         24.9080  -21.4770  -16.7950 C.3     1  UNL1        0.1790
     13  C         24.7730  -22.9400  -17.1940 C.3     1  UNL1        0.1860
     14  O         23.4030  -23.3210  -17.3260 O.3     1  UNL1       -0.3990
     15  H         23.3670  -24.0600  -17.9650 H       1  UNL1        0.2090
     16  N         26.8390  -19.8890  -15.1280 N.pl3   1  UNL1       -0.3830
     17  H         27.5470  -19.4470  -14.5340 H       1  UNL1        0.1570
     18  H         26.6910  -19.3400  -15.9780 H       1  UNL1        0.1570
     19  C         21.0880  -22.2110  -11.2690 C.2     1  UNL1       -0.0060
     20  C         21.3040  -23.0150  -10.1740 C.2     1  UNL1        0.1040
     21  N         20.1150  -23.1570   -9.4960 N.pl3   1  UNL1       -0.3510
     22  C         19.1230  -22.4340  -10.1350 C.2     1  UNL1        0.0450
     23  C         17.7660  -22.2440   -9.8240 C.2     1  UNL1        0.0300
     24  C         19.7070  -21.8470  -11.2640 C.2     1  UNL1        0.0020
     25  C         16.9910  -21.4550  -10.6800 C.2     1  UNL1        0.0020
     26  C         17.5470  -20.8680  -11.8090 C.2     1  UNL1        0.0010
     27  C         18.8990  -21.0550  -12.1100 C.2     1  UNL1        0.0140
     28  C         19.9710  -23.9110   -8.2520 C.3     1  UNL1        0.1720
     29  C         19.3840  -23.0730   -7.1450 C.2     1  UNL1        0.0200
     30  C         20.0730  -21.9300   -6.7190 C.2     1  UNL1        0.1260
     31  F         21.2640  -21.6300   -7.2570 F       1  UNL1       -0.2050
     32  C         19.5770  -21.0900   -5.7240 C.2     1  UNL1        0.0430
     33  C         18.3610  -21.3840   -5.1190 C.2     1  UNL1        0.0050
     34  C         17.6590  -22.5230   -5.5100 C.2     1  UNL1        0.0240
     35  C         18.1650  -23.3630   -6.5120 C.2     1  UNL1        0.0450
     36 CL         17.2370  -24.7680   -6.8940 Cl      1  UNL1       -0.0840
@<TRIPOS>BOND
     1    15    14    1
     2    14    13    1
     3    13    12    1
     4    12     7    1
     5    18    16    1
     6     7     6   ar
     7     7     8   ar
     8    16     8    1
     9    16    17    1
    10     6     5   ar
    11     8     9   ar
    12     5     9   ar
    13     5     3    1
    14     9    10    1
    15     4     3    2
    16     4    19    1
    17     3     2    1
    18    10    11    3
    19    27    26    2
    20    27    24    1
    21    26    25    1
    22    19    24    1
    23    19    20    2
    24    24    22    2
    25     2     1    3
    26    25    23    2
    27    20    21    1
    28    22    23    1
    29    22    21    1
    30    21    28    1
    31    28    29    1
    32    31    30    1
    33    29    30    2
    34    29    35    1
    35    36    35    1
    36    30    32    1
    37    35    34    2
    38    32    33    2
    39    34    33    1
