@<TRIPOS>MOLECULE
522_out_ligand_01.pdbqt
 33 35 0 0 0
SMALL
GASTEIGER

@<TRIPOS>ATOM
      1  C         18.8300  -22.8030   -8.6230 C.2     1  UNL1        0.0740
      2  C         19.8030  -22.7510   -7.6230 C.2     1  UNL1        0.0260
      3  C         21.1380  -22.5490   -7.9780 C.2     1  UNL1        0.0180
      4  C         21.5030  -22.3990   -9.3240 C.2     1  UNL1        0.0320
      5  C         20.5130  -22.4200  -10.3170 C.2     1  UNL1        0.0180
      6  C         19.1750  -22.6240   -9.9670 C.2     1  UNL1        0.0260
      7  C         22.9430  -22.1810   -9.6410 C.2     1  UNL1        0.2510
      8  O         23.4460  -21.0770   -9.4650 O.2     1  UNL1       -0.2680
      9  N         23.6460  -23.2710  -10.1030 N.am    1  UNL1       -0.3530
     10  H         23.1990  -24.1690  -10.2050 H       1  UNL1        0.1630
     11  C         25.0260  -23.1660  -10.5190 C.3     1  UNL1        0.1610
     12  C         25.1210  -23.0650  -12.0190 C.2     1  UNL1       -0.0400
     13  C         25.6450  -24.1180  -12.7800 C.2     1  UNL1        0.0090
     14  C         25.7170  -24.0190  -14.1690 C.2     1  UNL1        0.0010
     15  C         25.2610  -22.8680  -14.8140 C.2     1  UNL1        0.0160
     16  C         24.7170  -21.8070  -14.0780 C.2     1  UNL1        0.0480
     17  C         24.6530  -21.9170  -12.6790 C.2     1  UNL1        0.0250
     18  C         24.2360  -20.5490  -14.7610 C.3     1  UNL1        0.4170
     19  F         24.3150  -20.6180  -16.1180 F       1  UNL1       -0.1660
     20  F         24.9430  -19.4380  -14.4070 F       1  UNL1       -0.1660
     21  F         22.9350  -20.2690  -14.4720 F       1  UNL1       -0.1660
     22  S         17.1200  -23.0420   -8.1920 S.O2    1  UNL1        0.2450
     23  O         16.3110  -22.4890   -9.2570 O.2     1  UNL1       -0.2060
     24  O         16.9760  -24.4080   -7.7440 O.2     1  UNL1       -0.2060
     25  N         16.9900  -21.9610   -6.8760 N.pl3   1  UNL1       -0.1810
     26  H         16.2400  -21.3100   -7.1160 H       1  UNL1        0.1460
     27  C         16.6900  -22.6040   -5.6250 C.2     1  UNL1        0.0280
     28  C         17.7320  -23.1590   -4.8750 C.2     1  UNL1        0.0250
     29  C         17.4660  -23.7530   -3.6420 C.2     1  UNL1        0.0020
     30  C         16.1620  -23.7830   -3.1540 C.2     1  UNL1        0.0010
     31  C         15.1230  -23.2170   -3.8950 C.2     1  UNL1        0.0080
     32  C         15.3740  -22.6230   -5.1430 C.2     1  UNL1       -0.0400
     33  C         14.2420  -21.9970   -5.9050 C.3     1  UNL1        0.0500
@<TRIPOS>BOND
     1    19    18    1
     2    15    14    2
     3    15    16    1
     4    18    21    1
     5    18    20    1
     6    18    16    1
     7    14    13    1
     8    16    17    2
     9    13    12    2
    10    17    12    1
    11    12    11    1
    12    11     9    1
    13     5     6    1
    14     5     4    2
    15    10     9    1
    16     9     7   am
    17     6     1    2
    18     7     8    2
    19     7     4    1
    20     4     3    1
    21    23    22    2
    22     1    22    1
    23     1     2    1
    24    22    24    2
    25    22    25    1
    26     3     2    2
    27    26    25    1
    28    25    27    1
    29    33    32    1
    30    27    32    2
    31    27    28    1
    32    32    31    1
    33    28    29    2
    34    31    30    2
    35    29    30    1
