@<TRIPOS>MOLECULE
5231_out_ligand_01.pdbqt
 31 34 0 0 0
SMALL
GASTEIGER

@<TRIPOS>ATOM
      1  C         20.9650  -22.2930  -10.3230 C.2     1  UNL1        0.0320
      2  C         19.5970  -22.0670  -10.4660 C.2     1  UNL1        0.0190
      3  C         18.7380  -22.2170   -9.3660 C.2     1  UNL1        0.0310
      4  C         19.2130  -22.6010   -8.0980 C.2     1  UNL1        0.0460
      5  C         20.5930  -22.8420   -7.9890 C.2     1  UNL1        0.0310
      6  C         21.4570  -22.6960   -9.0830 C.2     1  UNL1        0.0190
      7  C         21.9160  -22.1520  -11.4640 C.2     1  UNL1        0.2560
      8  O         21.4710  -21.7820  -12.5430 O.2     1  UNL1       -0.2670
      9  N         23.2240  -22.5010  -11.1760 N.am    1  UNL1       -0.3230
     10  H         23.4000  -22.9150  -10.2710 H       1  UNL1        0.1690
     11  C         24.3360  -22.4290  -12.0420 C.2     1  UNL1        0.0350
     12  C         25.3180  -21.4420  -11.9720 C.2     1  UNL1        0.0290
     13  C         26.3930  -21.4420  -12.8670 C.2     1  UNL1        0.0030
     14  C         26.4970  -22.4340  -13.8390 C.2     1  UNL1        0.0160
     15  C         25.5300  -23.4440  -13.9200 C.2     1  UNL1        0.0500
     16  C         24.4500  -23.4260  -13.0200 C.2     1  UNL1        0.0450
     17  C         25.6210  -24.5120  -14.9810 C.3     1  UNL1        0.4170
     18  F         26.8840  -24.9970  -15.1220 F       1  UNL1       -0.1660
     19  F         24.8300  -25.5930  -14.7280 F       1  UNL1       -0.1660
     20  F         25.2530  -24.0660  -16.2150 F       1  UNL1       -0.1660
     21  N         18.3300  -22.7500   -6.9800 N.am    1  UNL1       -0.2420
     22  C         18.3850  -21.9990   -5.8220 C.2     1  UNL1        0.2690
     23  O         19.1210  -21.1020   -5.4530 O.2     1  UNL1       -0.2660
     24  C         17.3240  -22.4630   -4.9610 C.2     1  UNL1        0.0840
     25  C         16.8930  -22.1110   -3.7220 C.2     1  UNL1        0.1370
     26  C         16.6610  -23.4660   -5.5860 C.2     1  UNL1        0.1430
     27  N         15.8430  -22.7480   -3.1530 N.2     1  UNL1       -0.2530
     28  C         15.2540  -23.7370   -3.8700 C.2     1  UNL1        0.2330
     29  N         15.6150  -24.1470   -5.0950 N.2     1  UNL1       -0.2350
     30  C         17.2970  -23.6720   -6.8910 C.2     1  UNL1        0.2850
     31  O         16.9150  -24.5220   -7.6730 O.2     1  UNL1       -0.2650
@<TRIPOS>BOND
     1    20    17    1
     2    18    17    1
     3    17    19    1
     4    17    15    1
     5    15    14    2
     6    15    16    1
     7    14    13    1
     8    16    11    2
     9    13    12    2
    10     8     7    2
    11    11    12    1
    12    11     9    1
    13     7     9   am
    14     7     1    1
    15     9    10    1
    16     2     1    2
    17     2     3    1
    18     1     6    1
    19     3     4    2
    20     6     5    2
    21     4     5    1
    22     4    21    1
    23    31    30    2
    24    21    30   am
    25    21    22   am
    26    30    26    1
    27    22    23    2
    28    22    24    1
    29    26    29    1
    30    26    24    2
    31    29    28    2
    32    24    25    1
    33    28    27    1
    34    25    27    2
