@<TRIPOS>MOLECULE
5232_out_ligand_01.pdbqt
 28 32 0 0 0
SMALL
GASTEIGER

@<TRIPOS>ATOM
      1  C         17.5970  -22.3980   -9.4450 C.2     1  UNL1        0.0330
      2  C         16.9030  -21.5860  -10.3520 C.2     1  UNL1        0.0190
      3  C         17.5550  -21.0060  -11.4460 C.2     1  UNL1        0.0310
      4  C         18.9200  -21.2740  -11.6020 C.ar    1  UNL1        0.0460
      5  N         19.8040  -20.8490  -12.5720 N.ar    1  UNL1       -0.3380
      6  C         21.0470  -21.3630  -12.3370 C.ar    1  UNL1        0.1580
      7  N         22.1420  -21.1460  -13.0870 N.ar    1  UNL1       -0.2270
      8  C         23.2230  -21.7880  -12.6050 C.ar    1  UNL1        0.0880
      9  C         24.4270  -21.6520  -13.2860 C.2     1  UNL1        0.0340
     10  C         25.5910  -22.2860  -12.8500 C.2     1  UNL1        0.0020
     11  C         25.5550  -23.0740  -11.7080 C.2     1  UNL1        0.0020
     12  C         24.3540  -23.2210  -11.0120 C.2     1  UNL1        0.0340
     13  C         23.1860  -22.5960  -11.4330 C.ar    1  UNL1        0.0860
     14  N         22.0690  -22.7860  -10.7090 N.ar    1  UNL1       -0.2420
     15  C         20.9770  -22.1420  -11.1940 C.ar    1  UNL1        0.1160
     16  C         19.6360  -22.0940  -10.7230 C.ar    1  UNL1        0.0240
     17  C         18.9600  -22.6730   -9.6300 C.2     1  UNL1        0.0330
     18  H         19.5850  -20.2480  -13.3530 H       1  UNL1        0.1670
     19  C         16.9070  -23.0170   -8.2800 C.2     1  UNL1        0.2560
     20  O         16.0970  -23.9120   -8.4890 O.2     1  UNL1       -0.2670
     21  N         17.2950  -22.5200   -7.0490 N.am    1  UNL1       -0.3220
     22  H         18.0710  -21.8700   -7.0410 H       1  UNL1        0.1690
     23  C         16.7870  -22.8900   -5.7840 C.2     1  UNL1        0.0520
     24  C         15.5750  -22.4510   -5.2610 C.2     1  UNL1        0.0320
     25  C         15.1720  -22.8750   -3.9940 C.2     1  UNL1        0.0210
     26  C         16.0010  -23.7280   -3.2850 C.2     1  UNL1        0.1160
     27  N         17.1850  -24.1760   -3.7500 N.2     1  UNL1       -0.2710
     28  C         17.5450  -23.7470   -4.9840 C.2     1  UNL1        0.1450
@<TRIPOS>BOND
     1    18     5    1
     2     9    10    1
     3     9     8    2
     4     7     8   ar
     5     7     6   ar
     6    10    11    2
     7     8    13   ar
     8     5     6   ar
     9     5     4   ar
    10     6    15   ar
    11    11    12    1
    12     4     3    2
    13     4    16   ar
    14     3     2    1
    15    13    12    2
    16    13    14   ar
    17    15    16   ar
    18    15    14   ar
    19    16    17    2
    20     2     1    2
    21    17     1    1
    22     1    19    1
    23    20    19    2
    24    19    21   am
    25    21    22    1
    26    21    23    1
    27    23    24    2
    28    23    28    1
    29    24    25    1
    30    28    27    2
    31    25    26    2
    32    27    26    1
