@<TRIPOS>MOLECULE
5236_out_ligand_01.pdbqt
 33 37 0 0 0
SMALL
GASTEIGER

@<TRIPOS>ATOM
      1  C         19.4130  -22.1890   -9.9880 C.2     1  UNL1        0.0340
      2  C         18.9840  -21.4650  -11.1010 C.2     1  UNL1        0.0190
      3  C         19.8880  -21.1920  -12.1310 C.2     1  UNL1        0.0350
      4  C         21.2080  -21.6210  -12.0680 C.ar    1  UNL1        0.0860
      5  N         22.0430  -21.3310  -13.0800 N.ar    1  UNL1       -0.2420
      6  C         23.3340  -21.7520  -12.9620 C.ar    1  UNL1        0.1150
      7  C         23.7550  -22.5060  -11.8640 C.ar    1  UNL1        0.1150
      8  N         22.9100  -22.7830  -10.8300 N.ar    1  UNL1       -0.2420
      9  C         21.6450  -22.3430  -10.9320 C.ar    1  UNL1        0.0870
     10  C         20.7450  -22.6090   -9.9100 C.2     1  UNL1        0.0510
     11  C         18.5020  -22.5000   -8.8530 C.2     1  UNL1        0.2560
     12  O         17.5280  -23.2060   -9.0760 O.2     1  UNL1       -0.2670
     13  N         18.8480  -21.9120   -7.6500 N.am    1  UNL1       -0.3230
     14  H         19.6080  -21.2450   -7.6620 H       1  UNL1        0.1690
     15  C         18.1950  -22.0630   -6.4070 C.2     1  UNL1        0.0360
     16  C         18.7790  -21.4310   -5.2990 C.2     1  UNL1        0.0290
     17  C         18.2020  -21.5330   -4.0310 C.2     1  UNL1        0.0040
     18  C         17.0360  -22.2720   -3.8550 C.2     1  UNL1        0.0190
     19  C         16.4550  -22.9060   -4.9520 C.2     1  UNL1        0.0130
     20 BR         14.8720  -23.9150   -4.7110 Br      1  UNL1       -0.0510
     21  C         17.0280  -22.8070   -6.2220 C.2     1  UNL1        0.0480
     22  C         25.0630  -23.1340  -11.6750 C.2     1  UNL1        0.0630
     23  C         25.9730  -23.6960  -12.5560 C.2     1  UNL1        0.0330
     24  C         27.0720  -24.1870  -11.8090 C.2     1  UNL1        0.0190
     25  C         26.7990  -23.9520  -10.4820 C.2     1  UNL1        0.0880
     26  N         25.5740  -23.3440  -10.4100 N.pl3   1  UNL1       -0.3640
     27  H         25.0840  -23.0870   -9.5610 H       1  UNL1        0.1650
     28  C         24.1650  -21.2700  -14.0660 C.2     1  UNL1        0.0630
     29  C         25.1790  -20.3290  -14.1360 C.2     1  UNL1        0.0330
     30  C         25.6130  -20.2420  -15.4820 C.2     1  UNL1        0.0190
     31  C         24.8330  -21.1020  -16.2170 C.2     1  UNL1        0.0880
     32  N         23.9440  -21.6940  -15.3610 N.pl3   1  UNL1       -0.3640
     33  H         23.2120  -22.3440  -15.6170 H       1  UNL1        0.1650
@<TRIPOS>BOND
     1    31    30    2
     2    31    32    1
     3    33    32    1
     4    30    29    1
     5    32    28    1
     6    29    28    2
     7    28     6    1
     8     5     6   ar
     9     5     4   ar
    10     6     7   ar
    11    23    24    1
    12    23    22    2
    13     3     4    2
    14     3     2    1
    15     4     9   ar
    16     7    22    1
    17     7     8   ar
    18    24    25    2
    19    22    26    1
    20     2     1    2
    21     9     8   ar
    22     9    10    2
    23    25    26    1
    24    26    27    1
    25     1    10    1
    26     1    11    1
    27    12    11    2
    28    11    13   am
    29    14    13    1
    30    13    15    1
    31    15    21    2
    32    15    16    1
    33    21    19    1
    34    16    17    2
    35    19    20    1
    36    19    18    2
    37    17    18    1
