@<TRIPOS>MOLECULE
5239_out_ligand_01.pdbqt
 28 31 0 0 0
SMALL
GASTEIGER

@<TRIPOS>ATOM
      1  C         21.1920  -22.3110   -9.5440 C.2     1  UNL1        0.0320
      2  C         22.5650  -22.1390   -9.3680 C.2     1  UNL1        0.0190
      3  C         23.4100  -22.0240  -10.4840 C.2     1  UNL1        0.0310
      4  C         22.9140  -22.0670  -11.7990 C.2     1  UNL1        0.0460
      5  C         21.5250  -22.2210  -11.9460 C.2     1  UNL1        0.0310
      6  C         20.6740  -22.3360  -10.8370 C.2     1  UNL1        0.0190
      7  C         20.2540  -22.4320   -8.3910 C.2     1  UNL1        0.2560
      8  N         18.9670  -22.8100   -8.7280 N.am    1  UNL1       -0.3230
      9  H         18.7440  -22.8660   -9.7130 H       1  UNL1        0.1690
     10  O         20.6760  -22.1630   -7.2740 O.2     1  UNL1       -0.2670
     11  C         17.8860  -23.0420   -7.8500 C.2     1  UNL1        0.0350
     12  C         16.7510  -22.2360   -7.7790 C.2     1  UNL1        0.0300
     13  C         15.7240  -22.5320   -6.8750 C.2     1  UNL1        0.0090
     14  C         15.8120  -23.6450   -6.0330 C.2     1  UNL1       -0.0620
     15  C         14.7250  -23.9380   -5.0430 C.3     1  UNL1        0.0480
     16  C         16.9570  -24.4430   -6.0900 C.2     1  UNL1        0.0090
     17  C         17.9830  -24.1460   -6.9940 C.2     1  UNL1        0.0300
     18  N         23.7820  -21.9510  -12.9320 N.am    1  UNL1       -0.2440
     19  C         24.9680  -22.6440  -13.1000 C.2     1  UNL1        0.2680
     20  O         25.5530  -23.4580  -12.4090 O.2     1  UNL1       -0.2670
     21  C         25.5240  -22.2350  -14.3740 C.2     1  UNL1        0.0690
     22  C         26.6660  -22.6100  -15.0180 C.2     1  UNL1        0.1590
     23  C         24.6770  -21.3170  -14.9310 C.2     1  UNL1        0.0690
     24  N         26.9450  -22.0600  -16.2150 N.2     1  UNL1       -0.1620
     25  N         26.0790  -21.1210  -16.7820 N.2     1  UNL1       -0.1620
     26  C         24.9540  -20.7560  -16.1420 C.2     1  UNL1        0.1590
     27  C         23.5660  -21.1240  -14.0180 C.2     1  UNL1        0.2680
     28  O         22.6780  -20.3370  -14.2910 O.2     1  UNL1       -0.2670
@<TRIPOS>BOND
     1    25    24    2
     2    25    26    1
     3    24    22    1
     4    26    23    2
     5    22    21    2
     6    23    21    1
     7    23    27    1
     8    21    19    1
     9    28    27    2
    10    27    18   am
    11    19    18   am
    12    19    20    2
    13    18     4    1
    14     5     4    2
    15     5     6    1
    16     4     3    1
    17     6     1    2
    18     3     2    2
    19     9     8    1
    20     1     2    1
    21     1     7    1
    22     8     7   am
    23     8    11    1
    24     7    10    2
    25    11    12    2
    26    11    17    1
    27    12    13    1
    28    17    16    2
    29    13    14    2
    30    16    14    1
    31    14    15    1
