@<TRIPOS>MOLECULE
5242_out_ligand_01.pdbqt
 27 30 0 0 0
SMALL
GASTEIGER

@<TRIPOS>ATOM
      1  C         21.1660  -22.1380  -10.2010 C.2     1  UNL1        0.0320
      2  C         21.6500  -22.3870   -8.9180 C.2     1  UNL1        0.0190
      3  C         20.7650  -22.5570   -7.8420 C.2     1  UNL1        0.0310
      4  C         19.3720  -22.4930   -8.0150 C.2     1  UNL1        0.0460
      5  C         18.9080  -22.2610   -9.3210 C.2     1  UNL1        0.0310
      6  C         19.7870  -22.0880  -10.4020 C.2     1  UNL1        0.0190
      7  N         18.4680  -22.6670   -6.9170 N.am    1  UNL1       -0.2420
      8  C         18.4590  -21.8980   -5.7690 C.2     1  UNL1        0.2690
      9  O         19.1420  -20.9630   -5.3960 O.2     1  UNL1       -0.2660
     10  C         17.3990  -22.4000   -4.9280 C.2     1  UNL1        0.0840
     11  C         16.9210  -22.0520   -3.7060 C.2     1  UNL1        0.1370
     12  C         16.7990  -23.4400   -5.5550 C.2     1  UNL1        0.1430
     13  N         15.8870  -22.7270   -3.1530 N.2     1  UNL1       -0.2530
     14  C         15.3620  -23.7530   -3.8700 C.2     1  UNL1        0.2330
     15  N         15.7730  -24.1630   -5.0800 N.2     1  UNL1       -0.2350
     16  C         17.4760  -23.6330   -6.8400 C.2     1  UNL1        0.2850
     17  O         17.1520  -24.5130   -7.6190 O.2     1  UNL1       -0.2650
     18  C         22.1400  -21.9660  -11.3140 C.2     1  UNL1        0.2520
     19  O         21.7430  -21.9060  -12.4710 O.2     1  UNL1       -0.2680
     20  N         23.4730  -21.9160  -10.9560 N.am    1  UNL1       -0.3520
     21  H         23.7280  -22.2390  -10.0320 H       1  UNL1        0.1630
     22  C         24.5240  -21.8860  -11.9640 C.3     1  UNL1        0.0840
     23  C         24.8890  -23.2990  -12.4280 C.3     1  UNL1        0.0250
     24  C         25.9230  -23.2790  -13.5570 C.3     1  UNL1        0.0020
     25  C         26.8450  -22.0610  -13.5220 C.3     1  UNL1        0.0000
     26  C         27.0690  -21.5610  -12.1010 C.3     1  UNL1        0.0020
     27  C         25.7590  -21.1440  -11.4270 C.3     1  UNL1        0.0250
@<TRIPOS>BOND
     1    24    25    1
     2    24    23    1
     3    25    26    1
     4    19    18    2
     5    23    22    1
     6    26    27    1
     7    22    27    1
     8    22    20    1
     9    18    20   am
    10    18     1    1
    11    20    21    1
    12     6     1    2
    13     6     5    1
    14     1     2    1
    15     5     4    2
    16     2     3    2
    17     4     3    1
    18     4     7    1
    19    17    16    2
    20     7    16   am
    21     7     8   am
    22    16    12    1
    23     8     9    2
    24     8    10    1
    25    12    15    1
    26    12    10    2
    27    15    14    2
    28    10    11    1
    29    14    13    1
    30    11    13    2
