@<TRIPOS>MOLECULE
5244_out_ligand_01.pdbqt
 29 32 0 0 0
SMALL
GASTEIGER

@<TRIPOS>ATOM
      1  C         18.6840  -22.0530  -10.5650 C.2     1  UNL1        0.0320
      2  C         19.6940  -22.9000  -10.1080 C.2     1  UNL1        0.0190
      3  C         21.0160  -22.7340  -10.5470 C.2     1  UNL1        0.0310
      4  C         21.3720  -21.7270  -11.4600 C.2     1  UNL1        0.0460
      5  C         20.3330  -20.8980  -11.9200 C.2     1  UNL1        0.0310
      6  C         19.0070  -21.0570  -11.4850 C.2     1  UNL1        0.0190
      7  C         17.2950  -22.2670  -10.0750 C.2     1  UNL1        0.2510
      8  O         16.3690  -21.6200  -10.5520 O.2     1  UNL1       -0.2680
      9  N         17.1300  -23.2350   -9.1070 N.am    1  UNL1       -0.3570
     10  H         17.8890  -23.8720   -8.9110 H       1  UNL1        0.1620
     11  C         15.8100  -23.5920   -8.6150 C.3     1  UNL1        0.1270
     12  C         15.8780  -24.5680   -7.4360 C.3     1  UNL1        0.0530
     13  C         16.0270  -23.8690   -6.1020 C.2     1  UNL1       -0.0820
     14  C         17.2350  -23.6710   -5.5430 C.2     1  UNL1       -0.0240
     15  C         17.4440  -23.0010   -4.2170 C.3     1  UNL1        0.0270
     16  C         16.1540  -22.8350   -3.4150 C.3     1  UNL1        0.0040
     17  C         15.0070  -22.3790   -4.3090 C.3     1  UNL1        0.0050
     18  C         14.7580  -23.3800   -5.4410 C.3     1  UNL1        0.0340
     19  N         22.7220  -21.5560  -11.9070 N.am    1  UNL1       -0.2420
     20  C         23.1160  -21.4940  -13.2290 C.2     1  UNL1        0.2690
     21  O         22.5020  -21.5520  -14.2790 O.2     1  UNL1       -0.2660
     22  C         24.5500  -21.3220  -13.2400 C.2     1  UNL1        0.0840
     23  C         25.4780  -21.2030  -14.2230 C.2     1  UNL1        0.1370
     24  C         24.9930  -21.2780  -11.9590 C.2     1  UNL1        0.1430
     25  N         26.7860  -21.0450  -13.9190 N.2     1  UNL1       -0.2530
     26  C         27.1190  -21.0140  -12.6040 C.2     1  UNL1        0.2330
     27  N         26.2680  -21.1250  -11.5710 N.2     1  UNL1       -0.2350
     28  C         23.8290  -21.4230  -11.0810 C.2     1  UNL1        0.2850
     29  O         23.9270  -21.4100   -9.8670 O.2     1  UNL1       -0.2650
@<TRIPOS>BOND
     1    21    20    2
     2    23    25    1
     3    23    22    2
     4    25    26    2
     5    22    20    1
     6    22    24    1
     7    20    19   am
     8    26    27    1
     9    24    27    2
    10    24    28    1
    11     5     6    1
    12     5     4    2
    13    19     4    1
    14    19    28   am
    15     6     1    2
    16     4     3    1
    17    28    29    2
    18     1     2    1
    19     1     7    1
    20     8     7    2
    21     3     2    2
    22     7     9   am
    23     9    10    1
    24     9    11    1
    25    11    12    1
    26    12    13    1
    27    13    14    2
    28    13    18    1
    29    14    15    1
    30    18    17    1
    31    17    16    1
    32    15    16    1
