@<TRIPOS>MOLECULE
5246_out_ligand_01.pdbqt
 28 31 0 0 0
SMALL
GASTEIGER

@<TRIPOS>ATOM
      1  C         21.8620  -22.0000   -9.5870 C.2     1  UNL1        0.0320
      2  C         20.5710  -22.2980  -10.0200 C.2     1  UNL1        0.0190
      3  C         19.5410  -22.4960   -9.0860 C.2     1  UNL1        0.0310
      4  C         19.7670  -22.4130   -7.7010 C.2     1  UNL1        0.0460
      5  C         21.0820  -22.1330   -7.2910 C.2     1  UNL1        0.0310
      6  C         22.1160  -21.9340   -8.2180 C.2     1  UNL1        0.0190
      7  C         22.9890  -21.7860  -10.5390 C.2     1  UNL1        0.2560
      8  N         22.7730  -22.2740  -11.8150 N.am    1  UNL1       -0.3230
      9  H         21.8510  -22.6310  -12.0220 H       1  UNL1        0.1690
     10  O         23.9760  -21.1820  -10.1360 O.2     1  UNL1       -0.2670
     11  C         23.6710  -22.2510  -12.9030 C.2     1  UNL1        0.0350
     12  C         23.4690  -21.2660  -13.8790 C.2     1  UNL1        0.0300
     13  C         24.3110  -21.1790  -14.9920 C.2     1  UNL1        0.0090
     14  C         25.3620  -22.0840  -15.1570 C.2     1  UNL1       -0.0620
     15  C         26.2880  -21.9740  -16.3310 C.3     1  UNL1        0.0480
     16  C         25.5710  -23.0590  -14.1780 C.2     1  UNL1        0.0090
     17  C         24.7280  -23.1460  -13.0630 C.2     1  UNL1        0.0300
     18  N         18.7130  -22.6140   -6.7530 N.am    1  UNL1       -0.2420
     19  C         18.4460  -21.7910   -5.6750 C.2     1  UNL1        0.2690
     20  O         18.9680  -20.7700   -5.2660 O.2     1  UNL1       -0.2660
     21  C         17.3120  -22.3500   -4.9800 C.2     1  UNL1        0.0840
     22  C         16.6150  -21.9920   -3.8720 C.2     1  UNL1        0.1370
     23  C         16.9120  -23.4720   -5.6280 C.2     1  UNL1        0.1430
     24  N         15.5660  -22.7340   -3.4490 N.2     1  UNL1       -0.2530
     25  C         15.2530  -23.8370   -4.1750 C.2     1  UNL1        0.2330
     26  N         15.8870  -24.2630   -5.2780 N.2     1  UNL1       -0.2350
     27  C         17.7990  -23.6580   -6.7810 C.2     1  UNL1        0.2850
     28  O         17.6640  -24.5820   -7.5620 O.2     1  UNL1       -0.2650
@<TRIPOS>BOND
     1    15    14    1
     2    14    13    2
     3    14    16    1
     4    13    12    1
     5    16    17    2
     6    12    11    2
     7    17    11    1
     8    11     8    1
     9     9     8    1
    10     8     7   am
    11     7    10    2
    12     7     1    1
    13     2     1    2
    14     2     3    1
    15     1     6    1
    16     3     4    2
    17     6     5    2
    18     4     5    1
    19     4    18    1
    20    28    27    2
    21    27    18   am
    22    27    23    1
    23    18    19   am
    24    19    20    2
    25    19    21    1
    26    23    26    1
    27    23    21    2
    28    26    25    2
    29    21    22    1
    30    25    24    1
    31    22    24    2
