@<TRIPOS>MOLECULE
52479_out_ligand_01.pdbqt
 34 37 0 0 0
SMALL
GASTEIGER

@<TRIPOS>ATOM
      1  N         20.5160  -22.6470  -10.0970 N.ar    1  UNL1       -0.3050
      2  C         21.7040  -22.4130  -10.7400 C.ar    1  UNL1        0.1920
      3  N         21.4880  -21.7750  -11.8670 N.ar    1  UNL1       -0.1220
      4  N         20.1420  -21.6090  -12.0040 N.ar    1  UNL1       -0.1320
      5  C         19.5470  -22.1520  -10.9580 C.ar    1  UNL1        0.1530
      6  S         23.2650  -22.9260  -10.2090 S.3     1  UNL1       -0.0830
      7  C         24.3280  -21.7240  -11.0710 C.3     1  UNL1        0.1610
      8  C         24.5800  -22.1780  -12.4940 C.ar    1  UNL1        0.1170
      9  N         24.5790  -21.3200  -13.4650 N.ar    1  UNL1       -0.2340
     10  C         24.8120  -21.7950  -14.7670 C.ar    1  UNL1        0.0740
     11  C         24.7890  -20.8900  -15.8290 C.2     1  UNL1        0.0320
     12  C         25.0700  -23.1400  -15.0420 C.ar    1  UNL1        0.0610
     13  C         25.0210  -21.3230  -17.1390 C.2     1  UNL1        0.0020
     14  C         25.2800  -22.6700  -17.3970 C.2     1  UNL1        0.0010
     15  C         25.3060  -23.5860  -16.3460 C.2     1  UNL1        0.0190
     16  C         25.0950  -24.0730  -13.9030 C.ar    1  UNL1        0.2590
     17  O         25.3830  -25.2550  -14.0420 O.2     1  UNL1       -0.2670
     18  N         24.7940  -23.5210  -12.6840 N.ar    1  UNL1       -0.3100
     19  H         24.8860  -24.1440  -11.8830 H       1  UNL1        0.1700
     20  C         20.2690  -23.2670   -8.7990 C.3     1  UNL1        0.0850
     21  C         20.5590  -24.7680   -8.7910 C.3     1  UNL1        0.0320
     22  C         20.9500  -22.5360   -7.6410 C.3     1  UNL1        0.0320
     23  C         18.0710  -22.1890  -10.7100 C.3     1  UNL1        0.1520
     24  C         17.3510  -20.9890  -11.3240 C.3     1  UNL1        0.0400
     25  N         17.8880  -22.2070   -9.2680 N.am    1  UNL1       -0.3460
     26  C         16.7580  -22.7450   -8.6960 C.2     1  UNL1        0.2520
     27  O         15.8990  -23.3350   -9.3400 O.2     1  UNL1       -0.2680
     28  H         18.4530  -21.5560   -8.7380 H       1  UNL1        0.1630
     29  C         16.6090  -22.5660   -7.2240 C.2     1  UNL1        0.0320
     30  C         15.3260  -22.6660   -6.6710 C.2     1  UNL1        0.0170
     31  C         15.1380  -22.5100   -5.2970 C.2     1  UNL1        0.0010
     32  C         16.2320  -22.2620   -4.4690 C.2     1  UNL1        0.0000
     33  C         17.5150  -22.1790   -5.0110 C.2     1  UNL1        0.0010
     34  C         17.7070  -22.3340   -6.3860 C.2     1  UNL1        0.0170
@<TRIPOS>BOND
     1    14    13    2
     2    14    15    1
     3    13    11    1
     4    15    12    2
     5    11    10    2
     6    12    10   ar
     7    12    16   ar
     8    10     9   ar
     9    17    16    2
    10    16    18   ar
    11     9     8   ar
    12    18     8   ar
    13    18    19    1
    14     8     7    1
    15     4     3   ar
    16     4     5   ar
    17     3     2   ar
    18    24    23    1
    19     7     6    1
    20     5    23    1
    21     5     1   ar
    22     2     6    1
    23     2     1   ar
    24    23    25    1
    25     1    20    1
    26    27    26    2
    27    25    28    1
    28    25    26   am
    29    20    21    1
    30    20    22    1
    31    26    29    1
    32    29    30    2
    33    29    34    1
    34    30    31    1
    35    34    33    2
    36    31    32    2
    37    33    32    1
