@<TRIPOS>MOLECULE
52483_out_ligand_01.pdbqt
 33 36 0 0 0
SMALL
GASTEIGER

@<TRIPOS>ATOM
      1  C         21.8550  -22.2760  -11.4450 C.2     1  UNL1        0.0340
      2  C         21.4210  -23.0240  -10.3490 C.2     1  UNL1        0.0300
      3  C         20.0810  -22.9840   -9.9450 C.2     1  UNL1        0.0190
      4  C         19.1590  -22.1830  -10.6270 C.2     1  UNL1        0.0320
      5  C         19.5850  -21.4310  -11.7270 C.2     1  UNL1        0.0190
      6  C         20.9270  -21.4790  -12.1290 C.2     1  UNL1        0.0300
      7  N         23.1770  -22.2890  -11.9350 N.am    1  UNL1       -0.3270
      8  C         24.3120  -21.7930  -11.3120 C.2     1  UNL1        0.2260
      9  O         24.3480  -21.1690  -10.2560 O.2     1  UNL1       -0.2730
     10  H         23.3240  -22.7820  -12.8080 H       1  UNL1        0.1690
     11  C         25.5940  -22.0460  -12.1000 C.3     1  UNL1        0.1420
     12  C         25.7010  -21.2620  -13.3990 C.2     1  UNL1       -0.0380
     13  C         26.0220  -19.8920  -13.3100 C.2     1  UNL1        0.0080
     14  C         26.1420  -19.1060  -14.4490 C.2     1  UNL1        0.0010
     15  C         25.9240  -19.6680  -15.7020 C.2     1  UNL1        0.0120
     16  C         25.5730  -21.0200  -15.8320 C.2     1  UNL1       -0.0250
     17  C         25.3390  -21.5520  -17.1120 C.2     1  UNL1        0.0120
     18  C         25.4450  -21.8410  -14.6780 C.2     1  UNL1       -0.0190
     19  C         24.9730  -22.8850  -17.2830 C.2     1  UNL1        0.0010
     20  C         24.8300  -23.7020  -16.1700 C.2     1  UNL1        0.0010
     21  C         25.0630  -23.1890  -14.8880 C.2     1  UNL1        0.0130
     22  C         17.7400  -22.1940  -10.1750 C.2     1  UNL1        0.2510
     23  O         16.9130  -21.4750  -10.7250 O.2     1  UNL1       -0.2680
     24  N         17.4250  -23.0680   -9.1520 N.am    1  UNL1       -0.3570
     25  H         18.0870  -23.7870   -8.8940 H       1  UNL1        0.1620
     26  C         16.0540  -23.2100   -8.6950 C.3     1  UNL1        0.1270
     27  C         15.9140  -24.2700   -7.6000 C.3     1  UNL1        0.0580
     28  C         16.0050  -23.6680   -6.2210 C.2     1  UNL1       -0.0570
     29  C         14.9150  -22.9650   -5.6890 C.2     1  UNL1        0.0070
     30  C         14.9960  -22.3920   -4.4190 C.2     1  UNL1        0.0010
     31  C         16.1650  -22.5150   -3.6710 C.2     1  UNL1        0.0000
     32  C         17.2560  -23.2060   -4.1940 C.2     1  UNL1        0.0010
     33  C         17.1780  -23.7790   -5.4650 C.2     1  UNL1        0.0070
@<TRIPOS>BOND
     1    19    17    2
     2    19    20    1
     3    17    16    1
     4    20    21    2
     5    16    15    2
     6    16    18    1
     7    15    14    1
     8    21    18    1
     9    18    12    2
    10    14    13    2
    11    12    13    1
    12    12    11    1
    13    10     7    1
    14     6     5    1
    15     6     1    2
    16    11     8    1
    17     7     1    1
    18     7     8   am
    19     5     4    2
    20     1     2    1
    21     8     9    2
    22    23    22    2
    23     4    22    1
    24     4     3    1
    25     2     3    2
    26    22    24   am
    27    24    25    1
    28    24    26    1
    29    26    27    1
    30    27    28    1
    31    28    29    2
    32    28    33    1
    33    29    30    1
    34    33    32    2
    35    30    31    2
    36    32    31    1
