@<TRIPOS>MOLECULE
524_out_ligand_01.pdbqt
 39 43 0 0 0
SMALL
GASTEIGER

@<TRIPOS>ATOM
      1  C         17.3230  -22.6640   -5.5780 C.2     1  UNL1        0.0540
      2  C         17.3200  -23.1630   -4.2670 C.2     1  UNL1        0.0190
      3  C         16.1120  -23.5000   -3.6540 C.2     1  UNL1        0.0010
      4  C         14.9100  -23.3460   -4.3450 C.2     1  UNL1        0.0020
      5  C         14.9090  -22.8590   -5.6540 C.2     1  UNL1        0.0250
      6  C         16.1120  -22.5300   -6.2800 C.2     1  UNL1        0.0380
      7  N         16.0680  -21.9560   -7.5940 N.pl3   1  UNL1       -0.1800
      8  H         15.2500  -21.3470   -7.7510 H       1  UNL1        0.1460
      9  S         16.1610  -23.0540   -8.8880 S.O2    1  UNL1        0.2460
     10  O         14.8660  -23.0670   -9.5290 O.2     1  UNL1       -0.2060
     11  O         16.7960  -24.2740   -8.4330 O.2     1  UNL1       -0.2060
     12  C         17.2710  -22.2180   -9.9990 C.2     1  UNL1        0.0770
     13  C         16.9070  -20.9570  -10.5340 C.2     1  UNL1        0.0270
     14  C         17.7660  -20.2800  -11.4070 C.2     1  UNL1        0.0330
     15  C         18.9580  -20.8990  -11.7010 C.ar    1  UNL1        0.0630
     16  N         19.9970  -20.4770  -12.5240 N.ar    1  UNL1       -0.3070
     17  C         19.3140  -22.1370  -11.1630 C.ar    1  UNL1        0.0640
     18  C         21.0100  -21.4460  -12.5040 C.ar    1  UNL1        0.3250
     19  H         20.0540  -19.6230  -13.0520 H       1  UNL1        0.1700
     20  O         22.0670  -21.4050  -13.1080 O.2     1  UNL1       -0.2470
     21  N         20.5690  -22.4720  -11.6550 N.ar    1  UNL1       -0.3060
     22  H         21.1080  -23.2980  -11.4510 H       1  UNL1        0.1700
     23  C         18.4960  -22.8270  -10.3040 C.2     1  UNL1        0.0560
     24  C         18.6050  -22.3200   -6.2460 C.2     1  UNL1        0.2580
     25  O         19.0760  -21.2070   -6.0370 O.2     1  UNL1       -0.2670
     26  N         19.1530  -23.3320   -7.0100 N.am    1  UNL1       -0.3230
     27  H         18.7230  -24.2460   -6.9300 H       1  UNL1        0.1690
     28  C         20.3360  -23.2740   -7.7790 C.2     1  UNL1        0.0370
     29  C         20.7480  -24.4820   -8.4030 C.2     1  UNL1        0.0320
     30  C         21.9000  -24.5470   -9.1980 C.2     1  UNL1        0.0340
     31  C         22.6110  -23.3820   -9.3450 C.ar    1  UNL1        0.0630
     32  N         23.7760  -23.1320  -10.0580 N.ar    1  UNL1       -0.3070
     33  C         22.2130  -22.1940   -8.7380 C.ar    1  UNL1        0.0650
     34  C         24.1170  -21.7800   -9.9030 C.ar    1  UNL1        0.3250
     35  H         24.3150  -23.7850  -10.6020 H       1  UNL1        0.1700
     36  O         25.0800  -21.2140  -10.3900 O.2     1  UNL1       -0.2470
     37  N         23.1350  -21.2110   -9.0810 N.ar    1  UNL1       -0.3060
     38  H         23.1290  -20.2450   -8.7940 H       1  UNL1        0.1700
     39  C         21.0850  -22.1040   -7.9530 C.2     1  UNL1        0.0610
@<TRIPOS>BOND
     1    20    18    2
     2    19    16    1
     3    16    18   ar
     4    16    15   ar
     5    18    21   ar
     6    15    14    2
     7    15    17   ar
     8    21    22    1
     9    21    17   ar
    10    14    13    1
    11    17    23    2
    12    35    32    1
    13    13    12    2
    14    36    34    2
    15    23    12    1
    16    32    34   ar
    17    32    31   ar
    18    12     9    1
    19    34    37   ar
    20    10     9    2
    21    31    30    2
    22    31    33   ar
    23    30    29    1
    24    37    38    1
    25    37    33   ar
    26     9    11    2
    27     9     7    1
    28    33    39    2
    29    29    28    2
    30    39    28    1
    31    28    26    1
    32     8     7    1
    33     7     6    1
    34    26    27    1
    35    26    24   am
    36     6     5    1
    37     6     1    2
    38    24    25    2
    39    24     1    1
    40     5     4    2
    41     1     2    1
    42     4     3    1
    43     2     3    2
