@<TRIPOS>MOLECULE
5251_out_ligand_01.pdbqt
 29 32 0 0 0
SMALL
GASTEIGER

@<TRIPOS>ATOM
      1  C         21.8060  -22.0170   -9.5580 C.2     1  UNL1        0.0320
      2  C         20.5130  -22.3190   -9.9890 C.2     1  UNL1        0.0190
      3  C         19.4860  -22.5140   -9.0520 C.2     1  UNL1        0.0310
      4  C         19.7130  -22.4210   -7.6680 C.2     1  UNL1        0.0460
      5  C         21.0280  -22.1360   -7.2620 C.2     1  UNL1        0.0310
      6  C         22.0610  -21.9410   -8.1910 C.2     1  UNL1        0.0190
      7  C         22.9310  -21.8080  -10.5150 C.2     1  UNL1        0.2560
      8  N         22.7250  -22.3360  -11.7760 N.am    1  UNL1       -0.3230
      9  H         21.8070  -22.7130  -11.9730 H       1  UNL1        0.1690
     10  O         23.9040  -21.1750  -10.1280 O.2     1  UNL1       -0.2670
     11  C         23.6220  -22.3300  -12.8650 C.2     1  UNL1        0.0350
     12  C         23.3850  -21.3990  -13.8810 C.2     1  UNL1        0.0300
     13  C         24.2240  -21.3330  -14.9970 C.2     1  UNL1        0.0090
     14  C         25.3180  -22.1970  -15.1220 C.2     1  UNL1       -0.0560
     15  C         26.2030  -22.0990  -16.3350 C.3     1  UNL1        0.0490
     16  C         25.5640  -23.1400  -14.1070 C.2     1  UNL1       -0.0540
     17  C         24.7090  -23.1960  -12.9880 C.2     1  UNL1        0.0370
     18  C         26.7240  -24.0970  -14.1880 C.3     1  UNL1        0.0490
     19  N         18.6580  -22.6200   -6.7200 N.am    1  UNL1       -0.2420
     20  C         18.4250  -21.8240   -5.6150 C.2     1  UNL1        0.2690
     21  O         18.9880  -20.8420   -5.1700 O.2     1  UNL1       -0.2660
     22  C         17.2740  -22.3670   -4.9340 C.2     1  UNL1        0.0840
     23  C         16.5890  -22.0170   -3.8140 C.2     1  UNL1        0.1370
     24  C         16.8390  -23.4590   -5.6090 C.2     1  UNL1        0.1430
     25  N         15.5200  -22.7390   -3.4080 N.2     1  UNL1       -0.2530
     26  C         15.1730  -23.8130   -4.1610 C.2     1  UNL1        0.2330
     27  N         15.7930  -24.2280   -5.2760 N.2     1  UNL1       -0.2350
     28  C         17.7220  -23.6430   -6.7640 C.2     1  UNL1        0.2850
     29  O         17.5750  -24.5610   -7.5530 O.2     1  UNL1       -0.2650
@<TRIPOS>BOND
     1    15    14    1
     2    14    13    2
     3    14    16    1
     4    13    12    1
     5    18    16    1
     6    16    17    2
     7    12    11    2
     8    17    11    1
     9    11     8    1
    10     9     8    1
    11     8     7   am
    12     7    10    2
    13     7     1    1
    14     2     1    2
    15     2     3    1
    16     1     6    1
    17     3     4    2
    18     6     5    2
    19     4     5    1
    20     4    19    1
    21    29    28    2
    22    28    19   am
    23    28    24    1
    24    19    20   am
    25    20    21    2
    26    20    22    1
    27    24    27    1
    28    24    22    2
    29    27    26    2
    30    22    23    1
    31    26    25    1
    32    23    25    2
