@<TRIPOS>MOLECULE
5253_out_ligand_01.pdbqt
 28 31 0 0 0
SMALL
GASTEIGER

@<TRIPOS>ATOM
      1  C         20.9840  -22.3320  -10.3460 C.2     1  UNL1        0.0320
      2  C         19.6110  -22.1490  -10.5100 C.2     1  UNL1        0.0190
      3  C         18.7440  -22.2640   -9.4140 C.2     1  UNL1        0.0310
      4  C         19.2160  -22.5760   -8.1270 C.2     1  UNL1        0.0460
      5  C         20.6010  -22.7760   -7.9930 C.2     1  UNL1        0.0310
      6  C         21.4770  -22.6620   -9.0840 C.2     1  UNL1        0.0190
      7  C         21.8730  -22.2040  -11.5360 C.2     1  UNL1        0.2560
      8  O         21.3900  -21.7670  -12.5730 O.2     1  UNL1       -0.2670
      9  N         23.1900  -22.5700  -11.3230 N.am    1  UNL1       -0.3230
     10  H         23.4570  -22.7840  -10.3710 H       1  UNL1        0.1690
     11  C         24.2370  -22.5910  -12.2700 C.2     1  UNL1        0.0360
     12  C         24.6970  -23.7510  -12.8970 C.2     1  UNL1        0.0290
     13  C         25.7450  -23.6910  -13.8220 C.2     1  UNL1        0.0040
     14  C         26.3450  -22.4710  -14.1260 C.2     1  UNL1        0.0190
     15  C         25.8920  -21.3140  -13.4990 C.2     1  UNL1        0.0130
     16 BR         26.7010  -19.6540  -13.9020 Br      1  UNL1       -0.0510
     17  C         24.8460  -21.3680  -12.5760 C.2     1  UNL1        0.0480
     18  N         18.3290  -22.6920   -7.0100 N.am    1  UNL1       -0.2440
     19  C         18.4040  -21.9380   -5.8520 C.2     1  UNL1        0.2680
     20  O         19.1540  -21.0490   -5.4970 O.2     1  UNL1       -0.2670
     21  C         17.3270  -22.3770   -4.9860 C.2     1  UNL1        0.0690
     22  C         16.9530  -21.9710   -3.7400 C.2     1  UNL1        0.1590
     23  C         16.6380  -23.3640   -5.6360 C.2     1  UNL1        0.0690
     24  N         15.8930  -22.5590   -3.1570 N.2     1  UNL1       -0.1620
     25  N         15.1890  -23.5680   -3.8200 N.2     1  UNL1       -0.1620
     26  C         15.5630  -23.9640   -5.0510 C.2     1  UNL1        0.1590
     27  C         17.2640  -23.5710   -6.9260 C.2     1  UNL1        0.2680
     28  O         16.8200  -24.4040   -7.6960 O.2     1  UNL1       -0.2670
@<TRIPOS>BOND
     1    14    13    2
     2    14    15    1
     3    16    15    1
     4    13    12    1
     5    15    17    2
     6    12    11    2
     7    17    11    1
     8     8     7    2
     9    11     9    1
    10     7     9   am
    11     7     1    1
    12     9    10    1
    13     2     1    2
    14     2     3    1
    15     1     6    1
    16     3     4    2
    17     6     5    2
    18     4     5    1
    19     4    18    1
    20    28    27    2
    21    18    27   am
    22    18    19   am
    23    27    23    1
    24    19    20    2
    25    19    21    1
    26    23    26    1
    27    23    21    2
    28    26    25    2
    29    21    22    1
    30    25    24    1
    31    22    24    2
