@<TRIPOS>MOLECULE
52538_out_ligand_01.pdbqt
 33 36 0 0 0
SMALL
GASTEIGER

@<TRIPOS>ATOM
      1  C         27.1010  -24.7440  -14.6260 C.3     1  UNL1        0.1630
      2  N         26.0500  -23.7470  -14.6570 N.ar    1  UNL1       -0.2860
      3  C         25.6550  -23.1670  -15.8580 C.ar    1  UNL1        0.3300
      4  O         26.1500  -23.4390  -16.9520 O.2     1  UNL1       -0.2460
      5  N         24.6380  -22.2300  -15.8000 N.ar    1  UNL1       -0.2730
      6  C         23.9480  -21.8130  -14.6840 C.ar    1  UNL1        0.2800
      7  O         23.0380  -20.9950  -14.7470 O.2     1  UNL1       -0.2650
      8  C         24.4110  -22.4390  -13.4960 C.ar    1  UNL1        0.1660
      9  C         25.4120  -23.3650  -13.4970 C.ar    1  UNL1        0.1860
     10  N         25.6690  -23.8350  -12.2500 N.ar    1  UNL1       -0.0420
     11  C         24.8140  -23.2120  -11.4550 C.ar    1  UNL1        0.7250
     12  N         24.0360  -22.3250  -12.1830 N.ar    1  UNL1       -0.1710
     13  H         24.3580  -21.8300  -16.6820 H       1  UNL1        0.1730
     14  N         24.6540  -23.3600  -10.1080 N.pl3   1  UNL1       -0.1070
     15  H         25.4910  -23.3120   -9.5280 H       1  UNL1        0.2080
     16  N         23.5350  -22.9840   -9.4090 N.2     1  UNL1       -0.1720
     17  C         22.6460  -23.9100   -9.2200 C.2     1  UNL1        0.1500
     18  C         21.3770  -23.6400   -8.5170 C.2     1  UNL1       -0.0170
     19  C         21.1980  -22.3960   -7.9040 C.2     1  UNL1        0.0140
     20  C         20.0050  -22.1180   -7.2320 C.2     1  UNL1        0.0200
     21  C         19.0010  -23.0840   -7.1760 C.2     1  UNL1        0.0110
     22 BR         17.3870  -22.7060   -6.2660 Br      1  UNL1       -0.0510
     23  C         19.1750  -24.3280   -7.7850 C.2     1  UNL1        0.0200
     24  C         20.3670  -24.6070   -8.4570 C.2     1  UNL1        0.0140
     25  C         23.0160  -21.4320  -11.6650 C.3     1  UNL1        0.1480
     26  C         21.6120  -22.0120  -11.8490 C.3     1  UNL1        0.0250
     27  C         20.5570  -20.9310  -12.0980 C.3     1  UNL1        0.0400
     28  C         19.2010  -21.2970  -11.5450 C.2     1  UNL1       -0.0580
     29  C         18.9490  -22.5940  -11.0750 C.2     1  UNL1        0.0070
     30  C         17.7040  -22.9210  -10.5370 C.2     1  UNL1        0.0010
     31  C         16.6990  -21.9590  -10.4650 C.2     1  UNL1        0.0000
     32  C         16.9360  -20.6700  -10.9380 C.2     1  UNL1        0.0010
     33  C         18.1800  -20.3390  -11.4770 C.2     1  UNL1        0.0070
@<TRIPOS>BOND
     1     4     3    2
     2    13     5    1
     3     3     5   ar
     4     3     2   ar
     5     5     6   ar
     6     7     6    2
     7     6     8   ar
     8     2     1    1
     9     2     9   ar
    10     9     8   ar
    11     9    10   ar
    12     8    12   ar
    13    10    11   ar
    14    12    25    1
    15    12    11   ar
    16    27    26    1
    17    27    28    1
    18    26    25    1
    19    28    33    2
    20    28    29    1
    21    33    32    1
    22    11    14    1
    23    29    30    2
    24    32    31    2
    25    30    31    1
    26    14    15    1
    27    14    16    1
    28    16    17    2
    29    17    18    1
    30    18    24    2
    31    18    19    1
    32    24    23    1
    33    19    20    2
    34    23    21    2
    35    20    21    1
    36    21    22    1
