@<TRIPOS>MOLECULE
5254_out_ligand_01.pdbqt
 28 31 0 0 0
SMALL
GASTEIGER

@<TRIPOS>ATOM
      1  C         20.9880  -22.4030  -10.4070 C.2     1  UNL1        0.0320
      2  C         21.4780  -22.8960   -9.1970 C.2     1  UNL1        0.0190
      3  C         20.6260  -23.0160   -8.0880 C.2     1  UNL1        0.0310
      4  C         19.2710  -22.6420   -8.1460 C.2     1  UNL1        0.0460
      5  C         18.8090  -22.1290   -9.3690 C.2     1  UNL1        0.0310
      6  C         19.6540  -22.0060  -10.4840 C.2     1  UNL1        0.0190
      7  C         21.8530  -22.2530  -11.6120 C.2     1  UNL1        0.2560
      8  O         21.3400  -21.8330  -12.6420 O.2     1  UNL1       -0.2670
      9  N         23.1670  -22.6520  -11.4400 N.am    1  UNL1       -0.3230
     10  H         23.3990  -23.1030  -10.5660 H       1  UNL1        0.1690
     11  C         24.2110  -22.5850  -12.3870 C.2     1  UNL1        0.0360
     12  C         24.7570  -23.8030  -12.8190 C.2     1  UNL1        0.0290
     13  C         25.7970  -23.8310  -13.7520 C.2     1  UNL1        0.0040
     14  C         26.3050  -22.6380  -14.2610 C.2     1  UNL1        0.0190
     15  C         25.7680  -21.4270  -13.8330 C.2     1  UNL1        0.0130
     16 BR         26.4620  -19.8070  -14.5210 Br      1  UNL1       -0.0510
     17  C         24.7270  -21.3940  -12.9010 C.2     1  UNL1        0.0480
     18  N         18.4070  -22.7700   -7.0110 N.am    1  UNL1       -0.2420
     19  C         18.4250  -21.9450   -5.9030 C.2     1  UNL1        0.2690
     20  O         19.1020  -20.9800   -5.6020 O.2     1  UNL1       -0.2660
     21  C         17.4050  -22.4210   -5.0000 C.2     1  UNL1        0.0840
     22  C         16.9680  -22.0240   -3.7780 C.2     1  UNL1        0.1370
     23  C         16.7920  -23.4940   -5.5570 C.2     1  UNL1        0.1430
     24  N         15.9620  -22.6830   -3.1590 N.2     1  UNL1       -0.2530
     25  C         15.4220  -23.7430   -3.8090 C.2     1  UNL1        0.2330
     26  N         15.7920  -24.2020   -5.0160 N.2     1  UNL1       -0.2350
     27  C         17.4200  -23.7330   -6.8610 C.2     1  UNL1        0.2850
     28  O         17.0560  -24.6290   -7.6030 O.2     1  UNL1       -0.2650
@<TRIPOS>BOND
     1    16    15    1
     2    14    15    2
     3    14    13    1
     4    15    17    1
     5    13    12    2
     6    17    11    2
     7    12    11    1
     8     8     7    2
     9    11     9    1
    10     7     9   am
    11     7     1    1
    12     9    10    1
    13     6     1    2
    14     6     5    1
    15     1     2    1
    16     5     4    2
    17     2     3    2
    18     4     3    1
    19     4    18    1
    20    28    27    2
    21    18    27   am
    22    18    19   am
    23    27    23    1
    24    19    20    2
    25    19    21    1
    26    23    26    1
    27    23    21    2
    28    26    25    2
    29    21    22    1
    30    25    24    1
    31    22    24    2
