@<TRIPOS>MOLECULE
52540_out_ligand_01.pdbqt
 33 36 0 0 0
SMALL
GASTEIGER

@<TRIPOS>ATOM
      1  C         24.7420  -23.1740  -11.4140 C.ar    1  UNL1        0.7250
      2  N         25.6240  -23.7710  -12.1990 N.ar    1  UNL1       -0.0420
      3  C         25.3860  -23.2870  -13.4440 C.ar    1  UNL1        0.1860
      4  C         24.3700  -22.3780  -13.4520 C.ar    1  UNL1        0.1660
      5  C         23.9240  -21.7440  -14.6430 C.ar    1  UNL1        0.2800
      6  O         23.0010  -20.9400  -14.7140 O.2     1  UNL1       -0.2650
      7  N         24.6430  -22.1370  -15.7490 N.ar    1  UNL1       -0.2730
      8  C         25.6740  -23.0570  -15.7970 C.ar    1  UNL1        0.3300
      9  O         26.1950  -23.3080  -16.8840 O.2     1  UNL1       -0.2460
     10  N         26.0570  -23.6420  -14.5960 N.ar    1  UNL1       -0.2860
     11  C         27.1210  -24.6260  -14.5540 C.3     1  UNL1        0.1630
     12  N         23.9660  -22.2890  -12.1470 N.ar    1  UNL1       -0.1710
     13  H         24.3740  -21.7310  -16.6320 H       1  UNL1        0.1730
     14  N         24.5540  -23.3420  -10.0730 N.pl3   1  UNL1       -0.1070
     15  H         25.3810  -23.3140   -9.4780 H       1  UNL1        0.2080
     16  N         23.4260  -22.9690   -9.3870 N.2     1  UNL1       -0.1720
     17  C         22.5530  -23.9050   -9.1760 C.2     1  UNL1        0.1500
     18  C         21.2780  -23.6410   -8.4810 C.2     1  UNL1       -0.0170
     19  C         21.0720  -22.3830   -7.9090 C.2     1  UNL1        0.0130
     20  C         19.8720  -22.1090   -7.2480 C.2     1  UNL1        0.0070
     21  C         18.8780  -23.0910   -7.1440 C.2     1  UNL1       -0.0620
     22  C         17.5770  -22.7840   -6.4610 C.3     1  UNL1        0.0480
     23  C         19.0890  -24.3440   -7.7330 C.2     1  UNL1        0.0070
     24  C         20.2870  -24.6220   -8.3950 C.2     1  UNL1        0.0130
     25  C         22.9190  -21.4200  -11.6390 C.3     1  UNL1        0.1480
     26  C         21.5300  -22.0230  -11.8560 C.3     1  UNL1        0.0250
     27  C         20.4630  -20.9590  -12.1260 C.3     1  UNL1        0.0400
     28  C         19.1300  -21.2940  -11.5010 C.2     1  UNL1       -0.0580
     29  C         18.8810  -22.5820  -11.0080 C.2     1  UNL1        0.0070
     30  C         17.6390  -22.9010  -10.4570 C.2     1  UNL1        0.0010
     31  C         16.6350  -21.9360  -10.3930 C.2     1  UNL1        0.0000
     32  C         16.8740  -20.6500  -10.8730 C.2     1  UNL1        0.0010
     33  C         18.1160  -20.3290  -11.4210 C.2     1  UNL1        0.0070
@<TRIPOS>BOND
     1     9     8    2
     2    13     7    1
     3     8     7   ar
     4     8    10   ar
     5     7     5   ar
     6     6     5    2
     7     5     4   ar
     8    10    11    1
     9    10     3   ar
    10     4     3   ar
    11     4    12   ar
    12     3     2   ar
    13     2     1   ar
    14    12    25    1
    15    12     1   ar
    16    27    26    1
    17    27    28    1
    18    26    25    1
    19    28    33    2
    20    28    29    1
    21    33    32    1
    22     1    14    1
    23    29    30    2
    24    32    31    2
    25    30    31    1
    26    14    15    1
    27    14    16    1
    28    16    17    2
    29    17    18    1
    30    18    24    2
    31    18    19    1
    32    24    23    1
    33    19    20    2
    34    23    21    2
    35    20    21    1
    36    21    22    1
