@<TRIPOS>MOLECULE
5255_out_ligand_01.pdbqt
 28 31 0 0 0
SMALL
GASTEIGER

@<TRIPOS>ATOM
      1  C         21.8780  -21.9970   -9.5830 C.2     1  UNL1        0.0320
      2  C         20.5760  -22.2400  -10.0200 C.2     1  UNL1        0.0190
      3  C         19.5440  -22.4390   -9.0890 C.2     1  UNL1        0.0310
      4  C         19.7740  -22.3940   -7.7020 C.2     1  UNL1        0.0460
      5  C         21.0900  -22.1260   -7.2890 C.2     1  UNL1        0.0310
      6  C         22.1270  -21.9260   -8.2120 C.2     1  UNL1        0.0190
      7  C         23.0060  -21.7760  -10.5310 C.2     1  UNL1        0.2560
      8  O         24.0170  -21.2280  -10.1080 O.2     1  UNL1       -0.2670
      9  N         22.7970  -22.2600  -11.8100 N.am    1  UNL1       -0.3230
     10  H         21.9590  -22.8080  -11.9620 H       1  UNL1        0.1690
     11  C         23.6670  -22.1580  -12.9160 C.2     1  UNL1        0.0350
     12  C         23.4130  -21.1300  -13.8360 C.2     1  UNL1        0.0320
     13  C         24.2320  -20.9590  -14.9560 C.2     1  UNL1        0.0440
     14  C         25.3060  -21.8140  -15.1540 C.2     1  UNL1        0.1160
     15  F         26.0920  -21.6520  -16.2260 F       1  UNL1       -0.2060
     16  C         25.5760  -22.8350  -14.2530 C.2     1  UNL1        0.0440
     17  C         24.7570  -23.0070  -13.1320 C.2     1  UNL1        0.0320
     18  N         18.7170  -22.6000   -6.7570 N.am    1  UNL1       -0.2420
     19  C         18.4550  -21.7870   -5.6710 C.2     1  UNL1        0.2690
     20  O         18.9840  -20.7750   -5.2490 O.2     1  UNL1       -0.2660
     21  C         17.3140  -22.3440   -4.9870 C.2     1  UNL1        0.0840
     22  C         16.6110  -21.9880   -3.8810 C.2     1  UNL1        0.1370
     23  C         16.9130  -23.4610   -5.6420 C.2     1  UNL1        0.1430
     24  N         15.5570  -22.7300   -3.4680 N.2     1  UNL1       -0.2530
     25  C         15.2450  -23.8290   -4.2000 C.2     1  UNL1        0.2330
     26  N         15.8850  -24.2520   -5.3010 N.2     1  UNL1       -0.2350
     27  C         17.8100  -23.6480   -6.7860 C.2     1  UNL1        0.2850
     28  O         17.7020  -24.5910   -7.5510 O.2     1  UNL1       -0.2650
@<TRIPOS>BOND
     1    15    14    1
     2    14    13    2
     3    14    16    1
     4    13    12    1
     5    16    17    2
     6    12    11    2
     7    17    11    1
     8    11     9    1
     9    10     9    1
    10     9     7   am
    11     7     8    2
    12     7     1    1
    13     2     1    2
    14     2     3    1
    15     1     6    1
    16     3     4    2
    17     6     5    2
    18     4     5    1
    19     4    18    1
    20    28    27    2
    21    27    18   am
    22    27    23    1
    23    18    19   am
    24    19    20    2
    25    19    21    1
    26    23    26    1
    27    23    21    2
    28    26    25    2
    29    21    22    1
    30    25    24    1
    31    22    24    2
