@<TRIPOS>MOLECULE
52560_out_ligand_01.pdbqt
 32 35 0 0 0
SMALL
GASTEIGER

@<TRIPOS>ATOM
      1  C         24.2080  -21.6760  -10.4480 C.ar    1  UNL1        0.7260
      2  N         25.2140  -20.8400  -10.6100 N.ar    1  UNL1       -0.0420
      3  C         25.2190  -20.5380  -11.9330 C.ar    1  UNL1        0.1860
      4  C         24.2260  -21.1850  -12.6110 C.ar    1  UNL1        0.1670
      5  C         24.0170  -20.9990  -14.0110 C.ar    1  UNL1        0.2800
      6  O         23.1160  -21.5020  -14.6770 O.2     1  UNL1       -0.2650
      7  N         24.9420  -20.1510  -14.5790 N.ar    1  UNL1       -0.2730
      8  C         25.9390  -19.4460  -13.9240 C.ar    1  UNL1        0.3300
      9  O         26.6370  -18.6630  -14.5710 O.2     1  UNL1       -0.2460
     10  N         26.0870  -19.6650  -12.5590 N.ar    1  UNL1       -0.2860
     11  C         27.1150  -18.9850  -11.7970 C.3     1  UNL1        0.1630
     12  N         23.5890  -21.9550  -11.6590 N.ar    1  UNL1       -0.1660
     13  H         24.8350  -19.9580  -15.5660 H       1  UNL1        0.1730
     14  N         23.8410  -22.1480   -9.2280 N.pl3   1  UNL1       -0.1070
     15  H         24.6610  -22.3230   -8.6430 H       1  UNL1        0.2080
     16  N         22.6880  -21.8130   -8.5760 N.3     1  UNL1       -0.1720
     17  C         21.9310  -22.8340   -8.2990 C.3     1  UNL1        0.1500
     18  C         20.6330  -22.6890   -7.6160 C.2     1  UNL1       -0.0170
     19  C         20.3680  -21.5660   -6.8220 C.2     1  UNL1        0.0130
     20  C         19.1320  -21.4540   -6.1740 C.2     1  UNL1        0.0070
     21  C         18.1590  -22.4620   -6.3260 C.2     1  UNL1       -0.0620
     22  C         16.8320  -22.3530   -5.6230 C.3     1  UNL1        0.0480
     23  C         18.4400  -23.5890   -7.1230 C.2     1  UNL1        0.0070
     24  C         19.6710  -23.7010   -7.7680 C.2     1  UNL1        0.0130
     25  C         22.4760  -22.8560  -11.9170 C.3     1  UNL1        0.1860
     26  C         21.1420  -22.1880  -11.6820 C.2     1  UNL1       -0.0390
     27  C         20.9460  -20.8380  -12.0140 C.2     1  UNL1        0.0100
     28  C         19.7090  -20.2240  -11.7980 C.2     1  UNL1        0.0240
     29  C         18.6640  -20.9500  -11.2430 C.2     1  UNL1        0.0340
     30 CL         17.1420  -20.1930  -10.9790 Cl      1  UNL1       -0.0840
     31  C         18.8410  -22.2890  -10.9050 C.2     1  UNL1        0.0240
     32  C         20.0710  -22.9070  -11.1280 C.2     1  UNL1        0.0100
@<TRIPOS>BOND
     1    13     7    1
     2     6     5    2
     3     7     5   ar
     4     7     8   ar
     5     9     8    2
     6     5     4   ar
     7     8    10   ar
     8     4     3   ar
     9     4    12   ar
    10    10     3   ar
    11    10    11    1
    12    27    28    1
    13    27    26    2
    14     3     2   ar
    15    25    26    1
    16    25    12    1
    17    28    29    2
    18    26    32    1
    19    12     1   ar
    20    29    30    1
    21    29    31    1
    22    32    31    2
    23     2     1   ar
    24     1    14    1
    25    14    15    1
    26    14    16    1
    27    16    17    1
    28    17    18    1
    29    24    18    2
    30    24    23    1
    31    18    19    1
    32    23    21    2
    33    19    20    2
    34    21    20    1
    35    21    22    1
