@<TRIPOS>MOLECULE
5256_out_ligand_01.pdbqt
 29 33 0 0 0
SMALL
GASTEIGER

@<TRIPOS>ATOM
      1  C         19.5420  -21.8190  -10.9400 C.2     1  UNL1        0.0330
      2  C         18.4070  -21.6500  -11.7440 C.2     1  UNL1        0.0190
      3  C         17.1200  -21.8110  -11.2170 C.2     1  UNL1        0.0310
      4  C         17.0120  -22.1530   -9.8640 C.ar    1  UNL1        0.0460
      5  N         15.8930  -22.3770   -9.0900 N.ar    1  UNL1       -0.3380
      6  C         16.2560  -22.6940   -7.8140 C.ar    1  UNL1        0.1580
      7  N         15.4140  -22.9680   -6.8010 N.ar    1  UNL1       -0.2270
      8  C         16.0680  -23.2470   -5.6570 C.ar    1  UNL1        0.0880
      9  C         15.3180  -23.5520   -4.5290 C.2     1  UNL1        0.0340
     10  C         15.9220  -23.8520   -3.3060 C.2     1  UNL1        0.0020
     11  C         17.3060  -23.8490   -3.2090 C.2     1  UNL1        0.0020
     12  C         18.0750  -23.5450   -4.3330 C.2     1  UNL1        0.0340
     13  C         17.4890  -23.2440   -5.5560 C.ar    1  UNL1        0.0860
     14  N         18.2950  -22.9610   -6.5940 N.ar    1  UNL1       -0.2420
     15  C         17.6400  -22.6820   -7.7480 C.ar    1  UNL1        0.1160
     16  C         18.1290  -22.3440   -9.0410 C.ar    1  UNL1        0.0240
     17  C         19.4150  -22.1810   -9.5910 C.2     1  UNL1        0.0330
     18  H         14.9350  -22.3210   -9.4030 H       1  UNL1        0.1670
     19  C         20.9130  -21.6480  -11.4980 C.2     1  UNL1        0.2560
     20  O         21.0460  -20.9890  -12.5220 O.2     1  UNL1       -0.2670
     21  N         21.9070  -22.3030  -10.7920 N.am    1  UNL1       -0.3230
     22  H         21.6060  -22.9120  -10.0430 H       1  UNL1        0.1690
     23  C         23.2920  -22.2920  -11.0550 C.2     1  UNL1        0.0360
     24  C         24.2190  -21.5400  -10.3290 C.2     1  UNL1        0.0290
     25  C         25.5800  -21.5850  -10.6480 C.2     1  UNL1        0.0040
     26  C         26.0290  -22.3860  -11.6960 C.2     1  UNL1        0.0190
     27  C         25.1100  -23.1390  -12.4200 C.2     1  UNL1        0.0130
     28 BR         25.7090  -24.2310  -13.8440 Br      1  UNL1       -0.0510
     29  C         23.7500  -23.0970  -12.1060 C.2     1  UNL1        0.0480
@<TRIPOS>BOND
     1    28    27    1
     2    20    19    2
     3    27    29    1
     4    27    26    2
     5    29    23    2
     6     2     3    1
     7     2     1    2
     8    26    25    1
     9    19     1    1
    10    19    21   am
    11     3     4    2
    12    23    21    1
    13    23    24    1
    14     1    17    1
    15    21    22    1
    16    25    24    2
    17     4     5   ar
    18     4    16   ar
    19    17    16    2
    20    18     5    1
    21     5     6   ar
    22    16    15   ar
    23     6    15   ar
    24     6     7   ar
    25    15    14   ar
    26     7     8   ar
    27    14    13   ar
    28     8    13   ar
    29     8     9    1
    30    13    12    1
    31     9    10    2
    32    12    11    2
    33    10    11    1
