@<TRIPOS>MOLECULE
5257_out_ligand_01.pdbqt
 27 30 0 0 0
SMALL
GASTEIGER

@<TRIPOS>ATOM
      1  C         21.8350  -21.9740   -9.6130 C.2     1  UNL1        0.0320
      2  C         20.5380  -22.1420  -10.0960 C.2     1  UNL1        0.0190
      3  C         19.4690  -22.3400   -9.2090 C.2     1  UNL1        0.0310
      4  C         19.6600  -22.3640   -7.8170 C.2     1  UNL1        0.0460
      5  C         20.9740  -22.1700   -7.3550 C.2     1  UNL1        0.0310
      6  C         22.0490  -21.9740   -8.2350 C.2     1  UNL1        0.0190
      7  N         18.5680  -22.5660   -6.9130 N.am    1  UNL1       -0.2440
      8  C         17.5350  -23.4660   -7.1020 C.2     1  UNL1        0.2680
      9  O         17.2850  -24.2600   -7.9890 O.2     1  UNL1       -0.2670
     10  C         16.6500  -23.3470   -5.9580 C.2     1  UNL1        0.0690
     11  C         15.4920  -23.9940   -5.6460 C.2     1  UNL1        0.1590
     12  C         17.1680  -22.3960   -5.1210 C.2     1  UNL1        0.0690
     13  N         14.8660  -23.6820   -4.4970 N.2     1  UNL1       -0.1620
     14  N         15.3950  -22.7120   -3.6410 N.2     1  UNL1       -0.1620
     15  C         16.5380  -22.0770   -3.9550 C.2     1  UNL1        0.1590
     16  C         18.3920  -21.8950   -5.7170 C.2     1  UNL1        0.2680
     17  O         19.0470  -21.0430   -5.1470 O.2     1  UNL1       -0.2670
     18  C         22.9430  -21.7630  -10.5890 C.2     1  UNL1        0.2560
     19  O         24.0010  -21.3080  -10.1740 O.2     1  UNL1       -0.2670
     20  N         22.6350  -22.0800  -11.9000 N.am    1  UNL1       -0.3220
     21  H         21.6730  -22.3210  -12.1040 H       1  UNL1        0.1690
     22  C         23.4990  -22.0140  -13.0150 C.2     1  UNL1        0.0520
     23  C         24.6610  -22.7670  -13.1590 C.2     1  UNL1        0.0320
     24  C         25.4410  -22.6290  -14.3080 C.2     1  UNL1        0.0210
     25  C         25.0300  -21.7370  -15.2850 C.2     1  UNL1        0.1160
     26  N         23.9110  -20.9890  -15.1890 N.2     1  UNL1       -0.2710
     27  C         23.1780  -21.1480  -14.0600 C.2     1  UNL1        0.1450
@<TRIPOS>BOND
     1    25    26    2
     2    25    24    1
     3    26    27    1
     4    24    23    2
     5    27    22    2
     6    23    22    1
     7    22    20    1
     8    21    20    1
     9    20    18   am
    10    18    19    2
    11    18     1    1
    12     2     1    2
    13     2     3    1
    14     1     6    1
    15     3     4    2
    16     6     5    2
    17     9     8    2
    18     4     5    1
    19     4     7    1
    20     8     7   am
    21     8    10    1
    22     7    16   am
    23    10    11    2
    24    10    12    1
    25    16    17    2
    26    16    12    1
    27    11    13    1
    28    12    15    2
    29    13    14    2
    30    15    14    1
