@<TRIPOS>MOLECULE
52570_out_ligand_01.pdbqt
 32 35 0 0 0
SMALL
GASTEIGER

@<TRIPOS>ATOM
      1  C         27.1020  -23.7040  -11.9800 C.3     1  UNL1        0.1630
      2  N         25.9370  -23.0510  -12.5450 N.ar    1  UNL1       -0.2860
      3  C         25.8720  -22.7640  -13.9050 C.ar    1  UNL1        0.3300
      4  O         26.7620  -23.0360  -14.7110 O.2     1  UNL1       -0.2460
      5  N         24.7300  -22.1300  -14.3610 N.ar    1  UNL1       -0.2730
      6  C         23.6460  -21.7230  -13.6150 C.ar    1  UNL1        0.2800
      7  O         22.6940  -21.1320  -14.1110 O.2     1  UNL1       -0.2650
      8  C         23.7780  -22.0570  -12.2400 C.ar    1  UNL1        0.1660
      9  C         24.8790  -22.6860  -11.7410 C.ar    1  UNL1        0.1860
     10  N         24.7850  -22.8840  -10.4010 N.ar    1  UNL1       -0.0420
     11  C         23.6210  -22.3630  -10.0490 C.ar    1  UNL1        0.7250
     12  N         22.9580  -21.8660  -11.1590 N.ar    1  UNL1       -0.1700
     13  H         24.7070  -21.9190  -15.3460 H       1  UNL1        0.1730
     14  N         23.0770  -22.2880   -8.8000 N.pl3   1  UNL1       -0.1070
     15  H         23.7240  -22.2330   -8.0160 H       1  UNL1        0.2080
     16  N         21.8870  -22.8610   -8.4290 N.2     1  UNL1       -0.1720
     17  C         21.1120  -22.1330   -7.6870 C.2     1  UNL1        0.1500
     18  C         19.7860  -22.6100   -7.2450 C.2     1  UNL1       -0.0170
     19  C         19.3560  -23.9090   -7.5310 C.2     1  UNL1        0.0140
     20  C         18.0970  -24.3350   -7.1010 C.2     1  UNL1        0.0240
     21  C         17.2760  -23.4610   -6.3900 C.2     1  UNL1        0.0340
     22 CL         15.7250  -23.9850   -5.8600 Cl      1  UNL1       -0.0840
     23  C         17.7010  -22.1630   -6.1040 C.2     1  UNL1        0.0240
     24  C         18.9600  -21.7330   -6.5330 C.2     1  UNL1        0.0140
     25  C         21.6360  -21.2690  -11.1990 C.3     1  UNL1        0.1530
     26  C         20.6120  -22.1950  -11.8510 C.3     1  UNL1        0.0590
     27  C         19.2250  -21.9410  -11.3190 C.2     1  UNL1       -0.0570
     28  C         18.5230  -22.9460  -10.6420 C.2     1  UNL1        0.0070
     29  C         17.2290  -22.7090  -10.1730 C.2     1  UNL1        0.0010
     30  C         16.6270  -21.4700  -10.3790 C.2     1  UNL1        0.0000
     31  C         17.3170  -20.4640  -11.0540 C.2     1  UNL1        0.0010
     32  C         18.6090  -20.6980  -11.5240 C.2     1  UNL1        0.0070
@<TRIPOS>BOND
     1    13     5    1
     2     4     3    2
     3     5     3   ar
     4     5     6   ar
     5     7     6    2
     6     3     2   ar
     7     6     8   ar
     8     2     1    1
     9     2     9   ar
    10     8     9   ar
    11     8    12   ar
    12    26    27    1
    13    26    25    1
    14     9    10   ar
    15    32    27    2
    16    32    31    1
    17    27    28    1
    18    25    12    1
    19    12    11   ar
    20    31    30    2
    21    28    29    2
    22    10    11   ar
    23    30    29    1
    24    11    14    1
    25    14    16    1
    26    14    15    1
    27    16    17    2
    28    17    18    1
    29    19    18    2
    30    19    20    1
    31    18    24    1
    32    20    21    2
    33    24    23    2
    34    21    23    1
    35    21    22    1
