@<TRIPOS>MOLECULE
52592_out_ligand_01.pdbqt
 30 32 0 0 0
SMALL
GASTEIGER

@<TRIPOS>ATOM
      1  C         17.6090  -22.4970   -9.7340 C.2     1  UNL1        0.0230
      2  C         16.8570  -21.5390  -10.4140 C.2     1  UNL1        0.0240
      3  C         17.4490  -20.7600  -11.4080 C.2     1  UNL1        0.0030
      4  C         18.7940  -20.9450  -11.7350 C.2     1  UNL1        0.0170
      5  C         19.5480  -21.9220  -11.0700 C.2     1  UNL1        0.0340
      6  C         18.9540  -22.6860  -10.0550 C.2     1  UNL1        0.0410
      7  N         17.0130  -23.2830   -8.6940 N.pl3   1  UNL1       -0.1810
      8  H         16.8220  -24.2420   -8.9860 H       1  UNL1        0.1460
      9  S         17.9000  -23.3320   -7.2360 S.O2    1  UNL1        0.2460
     10  O         18.2750  -24.7160   -7.0290 O.2     1  UNL1       -0.2060
     11  O         18.8840  -22.2730   -7.2140 O.2     1  UNL1       -0.2060
     12  C         16.6180  -22.9270   -6.0560 C.2     1  UNL1        0.0810
     13  C         16.7560  -23.2160   -4.6850 C.2     1  UNL1       -0.0390
     14  C         15.7000  -22.8660   -3.8280 C.2     1  UNL1        0.0090
     15  C         17.9530  -23.9130   -4.0990 C.3     1  UNL1        0.0500
     16  C         14.5490  -22.2410   -4.3150 C.2     1  UNL1        0.0070
     17  C         14.4110  -21.9690   -5.6780 C.2     1  UNL1       -0.0600
     18  C         13.1840  -21.2790   -6.1970 C.3     1  UNL1        0.0480
     19  C         15.4560  -22.3060   -6.5450 C.2     1  UNL1        0.0320
     20  C         20.9860  -22.1670  -11.3830 C.2     1  UNL1        0.2570
     21  O         21.6190  -22.9290  -10.6610 O.2     1  UNL1       -0.2670
     22  N         21.4630  -21.5290  -12.5030 N.am    1  UNL1       -0.3070
     23  H         20.8330  -21.0230  -13.1080 H       1  UNL1        0.1700
     24  C         22.7600  -21.5480  -13.0190 C.2     1  UNL1        0.1300
     25  C         23.8590  -22.0900  -12.3620 C.2     1  UNL1        0.0530
     26  C         25.1080  -22.0430  -12.9820 C.2     1  UNL1        0.0470
     27  C         25.2160  -21.4570  -14.2300 C.2     1  UNL1        0.1340
     28  F         26.3980  -21.3940  -14.8530 F       1  UNL1       -0.2050
     29  C         24.0780  -20.9370  -14.8170 C.2     1  UNL1        0.1610
     30  N         22.8530  -20.9680  -14.2380 N.2     1  UNL1       -0.2400
@<TRIPOS>BOND
     1    28    27    1
     2    29    30    1
     3    29    27    2
     4    30    24    2
     5    27    26    1
     6    23    22    1
     7    24    22    1
     8    24    25    1
     9    26    25    2
    10    22    20   am
    11     4     3    2
    12     4     5    1
    13     3     2    1
    14    20     5    1
    15    20    21    2
    16     5     6    2
    17     2     1    2
    18     6     1    1
    19     1     7    1
    20     8     7    1
    21     7     9    1
    22     9    11    2
    23     9    10    2
    24     9    12    1
    25    19    12    2
    26    19    17    1
    27    18    17    1
    28    12    13    1
    29    17    16    2
    30    13    15    1
    31    13    14    2
    32    16    14    1
