@<TRIPOS>MOLECULE
52607_out_ligand_01.pdbqt
 37 40 0 0 0
SMALL
GASTEIGER

@<TRIPOS>ATOM
      1  N         17.9490  -21.8940   -6.2660 N.pl3   1  UNL1       -0.2830
      2  H         17.5530  -21.2820   -6.9990 H       1  UNL1        0.1280
      3  C         19.0020  -21.1770   -5.5430 C.3     1  UNL1        0.1950
      4  C         20.3270  -21.1530   -6.3210 C.2     1  UNL1        0.2350
      5  N         20.3800  -22.1020   -7.3240 N.am    1  UNL1       -0.3250
      6  H         19.5780  -22.7280   -7.4060 H       1  UNL1        0.1690
      7  O         21.2110  -20.3480   -6.0440 O.2     1  UNL1       -0.2720
      8  C         21.4210  -22.3710   -8.2460 C.2     1  UNL1        0.0510
      9  C         22.3680  -21.3920   -8.5920 C.2     1  UNL1        0.0700
     10  C         23.3420  -21.7200   -9.5120 C.2     1  UNL1        0.1070
     11  C         23.4010  -22.9650  -10.0950 C.2     1  UNL1        0.1060
     12  O         24.3350  -20.8930   -9.9450 O.2     1  UNL1       -0.3230
     13  C         22.5040  -23.9650   -9.7820 C.2     1  UNL1        0.0570
     14  O         24.4260  -23.0740  -10.9830 O.2     1  UNL1       -0.3230
     15  C         21.5000  -23.6770   -8.8390 C.2     1  UNL1        0.0390
     16  C         25.0390  -21.7700  -10.8520 C.3     1  UNL1        0.3520
     17  C         20.5170  -24.7550   -8.4650 C.2     1  UNL1        0.1580
     18  C         19.2440  -24.3810   -7.7450 C.3     1  UNL1        0.0970
     19  O         20.7530  -25.9320   -8.7500 O.2     1  UNL1       -0.2930
     20  C         16.8920  -22.5060   -5.5640 C.2     1  UNL1        0.0240
     21  C         16.8480  -22.5310   -4.1610 C.2     1  UNL1        0.0240
     22  C         15.8280  -23.1960   -3.4670 C.2     1  UNL1        0.0020
     23  C         14.8370  -23.8790   -4.1620 C.2     1  UNL1        0.0010
     24  C         14.8810  -23.9220   -5.5530 C.2     1  UNL1        0.0190
     25  C         15.9130  -23.2690   -6.2520 C.2     1  UNL1        0.0530
     26  C         15.9380  -23.3640   -7.7410 C.2     1  UNL1        0.2530
     27  O         15.8530  -24.4550   -8.2970 O.2     1  UNL1       -0.2680
     28  N         16.0350  -22.1660   -8.4220 N.am    1  UNL1       -0.3530
     29  H         15.8510  -21.3100   -7.9100 H       1  UNL1        0.1630
     30  C         15.9020  -22.1090   -9.8630 C.3     1  UNL1        0.1610
     31  C         17.2390  -21.8680  -10.5170 C.2     1  UNL1       -0.0410
     32  C         18.1820  -22.9070  -10.6060 C.2     1  UNL1        0.0090
     33  C         19.4200  -22.6950  -11.2180 C.2     1  UNL1        0.0070
     34  C         19.7400  -21.4380  -11.7480 C.2     1  UNL1       -0.0620
     35  C         21.0690  -21.2210  -12.4080 C.3     1  UNL1        0.0480
     36  C         18.7950  -20.4020  -11.6710 C.2     1  UNL1        0.0070
     37  C         17.5560  -20.6150  -11.0610 C.2     1  UNL1        0.0090
@<TRIPOS>BOND
     1    35    34    1
     2    34    36    2
     3    34    33    1
     4    36    37    1
     5    33    32    2
     6    37    31    2
     7    14    16    1
     8    14    11    1
     9    16    12    1
    10    32    31    1
    11    31    30    1
    12    11    13    2
    13    11    10    1
    14    12    10    1
    15    30    28    1
    16    13    15    1
    17    10     9    2
    18    15    17    1
    19    15     8    2
    20    19    17    2
    21     9     8    1
    22    17    18    1
    23    28    29    1
    24    28    26   am
    25    27    26    2
    26     8     5    1
    27    26    25    1
    28     6     5    1
    29     5     4   am
    30     2     1    1
    31     4     7    2
    32     4     3    1
    33     1    20    1
    34     1     3    1
    35    25    20    2
    36    25    24    1
    37    20    21    1
    38    24    23    2
    39    23    22    1
    40    21    22    2
