@<TRIPOS>MOLECULE
52600_out_ligand_01.pdbqt
 35 38 0 0 0
SMALL
GASTEIGER

@<TRIPOS>ATOM
      1  N         23.0890  -21.2600   -9.9770 N.pl3   1  UNL1       -0.2830
      2  H         23.3800  -20.2700   -9.9280 H       1  UNL1        0.1280
      3  C         23.0250  -21.8560   -8.6220 C.3     1  UNL1        0.1950
      4  C         21.7800  -22.7440   -8.4540 C.2     1  UNL1        0.2350
      5  O         21.6400  -23.7720   -9.1090 O.2     1  UNL1       -0.2720
      6  N         20.9080  -22.2410   -7.5070 N.am    1  UNL1       -0.3260
      7  H         21.2300  -21.3580   -7.1040 H       1  UNL1        0.1690
      8  C         19.6700  -22.7500   -7.0870 C.2     1  UNL1        0.0370
      9  C         19.1390  -23.9650   -7.5240 C.2     1  UNL1        0.0320
     10  C         17.8890  -24.3930   -7.0660 C.2     1  UNL1        0.0420
     11  C         17.1530  -23.6130   -6.1730 C.2     1  UNL1        0.1020
     12  C         17.7030  -22.4200   -5.6880 C.2     1  UNL1        0.1040
     13  O         15.9210  -24.1180   -5.8380 O.2     1  UNL1       -0.3480
     14  C         18.9440  -21.9830   -6.1680 C.2     1  UNL1        0.0690
     15  O         17.1200  -21.5930   -4.7590 O.2     1  UNL1       -0.3480
     16  C         16.3910  -22.2960   -3.7520 C.3     1  UNL1        0.1780
     17  C         14.9710  -22.5860   -4.2060 C.3     1  UNL1        0.0530
     18  C         14.9290  -23.1110   -5.6320 C.3     1  UNL1        0.1780
     19  C         23.8870  -21.9350  -10.9300 C.2     1  UNL1        0.0240
     20  C         25.0670  -22.5800  -10.5140 C.2     1  UNL1        0.0240
     21  C         25.8370  -23.3310  -11.4040 C.2     1  UNL1        0.0020
     22  C         25.4350  -23.4700  -12.7270 C.2     1  UNL1        0.0010
     23  C         24.2680  -22.8450  -13.1670 C.2     1  UNL1        0.0190
     24  C         23.4970  -22.0610  -12.2880 C.2     1  UNL1        0.0530
     25  C         22.2750  -21.3520  -12.7940 C.2     1  UNL1        0.2530
     26  O         22.2520  -20.8880  -13.9310 O.2     1  UNL1       -0.2680
     27  N         21.1850  -21.3020  -11.9480 N.am    1  UNL1       -0.3530
     28  H         21.1610  -21.9040  -11.1370 H       1  UNL1        0.1630
     29  C         19.9070  -20.7830  -12.3880 C.3     1  UNL1        0.1610
     30  C         18.7870  -21.3670  -11.5660 C.2     1  UNL1       -0.0410
     31  C         17.6090  -20.6340  -11.3550 C.2     1  UNL1        0.0090
     32  C         16.5580  -21.1790  -10.6170 C.2     1  UNL1        0.0010
     33  C         16.6710  -22.4620  -10.0860 C.2     1  UNL1        0.0000
     34  C         17.8330  -23.2040  -10.2960 C.2     1  UNL1        0.0010
     35  C         18.8860  -22.6610  -11.0350 C.2     1  UNL1        0.0090
@<TRIPOS>BOND
     1    26    25    2
     2    23    22    2
     3    23    24    1
     4    25    24    1
     5    25    27   am
     6    22    21    1
     7    29    27    1
     8    29    30    1
     9    24    19    2
    10    27    28    1
    11    30    31    2
    12    30    35    1
    13    21    20    2
    14    31    32    1
    15    35    34    2
    16    19    20    1
    17    19     1    1
    18    32    33    2
    19    34    33    1
    20     1     2    1
    21     1     3    1
    22     5     4    2
    23     3     4    1
    24     4     6   am
    25     9     8    2
    26     9    10    1
    27     6     7    1
    28     6     8    1
    29     8    14    1
    30    10    11    2
    31    11    13    1
    32    11    12    1
    33    14    12    2
    34    13    18    1
    35    12    15    1
    36    18    17    1
    37    15    16    1
    38    17    16    1
