@<TRIPOS>MOLECULE
52626_out_ligand_01.pdbqt
 33 36 0 0 0
SMALL
GASTEIGER

@<TRIPOS>ATOM
      1  N         19.4230  -24.0170   -9.4680 N.pl3   1  UNL1       -0.2830
      2  H         20.3650  -24.4140   -9.6230 H       1  UNL1        0.1280
      3  C         19.1050  -24.0310   -8.0300 C.3     1  UNL1        0.1950
      4  C         17.5890  -23.9290   -7.7770 C.2     1  UNL1        0.2380
      5  N         17.1580  -23.4560   -6.5400 N.am    1  UNL1       -0.3060
      6  C         15.8430  -23.9230   -6.0960 C.3     1  UNL1        0.2350
      7  C         17.7930  -22.4640   -5.7360 C.2     1  UNL1        0.0640
      8  C         15.6610  -24.0040   -4.5880 C.2     1  UNL1        0.2400
      9  O         14.7680  -24.6620   -4.0560 O.2     1  UNL1       -0.2710
     10  N         16.4620  -23.1940   -3.8300 N.am    1  UNL1       -0.3240
     11  C         17.4460  -22.3660   -4.3760 C.2     1  UNL1        0.0610
     12  H         16.2570  -23.1730   -2.8390 H       1  UNL1        0.1690
     13  C         18.0830  -21.4500   -3.5350 C.2     1  UNL1        0.0320
     14  C         19.0410  -20.5830   -4.0530 C.2     1  UNL1        0.0020
     15  C         19.3520  -20.6260   -5.4090 C.2     1  UNL1        0.0020
     16  C         18.7270  -21.5550   -6.2470 C.2     1  UNL1        0.0320
     17  O         16.7860  -24.3530   -8.6150 O.2     1  UNL1       -0.2720
     18  C         19.3280  -22.8140  -10.1990 C.2     1  UNL1        0.0240
     19  C         18.0920  -22.2130  -10.4910 C.2     1  UNL1        0.0240
     20  C         18.0070  -21.0470  -11.2590 C.2     1  UNL1        0.0020
     21  C         19.1560  -20.4630  -11.7800 C.2     1  UNL1        0.0010
     22  C         20.3920  -21.0630  -11.5560 C.2     1  UNL1        0.0190
     23  C         20.4780  -22.2460  -10.7990 C.2     1  UNL1        0.0530
     24  C         21.8200  -22.8760  -10.6110 C.2     1  UNL1        0.2580
     25  O         21.9850  -23.6410   -9.6680 O.2     1  UNL1       -0.2670
     26  N         22.7490  -22.5400  -11.5820 N.am    1  UNL1       -0.3230
     27  H         22.4060  -22.0100  -12.3720 H       1  UNL1        0.1690
     28  C         24.1010  -22.9350  -11.6480 C.2     1  UNL1        0.0350
     29  C         24.5160  -23.6030  -12.8070 C.2     1  UNL1        0.0290
     30  C         25.8420  -24.0210  -12.9550 C.2     1  UNL1        0.0020
     31  C         26.7650  -23.7760  -11.9430 C.2     1  UNL1        0.0000
     32  C         26.3620  -23.1100  -10.7880 C.2     1  UNL1        0.0020
     33  C         25.0360  -22.6890  -10.6410 C.2     1  UNL1        0.0290
@<TRIPOS>BOND
     1    30    29    1
     2    30    31    2
     3    29    28    2
     4    27    26    1
     5    31    32    1
     6    21    22    2
     7    21    20    1
     8    28    26    1
     9    28    33    1
    10    26    24   am
    11    22    23    1
    12    20    19    2
    13    23    24    1
    14    23    18    2
    15    32    33    2
    16    24    25    2
    17    19    18    1
    18    18     1    1
    19     2     1    1
    20     1     3    1
    21    17     4    2
    22     3     4    1
    23     4     5   am
    24     5     6    1
    25     5     7    1
    26    16     7    2
    27    16    15    1
    28     6     8    1
    29     7    11    1
    30    15    14    2
    31     8     9    2
    32     8    10   am
    33    11    10    1
    34    11    13    2
    35    14    13    1
    36    10    12    1
