@<TRIPOS>MOLECULE
52620_out_ligand_01.pdbqt
 35 38 0 0 0
SMALL
GASTEIGER

@<TRIPOS>ATOM
      1  C         22.4140  -22.5100   -9.9070 C.2     1  UNL1        0.2530
      2  O         22.6520  -23.7180   -9.8830 O.2     1  UNL1       -0.2710
      3  N         22.5510  -21.7240  -11.0630 N.am    1  UNL1       -0.3020
      4  C         23.8980  -21.5080  -11.5280 C.2     1  UNL1        0.0710
      5  C         24.9590  -21.3920  -10.6150 C.2     1  UNL1        0.0330
      6  C         26.2690  -21.2030  -11.0640 C.2     1  UNL1        0.0020
      7  C         26.5390  -21.1260  -12.4280 C.2     1  UNL1        0.0030
      8  C         25.4950  -21.2250  -13.3470 C.2     1  UNL1        0.0390
      9  C         24.1810  -21.3980  -12.9010 C.2     1  UNL1        0.0950
     10  O         23.2350  -21.4960  -13.8910 O.2     1  UNL1       -0.3460
     11  C         21.9220  -21.2130  -13.4030 C.3     1  UNL1        0.2060
     12  C         21.6020  -22.0380  -12.1470 C.3     1  UNL1        0.1500
     13  C         21.8040  -21.7800   -8.7000 C.3     1  UNL1        0.3730
     14  N         21.2300  -22.7250   -7.7230 N.3     1  UNL1        0.1000
     15  H         20.9200  -22.1780   -6.9180 H       1  UNL1        0.3170
     16  C         20.0740  -23.4510   -8.2610 C.3     1  UNL1        0.2500
     17  C         20.3880  -24.9330   -8.4940 C.3     1  UNL1        0.0480
     18  C         18.8930  -23.2970   -7.3100 C.2     1  UNL1       -0.0260
     19  C         18.8340  -22.2320   -6.3920 C.2     1  UNL1        0.0110
     20  C         17.7410  -22.0830   -5.5390 C.2     1  UNL1        0.0250
     21  C         16.6970  -23.0070   -5.5950 C.2     1  UNL1        0.0740
     22  C         16.7280  -24.0660   -6.5080 C.2     1  UNL1        0.0250
     23  C         17.8250  -24.2090   -7.3580 C.2     1  UNL1        0.0110
     24  S         15.2920  -22.8200   -4.5290 S.O2    1  UNL1        0.2390
     25  O         14.4370  -21.7880   -5.0680 O.2     1  UNL1       -0.2060
     26  O         14.8030  -24.1360   -4.1880 O.2     1  UNL1       -0.2060
     27  N         16.0000  -22.1530   -3.1530 N.3     1  UNL1       -0.2250
     28  H         16.7850  -22.7400   -2.8670 H       1  UNL1        0.1360
     29  H         15.3360  -21.9940   -2.3940 H       1  UNL1        0.1360
     30  C         20.1590  -21.8060  -11.7060 C.2     1  UNL1       -0.0330
     31  C         19.3260  -22.8650  -11.3050 C.2     1  UNL1        0.0090
     32  C         18.0040  -22.6250  -10.9230 C.2     1  UNL1        0.0010
     33  C         17.4970  -21.3280  -10.9450 C.2     1  UNL1        0.0000
     34  C         18.3070  -20.2700  -11.3520 C.2     1  UNL1        0.0010
     35  C         19.6290  -20.5060  -11.7310 C.2     1  UNL1        0.0090
@<TRIPOS>BOND
     1    10    11    1
     2    10     9    1
     3    11    12    1
     4     8     9    1
     5     8     7    2
     6     9     4    2
     7     7     6    1
     8    12    30    1
     9    12     3    1
    10    35    30    2
    11    35    34    1
    12    30    31    1
    13     4     3    1
    14     4     5    1
    15    34    33    2
    16    31    32    2
    17     6     5    2
    18     3     1   am
    19    33    32    1
    20     1     2    2
    21     1    13    1
    22    13    14    1
    23    17    16    1
    24    16    14    1
    25    16    18    1
    26    14    15    1
    27    23    18    2
    28    23    22    1
    29    18    19    1
    30    22    21    2
    31    19    20    2
    32    21    20    1
    33    21    24    1
    34    25    24    2
    35    24    26    2
    36    24    27    1
    37    27    28    1
    38    27    29    1
