@<TRIPOS>MOLECULE
52630_out_ligand_01.pdbqt
 30 34 0 0 0
SMALL
GASTEIGER

@<TRIPOS>ATOM
      1  C         21.3660  -22.1580  -11.4190 C.2     1  UNL1        0.0320
      2  C         20.2460  -21.7210  -12.1350 C.2     1  UNL1        0.0180
      3  C         18.9870  -21.7120  -11.5300 C.2     1  UNL1        0.0190
      4  C         18.8480  -22.1170  -10.1980 C.2     1  UNL1        0.0450
      5  C         19.9720  -22.5250   -9.4660 C.2     1  UNL1       -0.0380
      6  C         21.2320  -22.5540  -10.0800 C.2     1  UNL1        0.0250
      7  C         19.7880  -22.9540   -8.0370 C.3     1  UNL1        0.0770
      8  C         18.6310  -22.1510   -7.4380 C.3     1  UNL1        0.1690
      9  O         17.4450  -22.3550   -8.2400 O.3     1  UNL1       -0.3070
     10  C         17.4950  -22.1400   -9.5790 C.2     1  UNL1        0.2940
     11  O         16.4850  -22.0020  -10.2550 O.2     1  UNL1       -0.2590
     12  C         22.6910  -22.1550  -12.1000 C.2     1  UNL1        0.2560
     13  O         23.6180  -22.7380  -11.5550 O.2     1  UNL1       -0.2670
     14  N         22.7260  -21.4460  -13.2880 N.am    1  UNL1       -0.3230
     15  H         21.9060  -20.9060  -13.5260 H       1  UNL1        0.1690
     16  C         23.8200  -21.3080  -14.1680 C.2     1  UNL1        0.0350
     17  C         24.7440  -20.2800  -13.8800 C.2     1  UNL1        0.0300
     18  C         25.8570  -20.0510  -14.6960 C.2     1  UNL1        0.0100
     19  C         26.0410  -20.8670  -15.7960 C.2     1  UNL1       -0.0520
     20  C         25.1320  -21.8840  -16.0910 C.2     1  UNL1       -0.0500
     21  C         27.1210  -20.8000  -16.8290 C.3     1  UNL1        0.0390
     22  C         24.0170  -22.1110  -15.2940 C.2     1  UNL1        0.0370
     23  C         25.5160  -22.5950  -17.3510 C.3     1  UNL1        0.0390
     24  C         26.9890  -22.1810  -17.4880 C.3     1  UNL1        0.0090
     25  C         18.2680  -22.4730   -5.9980 C.2     1  UNL1       -0.0290
     26  C         17.7390  -23.7070   -5.5870 C.2     1  UNL1        0.0100
     27  C         17.4440  -23.9460   -4.2410 C.2     1  UNL1        0.0010
     28  C         17.6720  -22.9600   -3.2850 C.2     1  UNL1        0.0000
     29  C         18.1960  -21.7310   -3.6720 C.2     1  UNL1        0.0010
     30  C         18.4920  -21.4910   -5.0150 C.2     1  UNL1        0.0100
@<TRIPOS>BOND
     1    24    23    1
     2    24    21    1
     3    23    20    1
     4    21    19    1
     5    20    19    2
     6    20    22    1
     7    19    18    1
     8    22    16    2
     9    18    17    2
    10    16    17    1
    11    16    14    1
    12    15    14    1
    13    14    12   am
    14     2     3    1
    15     2     1    2
    16    12    13    2
    17    12     1    1
    18     3     4    2
    19     1     6    1
    20    11    10    2
    21     4    10    1
    22     4     5    1
    23     6     5    2
    24    10     9    1
    25     5     7    1
    26     9     8    1
    27     7     8    1
    28     8    25    1
    29    25    26    2
    30    25    30    1
    31    26    27    1
    32    30    29    2
    33    27    28    2
    34    29    28    1
