@<TRIPOS>MOLECULE
52655_out_ligand_01.pdbqt
 36 40 0 0 0
SMALL
GASTEIGER

@<TRIPOS>ATOM
      1  C         23.5040  -22.0670  -12.7030 C.2     1  UNL1        0.0320
      2  C         24.5250  -22.7010  -11.9860 C.2     1  UNL1        0.0170
      3  C         24.2500  -23.2600  -10.7360 C.2     1  UNL1        0.0100
      4  C         22.9520  -23.2140  -10.2000 C.2     1  UNL1       -0.0400
      5  C         21.9300  -22.5930  -10.9430 C.2     1  UNL1        0.0100
      6  C         22.2020  -22.0200  -12.1880 C.2     1  UNL1        0.0170
      7  C         22.6530  -23.8070   -8.8370 C.3     1  UNL1        0.1750
      8  N         21.4090  -23.3260   -8.2830 N.am    1  UNL1       -0.2630
      9  C         21.2570  -22.1310   -7.6510 C.2     1  UNL1        0.3260
     10  O         22.1160  -21.3030   -7.4100 O.2     1  UNL1       -0.2470
     11  N         19.9330  -21.9790   -7.3170 N.am    1  UNL1       -0.3200
     12  C         19.1080  -23.0850   -7.7590 C.3     1  UNL1        0.1440
     13  H         19.5830  -21.1070   -6.9400 H       1  UNL1        0.1650
     14  C         18.5210  -23.8000   -6.5300 C.3     1  UNL1        0.0470
     15  C         20.2060  -23.9680   -8.3990 C.2     1  UNL1        0.2610
     16  C         18.0710  -22.6470   -8.7850 C.2     1  UNL1       -0.0140
     17  C         17.4160  -24.7760   -6.9190 C.3     1  UNL1        0.0080
     18  C         16.2710  -24.0290   -7.6030 C.3     1  UNL1        0.0390
     19  C         16.7450  -23.1350   -8.7260 C.2     1  UNL1       -0.0490
     20  C         15.8140  -22.7400   -9.7010 C.2     1  UNL1        0.0070
     21  C         16.1870  -21.8870  -10.7400 C.2     1  UNL1        0.0010
     22  C         17.4920  -21.4070  -10.8110 C.2     1  UNL1        0.0010
     23  C         18.4250  -21.7840   -9.8430 C.2     1  UNL1        0.0110
     24  O         20.0320  -25.0610   -8.9270 O.2     1  UNL1       -0.2700
     25  C         23.8410  -21.4260  -13.9980 C.2     1  UNL1        0.2560
     26  N         24.8890  -20.5270  -13.9110 N.am    1  UNL1       -0.3230
     27  H         25.3470  -20.4490  -13.0090 H       1  UNL1        0.1690
     28  O         23.2190  -21.7670  -15.0000 O.2     1  UNL1       -0.2670
     29  C         25.4670  -19.7830  -14.9550 C.2     1  UNL1        0.0350
     30  C         25.1910  -20.1990  -16.2630 C.2     1  UNL1        0.0320
     31  C         25.7180  -19.5120  -17.3640 C.2     1  UNL1        0.0390
     32  C         26.5350  -18.4020  -17.1690 C.2     1  UNL1        0.0680
     33  C         26.8160  -17.9910  -15.8660 C.2     1  UNL1        0.0390
     34  C         26.2850  -18.6720  -14.7630 C.2     1  UNL1        0.0320
     35  O         27.1210  -17.6510  -18.1510 O.2     1  UNL1       -0.3560
     36  C         27.0160  -16.2360  -18.0250 C.3     1  UNL1        0.2100
@<TRIPOS>BOND
     1    35    36    1
     2    35    32    1
     3    31    32    2
     4    31    30    1
     5    32    33    1
     6    30    29    2
     7    33    34    2
     8    28    25    2
     9    29    34    1
    10    29    26    1
    11    25    26   am
    12    25     1    1
    13    26    27    1
    14     1     6    2
    15     1     2    1
    16     6     5    1
    17     2     3    2
    18     5     4    2
    19    22    21    2
    20    22    23    1
    21    21    20    1
    22     3     4    1
    23     4     7    1
    24    23    16    2
    25    20    19    2
    26    24    15    2
    27     7     8    1
    28    16    19    1
    29    16    12    1
    30    19    18    1
    31    15     8   am
    32    15    12    1
    33     8     9   am
    34    12    11    1
    35    12    14    1
    36     9    10    2
    37     9    11   am
    38    18    17    1
    39    11    13    1
    40    17    14    1
