@<TRIPOS>MOLECULE
52666_out_ligand_01.pdbqt
 29 32 0 0 0
SMALL
GASTEIGER

@<TRIPOS>ATOM
      1  C         19.6750  -22.4220  -10.3000 C.2     1  UNL1        0.0330
      2  C         18.3130  -22.0850  -10.3110 C.2     1  UNL1        0.0180
      3  C         17.4360  -22.6590   -9.3880 C.2     1  UNL1        0.0260
      4  C         17.9320  -23.5600   -8.4440 C.2     1  UNL1        0.0800
      5  C         19.2890  -23.9000   -8.4160 C.2     1  UNL1        0.0260
      6  C         20.1620  -23.3250   -9.3430 C.2     1  UNL1        0.0180
      7  S         16.8340  -24.3120   -7.2520 S.O2    1  UNL1        0.2650
      8  O         17.6940  -25.0870   -6.3810 O.2     1  UNL1       -0.2000
      9  O         15.7570  -24.9400   -7.9900 O.2     1  UNL1       -0.2000
     10  N         16.2050  -22.9300   -6.4280 N.pl3   1  UNL1       -0.2710
     11  C         14.8400  -23.1020   -5.8480 C.3     1  UNL1        0.1420
     12  C         14.9100  -23.6400   -4.4290 C.3     1  UNL1        0.0260
     13  C         15.6750  -22.6760   -3.5370 C.3     1  UNL1        0.0420
     14  C         16.9310  -22.1540   -4.1810 C.2     1  UNL1       -0.0310
     15  C         17.8700  -21.4880   -3.3750 C.2     1  UNL1        0.0090
     16  C         17.1500  -22.2440   -5.5660 C.2     1  UNL1        0.0510
     17  C         19.0110  -20.9180   -3.9350 C.2     1  UNL1        0.0010
     18  C         19.2170  -20.9920   -5.3090 C.2     1  UNL1        0.0020
     19  C         18.2870  -21.6440   -6.1190 C.2     1  UNL1        0.0310
     20  C         20.5670  -21.7760  -11.3040 C.2     1  UNL1        0.2700
     21  O         20.1700  -20.7890  -11.9200 O.2     1  UNL1       -0.2670
     22  N         21.7980  -22.3670  -11.4840 N.am    1  UNL1       -0.1520
     23  H         22.0660  -23.2270  -11.0250 H       1  UNL1        0.1870
     24  C         22.7200  -21.8680  -12.3680 C.2     1  UNL1        0.7260
     25  N         24.0230  -21.8690  -12.2090 N.2     1  UNL1        0.0430
     26  N         24.5840  -21.2750  -13.3210 N.2     1  UNL1       -0.1290
     27  C         23.6040  -20.9330  -14.1250 C.2     1  UNL1        0.2490
     28  N         22.4160  -21.2850  -13.5670 N.pl3   1  UNL1       -0.1810
     29  H         21.4810  -21.1660  -13.9330 H       1  UNL1        0.1850
@<TRIPOS>BOND
     1    27    28    1
     2    27    26    2
     3    29    28    1
     4    28    24    1
     5    26    25    1
     6    24    25    2
     7    24    22    1
     8    21    20    2
     9    22    20   am
    10    22    23    1
    11    20     1    1
    12     2     1    2
    13     2     3    1
    14     1     6    1
    15     3     4    2
    16     6     5    2
    17     4     5    1
    18     4     7    1
    19     9     7    2
    20     7    10    1
    21     7     8    2
    22    10    11    1
    23    10    16    1
    24    19    16    1
    25    19    18    2
    26    11    12    1
    27    16    14    2
    28    18    17    1
    29    12    13    1
    30    14    13    1
    31    14    15    1
    32    17    15    2
