@<TRIPOS>MOLECULE
52664_out_ligand_01.pdbqt
 29 31 0 0 0
SMALL
GASTEIGER

@<TRIPOS>ATOM
      1  C         23.4050  -22.0360  -12.5950 C.2     1  UNL1       -0.0540
      2  C         23.5740  -22.8820  -11.4970 C.2     1  UNL1        0.0100
      3  C         22.5190  -23.1330  -10.6110 C.2     1  UNL1        0.0310
      4  C         21.2530  -22.5590  -10.7930 C.2     1  UNL1        0.0430
      5  C         21.0740  -21.7160  -11.9100 C.2     1  UNL1       -0.0310
      6  C         22.1460  -21.4570  -12.7880 C.2     1  UNL1        0.0170
      7  C         19.7610  -21.0320  -12.1880 C.3     1  UNL1        0.0420
      8  C         18.6170  -21.7440  -11.4950 C.3     1  UNL1        0.0250
      9  C         18.9710  -21.9440  -10.0330 C.3     1  UNL1        0.1330
     10  N         20.1780  -22.7630   -9.8540 N.am    1  UNL1       -0.3130
     11  C         20.2510  -23.7050   -8.8140 C.2     1  UNL1        0.2580
     12  O         20.9570  -24.7090   -8.7870 O.2     1  UNL1       -0.2670
     13  C         19.4000  -23.4830   -7.6180 C.2     1  UNL1        0.0320
     14  C         19.5150  -22.2860   -6.9080 C.2     1  UNL1        0.0170
     15  C         18.6870  -22.0500   -5.8080 C.2     1  UNL1        0.0100
     16  C         17.7300  -23.0010   -5.4220 C.2     1  UNL1       -0.0400
     17  C         17.6050  -24.1870   -6.1620 C.2     1  UNL1        0.0100
     18  C         18.4350  -24.4290   -7.2580 C.2     1  UNL1        0.0170
     19  C         16.7930  -22.7250   -4.2750 C.3     1  UNL1        0.1620
     20  N         15.7270  -21.8490   -4.6950 N.am    1  UNL1       -0.3390
     21  C         14.5680  -22.3740   -5.1750 C.2     1  UNL1        0.3140
     22  N         13.6380  -21.4170   -5.4150 N.am    1  UNL1       -0.3520
     23  O         14.3460  -23.5580   -5.3830 O.2     1  UNL1       -0.2480
     24  H         12.8310  -21.7700   -5.9220 H       1  UNL1        0.1600
     25  H         13.9760  -20.5170   -5.7280 H       1  UNL1        0.1600
     26  H         15.6320  -20.9790   -4.1950 H       1  UNL1        0.1640
     27  C         24.5390  -21.7320  -13.5550 C.3     1  UNL1        0.0100
     28  C         24.1120  -20.7340  -14.6330 C.3     1  UNL1        0.0150
     29  C         25.1000  -23.0090  -14.1850 C.3     1  UNL1        0.0150
@<TRIPOS>BOND
     1    28    27    1
     2    29    27    1
     3    27     1    1
     4     6     1    2
     5     6     5    1
     6     1     2    1
     7     7     5    1
     8     7     8    1
     9     5     4    2
    10     2     3    2
    11     8     9    1
    12     4     3    1
    13     4    10    1
    14     9    10    1
    15    10    11   am
    16    11    12    2
    17    11    13    1
    18    13    18    2
    19    13    14    1
    20    18    17    1
    21    14    15    2
    22    17    16    2
    23    24    22    1
    24    15    16    1
    25    25    22    1
    26    16    19    1
    27    22    21   am
    28    23    21    2
    29    21    20   am
    30    20    19    1
    31    20    26    1
