@<TRIPOS>MOLECULE
52708_out_ligand_01.pdbqt
 31 33 0 0 0
SMALL
GASTEIGER

@<TRIPOS>ATOM
      1  N         21.4300  -22.3690  -10.1810 N.am    1  UNL1       -0.3200
      2  C         20.0820  -22.2200  -10.4440 C.2     1  UNL1        0.2630
      3  O         19.6040  -22.0250  -11.5560 O.2     1  UNL1       -0.2670
      4  H         21.7130  -22.4450   -9.2100 H       1  UNL1        0.1690
      5  C         19.2590  -22.3050   -9.2400 C.ar    1  UNL1        0.0820
      6  S         17.5760  -22.5460   -9.4430 S.2     1  UNL1       -0.0640
      7  C         17.2950  -22.4870   -7.7710 C.ar    1  UNL1        0.1100
      8  N         16.0430  -22.6020   -7.2850 N.2     1  UNL1       -0.2360
      9  C         18.4620  -22.3180   -7.0370 C.ar    1  UNL1        0.0070
     10  C         15.9400  -22.5540   -5.9340 C.2     1  UNL1        0.1410
     11  C         17.0380  -22.3870   -5.0880 C.2     1  UNL1        0.0370
     12  C         18.3160  -22.2680   -5.6350 C.2     1  UNL1        0.0170
     13  C         19.6230  -22.2340   -7.8990 C.ar    1  UNL1       -0.0260
     14  C         21.0260  -22.1060   -7.3890 C.3     1  UNL1        0.0500
     15  C         14.5580  -22.6650   -5.2990 C.3     1  UNL1        0.4340
     16  F         14.5650  -22.3320   -3.9740 F       1  UNL1       -0.1650
     17  F         14.0010  -23.9060   -5.3630 F       1  UNL1       -0.1650
     18  F         13.6540  -21.8200   -5.8770 F       1  UNL1       -0.1650
     19  C         22.5170  -22.3730  -11.0830 C.2     1  UNL1        0.0690
     20  C         22.4660  -21.8360  -12.3720 C.2     1  UNL1        0.0490
     21  C         23.5910  -21.9010  -13.2050 C.2     1  UNL1        0.0340
     22  C         24.7740  -22.4850  -12.7410 C.2     1  UNL1        0.0200
     23  C         24.8350  -23.0200  -11.4510 C.2     1  UNL1        0.0400
     24  C         23.7130  -22.9700  -10.6200 C.2     1  UNL1        0.0950
     25  C         23.5030  -21.3170  -14.5690 C.2     1  UNL1        0.2490
     26  N         22.7710  -20.1680  -14.7080 N.am    1  UNL1       -0.3660
     27  H         22.5560  -19.5780  -13.9180 H       1  UNL1        0.1590
     28  H         22.8460  -19.7190  -15.6130 H       1  UNL1        0.1590
     29  O         24.0770  -21.8130  -15.5270 O.2     1  UNL1       -0.2680
     30  O         23.6590  -23.4730   -9.3400 O.2     1  UNL1       -0.3540
     31  C         24.8040  -24.1800   -8.8740 C.3     1  UNL1        0.2100
@<TRIPOS>BOND
     1    28    26    1
     2    29    25    2
     3    26    25   am
     4    26    27    1
     5    25    21    1
     6    21    22    2
     7    21    20    1
     8    22    23    1
     9    20    19    2
    10     3     2    2
    11    23    24    2
    12    19    24    1
    13    19     1    1
    14    24    30    1
    15     2     1   am
    16     2     5    1
    17     1     4    1
    18     6     5   ar
    19     6     7   ar
    20    30    31    1
    21     5    13   ar
    22    13    14    1
    23    13     9   ar
    24     7     8    2
    25     7     9   ar
    26     8    10    1
    27     9    12    2
    28    10    15    1
    29    10    11    2
    30    18    15    1
    31    12    11    1
    32    17    15    1
    33    15    16    1
