@<TRIPOS>MOLECULE
52703_out_ligand_01.pdbqt
 35 39 0 0 0
SMALL
GASTEIGER

@<TRIPOS>ATOM
      1  O         21.4940  -21.1110  -12.7210 O.2     1  UNL1       -0.2670
      2  C         21.3860  -21.7650  -11.6900 C.2     1  UNL1        0.2560
      3  N         22.4010  -22.3550  -10.9610 N.am    1  UNL1       -0.3230
      4  H         22.1520  -22.7710  -10.0740 H       1  UNL1        0.1690
      5  C         20.0210  -21.9320  -11.1160 C.2     1  UNL1        0.0320
      6  C         18.8690  -21.5870  -11.8350 C.2     1  UNL1        0.0180
      7  C         17.6080  -21.7610  -11.2570 C.2     1  UNL1        0.0190
      8  C         17.4930  -22.2600   -9.9530 C.2     1  UNL1        0.0450
      9  C         18.6430  -22.5800   -9.2200 C.2     1  UNL1       -0.0380
     10  C         16.1430  -22.4780   -9.3700 C.2     1  UNL1        0.2940
     11  C         19.9060  -22.4200   -9.8060 C.2     1  UNL1        0.0250
     12  C         18.4900  -23.1260   -7.8280 C.3     1  UNL1        0.0770
     13  C         17.2350  -22.5100   -7.2050 C.3     1  UNL1        0.1690
     14  O         16.0950  -22.7880   -8.0510 O.3     1  UNL1       -0.3070
     15  O         15.1370  -22.4060  -10.0620 O.2     1  UNL1       -0.2590
     16  C         16.8880  -22.9800   -5.8010 C.2     1  UNL1       -0.0290
     17  C         17.8330  -23.1230   -4.7740 C.2     1  UNL1        0.0100
     18  C         17.4460  -23.5400   -3.4960 C.2     1  UNL1        0.0010
     19  C         16.1110  -23.8190   -3.2240 C.2     1  UNL1        0.0000
     20  C         15.1570  -23.6820   -4.2270 C.2     1  UNL1        0.0010
     21  C         15.5420  -23.2650   -5.5020 C.2     1  UNL1        0.0100
     22  C         23.7790  -22.3790  -11.2700 C.2     1  UNL1        0.0350
     23  C         24.5790  -21.3940  -10.6750 C.2     1  UNL1        0.0290
     24  C         25.9530  -21.3540  -10.9150 C.2     1  UNL1        0.0030
     25  C         26.5410  -22.2980  -11.7560 C.2     1  UNL1        0.0110
     26  C         25.7560  -23.2760  -12.3750 C.2     1  UNL1       -0.0340
     27  C         24.3770  -23.3190  -12.1130 C.2     1  UNL1        0.0410
     28  C         26.3510  -24.3150  -13.2240 C.2     1  UNL1        0.0140
     29  C         26.4200  -24.3780  -14.5670 C.2     1  UNL1        0.0320
     30  C         25.8730  -23.4750  -15.5920 C.2     1  UNL1        0.0560
     31  C         26.3350  -22.1620  -15.6690 C.2     1  UNL1        0.0310
     32  C         25.8320  -21.3220  -16.6600 C.2     1  UNL1        0.0040
     33  C         24.8890  -21.8140  -17.5520 C.2     1  UNL1        0.0190
     34  C         24.4900  -23.1310  -17.4130 C.2     1  UNL1        0.1170
     35  N         24.9610  -23.9630  -16.4600 N.2     1  UNL1       -0.2610
@<TRIPOS>BOND
     1    33    34    2
     2    33    32    1
     3    34    35    1
     4    32    31    2
     5    35    30    2
     6    31    30    1
     7    30    29    1
     8    29    28    2
     9    28    26    1
    10     1     2    2
    11    26    27    1
    12    26    25    2
    13    27    22    2
    14     6     7    1
    15     6     5    2
    16    25    24    1
    17     2     5    1
    18     2     3   am
    19    22     3    1
    20    22    23    1
    21     7     8    2
    22     5    11    1
    23     3     4    1
    24    24    23    2
    25    15    10    2
    26     8    10    1
    27     8     9    1
    28    11     9    2
    29    10    14    1
    30     9    12    1
    31    14    13    1
    32    12    13    1
    33    13    16    1
    34    16    21    2
    35    16    17    1
    36    21    20    1
    37    17    18    2
    38    20    19    2
    39    18    19    1
