@<TRIPOS>MOLECULE
52718_out_ligand_01.pdbqt
 34 38 0 0 0
SMALL
GASTEIGER

@<TRIPOS>ATOM
      1  C         18.9410  -22.1300  -10.5230 C.2     1  UNL1        0.0320
      2  C         17.5450  -22.0240  -10.4320 C.2     1  UNL1        0.0180
      3  C         16.8570  -22.7090   -9.4280 C.2     1  UNL1        0.0260
      4  C         17.5670  -23.5060   -8.5210 C.2     1  UNL1        0.0800
      5  C         18.9540  -23.6300   -8.6100 C.2     1  UNL1        0.0260
      6  C         19.6380  -22.9470   -9.6180 C.2     1  UNL1        0.0180
      7  C         19.7220  -21.4020  -11.5650 C.2     1  UNL1        0.2520
      8  O         19.2040  -20.4750  -12.1840 O.2     1  UNL1       -0.2680
      9  N         20.9980  -21.8630  -11.7980 N.am    1  UNL1       -0.3500
     10  H         21.2350  -22.7960  -11.4840 H       1  UNL1        0.1630
     11  C         21.7700  -21.3900  -12.9270 C.3     1  UNL1        0.2030
     12  C         23.1920  -21.7620  -12.7070 C.ar    1  UNL1        0.1480
     13  N         23.7390  -21.9880  -11.5240 N.ar    1  UNL1       -0.1330
     14  N         25.0480  -22.3400  -11.7160 N.ar    1  UNL1       -0.1350
     15  C         25.2830  -22.3380  -13.0120 C.ar    1  UNL1        0.1300
     16  N         24.1370  -21.9790  -13.6730 N.ar    1  UNL1       -0.3190
     17  C         26.5760  -22.6390  -13.6800 C.3     1  UNL1        0.0800
     18  C         24.0180  -21.8500  -15.1060 C.3     1  UNL1        0.1320
     19  C         24.9330  -20.7660  -15.6720 C.3     1  UNL1        0.0200
     20  C         26.4020  -21.1830  -15.7830 C.3     1  UNL1        0.0020
     21  C         27.1150  -21.4370  -14.4530 C.3     1  UNL1        0.0080
     22  S         16.6640  -24.3480   -7.2310 S.O2    1  UNL1        0.2650
     23  O         17.6640  -25.1000   -6.5010 O.2     1  UNL1       -0.2000
     24  O         15.5330  -25.0060   -7.8500 O.2     1  UNL1       -0.2000
     25  N         16.0730  -23.0210   -6.2970 N.pl3   1  UNL1       -0.2710
     26  C         14.7600  -23.2630   -5.6330 C.3     1  UNL1        0.1420
     27  C         14.9530  -23.7860   -4.2180 C.3     1  UNL1        0.0260
     28  C         15.6940  -22.7530   -3.3880 C.3     1  UNL1        0.0420
     29  C         16.9080  -22.2090   -4.1000 C.2     1  UNL1       -0.0310
     30  C         17.8700  -21.5080   -3.3490 C.2     1  UNL1        0.0090
     31  C         17.0580  -22.3190   -5.4940 C.2     1  UNL1        0.0510
     32  C         18.9740  -20.9280   -3.9730 C.2     1  UNL1        0.0010
     33  C         19.1130  -21.0210   -5.3520 C.2     1  UNL1        0.0020
     34  C         18.1520  -21.7000   -6.1080 C.2     1  UNL1        0.0310
@<TRIPOS>BOND
     1    20    19    1
     2    20    21    1
     3    19    18    1
     4    18    16    1
     5    21    17    1
     6    17    15    1
     7    16    15   ar
     8    16    12   ar
     9    15    14   ar
    10    11    12    1
    11    11     9    1
    12    12    13   ar
    13     8     7    2
    14     9     7   am
    15     9    10    1
    16    14    13   ar
    17     7     1    1
    18     1     2    2
    19     1     6    1
    20     2     3    1
    21     6     5    2
    22     3     4    2
    23     5     4    1
    24     4    22    1
    25    24    22    2
    26    22    23    2
    27    22    25    1
    28    25    26    1
    29    25    31    1
    30    34    31    1
    31    34    33    2
    32    26    27    1
    33    31    29    2
    34    33    32    1
    35    27    28    1
    36    29    28    1
    37    29    30    1
    38    32    30    2
