@<TRIPOS>MOLECULE
52729_out_ligand_01.pdbqt
 31 34 0 0 0
SMALL
GASTEIGER

@<TRIPOS>ATOM
      1  C         17.7470  -21.7170  -10.6250 C.2     1  UNL1       -0.0480
      2  C         18.5050  -22.8820  -10.8240 C.2     1  UNL1        0.0090
      3  C         19.7840  -22.8100  -11.3810 C.2     1  UNL1        0.0170
      4  C         20.3270  -21.5690  -11.7270 C.2     1  UNL1        0.0320
      5  C         19.5730  -20.4040  -11.5510 C.2     1  UNL1        0.0170
      6  C         18.2910  -20.4800  -11.0020 C.2     1  UNL1        0.0090
      7  C         16.3790  -21.7970   -9.9950 C.3     1  UNL1        0.1210
      8  S         16.0870  -23.3690   -9.1270 S.3     1  UNL1       -0.0850
      9  C         16.5150  -22.9240   -7.5050 C.ar    1  UNL1        0.2030
     10  N         15.6430  -22.5300   -6.6040 N.ar    1  UNL1       -0.1350
     11  N         16.3160  -22.5060   -5.4160 N.ar    1  UNL1        0.0190
     12  N         17.5760  -22.8820   -5.5710 N.ar    1  UNL1        0.0030
     13  N         17.7550  -23.0950   -6.9010 N.ar    1  UNL1       -0.2170
     14  C         19.0400  -23.3820   -7.4450 C.2     1  UNL1        0.0630
     15  C         19.2270  -24.6140   -8.0970 C.2     1  UNL1        0.0320
     16  C         20.4460  -24.9260   -8.6910 C.2     1  UNL1        0.0030
     17  C         21.4850  -24.0050   -8.6640 C.2     1  UNL1        0.0070
     18  C         21.3280  -22.7590   -8.0380 C.2     1  UNL1       -0.0540
     19  C         22.4970  -21.8070   -8.0610 C.3     1  UNL1        0.0490
     20  C         20.1060  -22.4420   -7.3880 C.2     1  UNL1       -0.0280
     21  C         19.9830  -21.1290   -6.6480 C.3     1  UNL1        0.0510
     22  C         21.7000  -21.5260  -12.2990 C.2     1  UNL1        0.2560
     23  O         21.8630  -20.9590  -13.3710 O.2     1  UNL1       -0.2670
     24  N         22.6540  -22.1860  -11.5440 N.am    1  UNL1       -0.3230
     25  H         22.3190  -22.7220  -10.7540 H       1  UNL1        0.1690
     26  C         24.0360  -22.2820  -11.8050 C.2     1  UNL1        0.0350
     27  C         24.5960  -23.1590  -12.7350 C.2     1  UNL1        0.0290
     28  C         25.9790  -23.1870  -12.9400 C.2     1  UNL1        0.0020
     29  C         26.8130  -22.3350  -12.2200 C.2     1  UNL1        0.0000
     30  C         26.2660  -21.4540  -11.2930 C.2     1  UNL1        0.0020
     31  C         24.8830  -21.4260  -11.0880 C.2     1  UNL1        0.0290
@<TRIPOS>BOND
     1    23    22    2
     2    28    27    1
     3    28    29    2
     4    27    26    2
     5    22     4    1
     6    22    24   am
     7    29    30    1
     8    26    24    1
     9    26    31    1
    10     4     5    2
    11     4     3    1
    12     5     6    1
    13    24    25    1
    14     3     2    2
    15    30    31    2
    16     6     1    2
    17     2     1    1
    18     1     7    1
    19     7     8    1
    20     8     9    1
    21    16    17    2
    22    16    15    1
    23    17    18    1
    24    15    14    2
    25    19    18    1
    26    18    20    2
    27     9    13   ar
    28     9    10   ar
    29    14    20    1
    30    14    13    1
    31    20    21    1
    32    13    12   ar
    33    10    11   ar
    34    12    11   ar
