@<TRIPOS>MOLECULE
52749_out_ligand_01.pdbqt
 29 31 0 0 0
SMALL
GASTEIGER

@<TRIPOS>ATOM
      1  C         22.1070  -24.0170   -9.0300 C.3     1  UNL1        0.0950
      2  N         23.4900  -23.5860   -9.2210 N.pl3   1  UNL1       -0.2770
      3  H         23.7720  -22.9250   -8.4940 H       1  UNL1        0.1290
      4  C         23.7160  -22.8880  -10.4050 C.2     1  UNL1        0.1020
      5  C         22.7860  -22.8650  -11.4420 C.2     1  UNL1        0.0450
      6  C         23.0880  -22.1730  -12.6130 C.2     1  UNL1        0.0290
      7  C         24.3220  -21.5380  -12.7100 C.2     1  UNL1        0.0910
      8  C         25.1910  -21.5960  -11.6390 C.2     1  UNL1        0.1430
      9  N         24.9130  -22.2750  -10.4980 N.2     1  UNL1       -0.2470
     10  S         24.7650  -20.6480  -14.1540 S.O2    1  UNL1        0.2400
     11  O         25.4770  -19.4600  -13.7520 O.2     1  UNL1       -0.2060
     12  O         25.2910  -21.5780  -15.1270 O.2     1  UNL1       -0.2060
     13  N         23.2640  -20.1750  -14.7520 N.3     1  UNL1       -0.2250
     14  H         22.8990  -20.9120  -15.3610 H       1  UNL1        0.1360
     15  H         22.5940  -19.9100  -14.0320 H       1  UNL1        0.1360
     16  C         21.2620  -22.8630   -8.4760 C.3     1  UNL1        0.0290
     17  C         19.7390  -23.1470   -8.4690 C.3     1  UNL1        0.0520
     18  C         19.0610  -22.9120   -7.1160 C.2     1  UNL1       -0.0500
     19  C         18.2250  -23.8570   -6.5000 C.2     1  UNL1        0.0080
     20  C         17.6410  -23.5940   -5.2580 C.2     1  UNL1        0.0010
     21  C         17.8880  -22.3860   -4.6090 C.2     1  UNL1        0.0000
     22  C         18.7220  -21.4410   -5.1990 C.2     1  UNL1        0.0010
     23  C         19.3050  -21.7030   -6.4400 C.2     1  UNL1        0.0080
     24  C         19.0250  -22.4050   -9.5960 C.2     1  UNL1       -0.0500
     25  C         17.6220  -22.3340   -9.6050 C.2     1  UNL1        0.0080
     26  C         16.9480  -21.6770  -10.6360 C.2     1  UNL1        0.0010
     27  C         17.6670  -21.0820  -11.6710 C.2     1  UNL1        0.0000
     28  C         19.0590  -21.1430  -11.6760 C.2     1  UNL1        0.0010
     29  C         19.7350  -21.8010  -10.6450 C.2     1  UNL1        0.0080
@<TRIPOS>BOND
     1    14    13    1
     2    12    10    2
     3    13    10    1
     4    13    15    1
     5    10    11    2
     6    10     7    1
     7     7     6    2
     8     7     8    1
     9     6     5    1
    10    28    27    2
    11    28    29    1
    12    27    26    1
    13     8     9    2
    14     5     4    2
    15    29    24    2
    16    26    25    2
    17     9     4    1
    18     4     2    1
    19    25    24    1
    20    24    17    1
    21     2     1    1
    22     2     3    1
    23     1    16    1
    24    16    17    1
    25    17    18    1
    26    18    19    2
    27    18    23    1
    28    19    20    1
    29    23    22    2
    30    20    21    2
    31    22    21    1
