@<TRIPOS>MOLECULE
52758_out_ligand_01.pdbqt
 34 37 0 0 0
SMALL
GASTEIGER

@<TRIPOS>ATOM
      1  C         19.7880  -23.0740   -8.9610 C.2     1  UNL1        0.0320
      2  C         19.9120  -22.3860  -10.1770 C.2     1  UNL1        0.0190
      3  C         21.0880  -22.4860  -10.9240 C.2     1  UNL1        0.0310
      4  C         22.1410  -23.2690  -10.4560 C.2     1  UNL1        0.0420
      5  C         22.0330  -23.9440   -9.2390 C.2     1  UNL1        0.0310
      6  C         20.8590  -23.8440   -8.4880 C.2     1  UNL1        0.0190
      7  N         23.3490  -23.3260  -11.2000 N.pl3   1  UNL1       -0.2810
      8  H         23.7480  -24.2460  -11.3860 H       1  UNL1        0.1790
      9  S         24.5680  -22.2170  -10.8150 S.O2    1  UNL1        0.2630
     10  O         24.0430  -21.2140   -9.9140 O.2     1  UNL1       -0.2000
     11  O         25.7250  -23.0100  -10.4560 O.2     1  UNL1       -0.2000
     12  C         24.9100  -21.4580  -12.3850 C.2     1  UNL1        0.0820
     13  C         25.8300  -20.3820  -12.4430 C.2     1  UNL1        0.0280
     14  C         26.1120  -19.7500  -13.6580 C.2     1  UNL1        0.0330
     15  C         25.4500  -20.2240  -14.7670 C.ar    1  UNL1        0.0630
     16  N         25.5220  -19.8040  -16.0900 N.ar    1  UNL1       -0.3070
     17  C         24.5350  -21.2770  -14.7010 C.ar    1  UNL1        0.0640
     18  C         24.6550  -20.5920  -16.8620 C.ar    1  UNL1        0.3250
     19  H         26.0870  -19.0620  -16.4690 H       1  UNL1        0.1700
     20  O         24.4660  -20.4990  -18.0610 O.2     1  UNL1       -0.2470
     21  N         24.0520  -21.5030  -15.9840 N.ar    1  UNL1       -0.3060
     22  H         23.3790  -22.1960  -16.2720 H       1  UNL1        0.1700
     23  C         24.2340  -21.9160  -13.5250 C.2     1  UNL1        0.0570
     24  C         18.5210  -22.9260   -8.1880 C.2     1  UNL1        0.2570
     25  N         18.6040  -23.3400   -6.8730 N.am    1  UNL1       -0.3070
     26  H         19.4500  -23.7960   -6.5790 H       1  UNL1        0.1700
     27  O         17.5430  -22.4990   -8.7870 O.2     1  UNL1       -0.2670
     28  C         17.5710  -23.2550   -5.9220 C.2     1  UNL1        0.1360
     29  N         16.5600  -24.1430   -5.9720 N.2     1  UNL1       -0.2430
     30  C         15.5710  -24.0490   -5.0610 C.2     1  UNL1        0.1190
     31  C         15.5290  -23.0840   -4.0760 C.2     1  UNL1        0.0200
     32  C         16.5670  -22.1650   -4.0280 C.2     1  UNL1        0.0120
     33  C         17.6140  -22.2350   -4.9600 C.2     1  UNL1       -0.0160
     34  C         18.7230  -21.2270   -4.8840 C.3     1  UNL1        0.0520
@<TRIPOS>BOND
     1    20    18    2
     2    18    16   ar
     3    18    21   ar
     4    19    16    1
     5    22    21    1
     6    16    15   ar
     7    21    17   ar
     8    15    17   ar
     9    15    14    1
    10    17    23    1
    11    14    13    2
    12    23    12    2
    13    13    12    1
    14    12     9    1
    15     8     7    1
    16     7     9    1
    17     7     4    1
    18     3     4    2
    19     3     2    1
    20     9    11    2
    21     9    10    2
    22     4     5    1
    23     2     1    2
    24     5     6    2
    25     1     6    1
    26     1    24    1
    27    27    24    2
    28    24    25   am
    29    25    26    1
    30    25    28    1
    31    29    28    2
    32    29    30    1
    33    28    33    1
    34    30    31    2
    35    33    34    1
    36    33    32    2
    37    31    32    1
