@<TRIPOS>MOLECULE
52788_out_ligand_01.pdbqt
 35 38 0 0 0
SMALL
GASTEIGER

@<TRIPOS>ATOM
      1  C         19.4300  -22.0520  -10.8700 C.2     1  UNL1        0.0350
      2  C         18.7590  -21.1880  -11.7480 C.2     1  UNL1        0.0170
      3  C         17.3760  -21.0140  -11.6400 C.2     1  UNL1        0.0030
      4  C         16.6600  -21.6880  -10.6510 C.2     1  UNL1        0.0250
      5  C         17.3360  -22.5280   -9.7630 C.2     1  UNL1        0.0750
      6  C         18.7160  -22.7240   -9.8730 C.2     1  UNL1        0.0410
      7  C         20.9030  -22.2480  -10.9340 C.2     1  UNL1        0.2700
      8  O         21.3890  -23.3260  -10.6050 O.2     1  UNL1       -0.2660
      9  N         21.6380  -21.1770  -11.4070 N.am    1  UNL1       -0.2520
     10  H         21.2020  -20.4770  -11.9930 H       1  UNL1        0.1910
     11  N         22.9850  -21.4070  -11.6550 N.am    1  UNL1       -0.1670
     12  C         23.9160  -21.5850  -10.6670 C.2     1  UNL1        0.3450
     13  O         23.7930  -21.4270   -9.4630 O.2     1  UNL1       -0.2450
     14  N         25.0920  -21.9890  -11.2750 N.am    1  UNL1       -0.3230
     15  C         24.9050  -22.3050  -12.6860 C.3     1  UNL1        0.1170
     16  H         25.8580  -22.3160  -10.6990 H       1  UNL1        0.1650
     17  C         25.9110  -21.5330  -13.5420 C.3     1  UNL1        0.0410
     18  C         23.4570  -21.7930  -12.8840 C.2     1  UNL1        0.2750
     19  C         24.9680  -23.8240  -12.8950 C.3     1  UNL1        0.0410
     20  C         25.9230  -21.9740  -15.0050 C.3     1  UNL1        0.0030
     21  C         26.0700  -23.4840  -15.1420 C.3     1  UNL1        0.0000
     22  C         24.9870  -24.2250  -14.3680 C.3     1  UNL1        0.0030
     23  O         22.8380  -21.7600  -13.9390 O.2     1  UNL1       -0.2680
     24  S         16.4320  -23.3850   -8.4950 S.O2    1  UNL1        0.2450
     25  O         15.8130  -24.5440   -9.1020 O.2     1  UNL1       -0.2060
     26  O         15.6680  -22.4000   -7.7620 O.2     1  UNL1       -0.2060
     27  N         17.7240  -23.9520   -7.5340 N.pl3   1  UNL1       -0.1810
     28  H         17.4890  -24.9060   -7.2500 H       1  UNL1        0.1460
     29  C         17.9920  -23.1360   -6.3870 C.2     1  UNL1        0.0230
     30  C         18.8210  -22.0200   -6.5250 C.2     1  UNL1        0.0270
     31  C         19.0580  -21.1950   -5.4260 C.2     1  UNL1        0.0440
     32  C         18.4540  -21.4860   -4.2070 C.2     1  UNL1        0.1160
     33  F         18.6820  -20.6930   -3.1530 F       1  UNL1       -0.2060
     34  C         17.6110  -22.5830   -4.0690 C.2     1  UNL1        0.0440
     35  C         17.3710  -23.4110   -5.1670 C.2     1  UNL1        0.0270
@<TRIPOS>BOND
     1    21    20    1
     2    21    22    1
     3    20    17    1
     4    22    19    1
     5    23    18    2
     6    17    15    1
     7    19    15    1
     8    18    15    1
     9    18    11   am
    10    15    14    1
    11    10     9    1
    12     2     3    1
    13     2     1    2
    14    11     9    1
    15    11    12   am
    16     3     4    2
    17     9     7   am
    18    14    16    1
    19    14    12   am
    20     7     1    1
    21     7     8    2
    22     1     6    1
    23    12    13    2
    24     4     5    1
    25     6     5    2
    26     5    24    1
    27    25    24    2
    28    24    26    2
    29    24    27    1
    30    27    28    1
    31    27    29    1
    32    30    29    2
    33    30    31    1
    34    29    35    1
    35    31    32    2
    36    35    34    2
    37    32    34    1
    38    32    33    1
