@<TRIPOS>MOLECULE
52792_out_ligand_01.pdbqt
 36 38 0 0 0
SMALL
GASTEIGER

@<TRIPOS>ATOM
      1  C         21.0390  -23.2550   -8.2820 C.2     1  UNL1        0.0320
      2  C         20.1300  -24.3230   -8.2770 C.2     1  UNL1        0.0180
      3  C         18.9960  -24.2740   -7.4610 C.2     1  UNL1        0.0260
      4  C         18.7750  -23.1550   -6.6500 C.2     1  UNL1        0.0740
      5  C         19.6880  -22.0980   -6.6270 C.2     1  UNL1        0.0260
      6  C         20.8200  -22.1520   -7.4430 C.2     1  UNL1        0.0180
      7  C         22.2630  -23.2600   -9.1290 C.2     1  UNL1        0.2520
      8  N         22.3520  -22.2740  -10.0890 N.am    1  UNL1       -0.3520
      9  H         21.6010  -21.6090  -10.2070 H       1  UNL1        0.1630
     10  O         23.1360  -24.0970   -8.9340 O.2     1  UNL1       -0.2680
     11  C         23.4540  -22.2370  -11.0490 C.3     1  UNL1        0.0890
     12  C         24.5450  -21.2810  -10.5690 C.3     1  UNL1        0.0660
     13  C         25.7080  -21.1670  -11.5720 C.3     1  UNL1        0.1530
     14  C         26.5590  -19.9370  -11.1850 C.3     1  UNL1        0.0480
     15  C         26.6320  -22.3950  -11.5010 C.3     1  UNL1        0.0480
     16  N         25.2350  -20.9080  -12.9380 N.3     1  UNL1        0.1010
     17  C         24.0880  -21.6680  -13.4530 C.3     1  UNL1        0.1530
     18  H         26.0110  -20.9400  -13.5990 H       1  UNL1        0.3170
     19  C         22.9520  -21.7800  -12.4190 C.3     1  UNL1        0.0660
     20  C         24.5000  -23.0540  -13.9810 C.3     1  UNL1        0.0480
     21  C         23.5630  -20.8610  -14.6610 C.3     1  UNL1        0.0480
     22  S         17.3310  -23.1140   -5.6150 S.O2    1  UNL1        0.2450
     23  O         17.6360  -22.3150   -4.4480 O.2     1  UNL1       -0.2060
     24  O         16.8300  -24.4670   -5.5190 O.2     1  UNL1       -0.2060
     25  N         16.2890  -22.1710   -6.5880 N.pl3   1  UNL1       -0.1810
     26  H         15.3460  -22.2770   -6.2080 H       1  UNL1        0.1460
     27  C         16.3230  -22.5210   -7.9790 C.2     1  UNL1        0.0230
     28  C         15.5840  -23.6130   -8.4290 C.2     1  UNL1        0.0240
     29  C         15.5750  -23.9370   -9.7860 C.2     1  UNL1        0.0030
     30  C         16.2990  -23.1600  -10.6920 C.2     1  UNL1        0.0160
     31  C         17.0370  -22.0500  -10.2510 C.2     1  UNL1        0.0490
     32  C         17.0300  -21.7270   -8.8830 C.2     1  UNL1        0.0400
     33  C         17.7930  -21.1930  -11.2360 C.3     1  UNL1        0.4170
     34  F         19.0950  -21.0030  -10.8860 F       1  UNL1       -0.1660
     35  F         17.2530  -19.9510  -11.3680 F       1  UNL1       -0.1660
     36  F         17.8220  -21.7260  -12.4890 F       1  UNL1       -0.1660
@<TRIPOS>BOND
     1    21    17    1
     2    20    17    1
     3    18    16    1
     4    17    16    1
     5    17    19    1
     6    16    13    1
     7    36    33    1
     8    19    11    1
     9    13    15    1
    10    13    14    1
    11    13    12    1
    12    35    33    1
    13    33    34    1
    14    33    31    1
    15    11    12    1
    16    11     8    1
    17    30    31    2
    18    30    29    1
    19    31    32    1
    20     9     8    1
    21     8     7   am
    22    29    28    2
    23     7    10    2
    24     7     1    1
    25    32    27    2
    26    28    27    1
    27     1     2    2
    28     1     6    1
    29     2     3    1
    30    27    25    1
    31     3     4    2
    32     6     5    2
    33     4     5    1
    34     4    22    1
    35    25    26    1
    36    25    22    1
    37    22    24    2
    38    22    23    2
