@<TRIPOS>MOLECULE
52796_out_ligand_01.pdbqt
 35 38 0 0 0
SMALL
GASTEIGER

@<TRIPOS>ATOM
      1  C         21.7390  -22.8550   -9.8770 C.2     1  UNL1        0.0820
      2  C         21.1480  -23.7880   -9.0270 C.2     1  UNL1        0.0270
      3  C         19.7520  -23.8640   -8.9330 C.2     1  UNL1        0.0270
      4  C         18.9100  -23.0070   -9.6630 C.2     1  UNL1        0.0420
      5  C         19.5490  -22.1150  -10.5620 C.2     1  UNL1        0.1250
      6  C         20.9480  -22.0290  -10.6720 C.2     1  UNL1        0.0630
      7  S         23.5120  -22.7670  -10.0010 S.O2    1  UNL1        0.2630
      8  O         24.0530  -23.7400   -9.0750 O.2     1  UNL1       -0.2000
      9  O         23.8930  -21.3740   -9.9290 O.2     1  UNL1       -0.2000
     10  N         23.8210  -23.3680  -11.5430 N.pl3   1  UNL1       -0.2800
     11  H         23.1940  -24.1240  -11.8090 H       1  UNL1        0.1790
     12  C         24.3310  -22.5110  -12.5620 C.2     1  UNL1        0.0480
     13  C         23.4460  -21.7740  -13.3530 C.2     1  UNL1        0.0310
     14  C         23.9250  -20.9600  -14.3790 C.2     1  UNL1        0.0090
     15  C         25.2960  -20.8750  -14.6300 C.2     1  UNL1       -0.0610
     16  C         25.8180  -19.9750  -15.7120 C.3     1  UNL1        0.0480
     17  C         26.1830  -21.5920  -13.8150 C.2     1  UNL1        0.0150
     18  C         25.7150  -22.4170  -12.7780 C.2     1  UNL1       -0.0340
     19  C         26.7110  -23.1540  -11.9290 C.3     1  UNL1        0.0500
     20  N         18.7600  -21.2220  -11.4120 N.pl3   1  UNL1       -0.1140
     21  O         17.7960  -21.7120  -12.0160 O.2     1  UNL1       -0.5320
     22  O         19.1200  -20.0380  -11.4970 O.2     1  UNL1       -0.5320
     23  N         17.5110  -23.1450   -9.6200 N.pl3   1  UNL1       -0.2840
     24  H         17.1060  -23.0500  -10.5620 H       1  UNL1        0.1280
     25  C         16.7180  -22.3770   -8.6550 C.3     1  UNL1        0.1730
     26  C         16.6120  -23.0240   -7.3140 C.ar    1  UNL1        0.1430
     27  N         15.7140  -23.9200   -6.9560 N.ar    1  UNL1       -0.1340
     28  N         15.9590  -24.2790   -5.6560 N.ar    1  UNL1       -0.1350
     29  C         17.0060  -23.6010   -5.2360 C.ar    1  UNL1        0.1300
     30  N         17.4400  -22.7840   -6.2470 N.ar    1  UNL1       -0.3190
     31  C         17.6360  -23.6860   -3.8940 C.3     1  UNL1        0.0800
     32  C         18.5590  -21.8720   -6.1710 C.3     1  UNL1        0.1320
     33  C         18.4040  -20.8190   -5.0740 C.3     1  UNL1        0.0200
     34  C         18.6580  -21.3480   -3.6620 C.3     1  UNL1        0.0020
     35  C         17.6210  -22.3520   -3.1530 C.3     1  UNL1        0.0080
@<TRIPOS>BOND
     1    16    15    1
     2    15    14    2
     3    15    17    1
     4    14    13    1
     5    17    18    2
     6    13    12    2
     7    18    12    1
     8    18    19    1
     9    12    10    1
    10    21    20    2
    11    11    10    1
    12    10     7    1
    13    22    20    2
    14    20     5    1
    15     6     5    1
    16     6     1    2
    17     5     4    2
    18    24    23    1
    19     7     9    2
    20     7     1    1
    21     7     8    2
    22     1     2    1
    23     4    23    1
    24     4     3    1
    25    23    25    1
    26     2     3    2
    27    25    26    1
    28    26    27   ar
    29    26    30   ar
    30    27    28   ar
    31    30    32    1
    32    30    29   ar
    33    32    33    1
    34    28    29   ar
    35    29    31    1
    36    33    34    1
    37    31    35    1
    38    34    35    1
