@<TRIPOS>MOLECULE
52800_out_ligand_01.pdbqt
 36 39 0 0 0
SMALL
GASTEIGER

@<TRIPOS>ATOM
      1  C         17.2040  -22.4680   -9.9040 C.2     1  UNL1        0.0750
      2  C         16.6320  -21.4410  -10.6590 C.2     1  UNL1        0.0250
      3  C         17.4350  -20.6850  -11.5100 C.2     1  UNL1        0.0030
      4  C         18.8040  -20.9480  -11.5930 C.2     1  UNL1        0.0170
      5  C         19.3810  -21.9600  -10.8130 C.2     1  UNL1        0.0350
      6  C         18.5760  -22.7310   -9.9670 C.2     1  UNL1        0.0410
      7  C         20.8440  -22.1960  -10.9370 C.2     1  UNL1        0.2700
      8  O         21.3100  -23.3060  -10.6960 O.2     1  UNL1       -0.2660
      9  N         21.5980  -21.1180  -11.3570 N.am    1  UNL1       -0.2520
     10  H         21.1870  -20.3020  -11.7950 H       1  UNL1        0.1910
     11  N         22.9430  -21.3400  -11.6060 N.am    1  UNL1       -0.1670
     12  C         23.8580  -21.5730  -10.6130 C.2     1  UNL1        0.3450
     13  O         23.7150  -21.4580   -9.4070 O.2     1  UNL1       -0.2450
     14  N         25.0350  -21.9810  -11.2160 N.am    1  UNL1       -0.3230
     15  C         24.8600  -22.2360  -12.6400 C.3     1  UNL1        0.1170
     16  H         25.7860  -22.3450  -10.6450 H       1  UNL1        0.1650
     17  C         25.8480  -21.4150  -13.4810 C.3     1  UNL1        0.0410
     18  C         23.4180  -21.7160  -12.8400 C.2     1  UNL1        0.2750
     19  C         24.9120  -23.7510  -12.9200 C.3     1  UNL1        0.0410
     20  C         27.1210  -22.2070  -13.7690 C.3     1  UNL1        0.0070
     21  C         26.8410  -23.5040  -14.5520 C.3     1  UNL1       -0.0190
     22  C         27.1070  -23.3190  -16.0490 C.3     1  UNL1        0.0100
     23  C         25.4150  -24.0380  -14.3330 C.3     1  UNL1        0.0070
     24  O         22.8130  -21.6770  -13.9060 O.2     1  UNL1       -0.2680
     25  S         16.1640  -23.4230   -8.8220 S.O2    1  UNL1        0.2450
     26  O         15.4510  -22.4950   -7.9700 O.2     1  UNL1       -0.2060
     27  O         15.4790  -24.3950   -9.6430 O.2     1  UNL1       -0.2060
     28  N         17.3450  -24.1690   -7.8450 N.pl3   1  UNL1       -0.1810
     29  H         18.1710  -24.2980   -8.4330 H       1  UNL1        0.1460
     30  C         17.6870  -23.4230   -6.6700 C.2     1  UNL1        0.0220
     31  C         17.0480  -23.7220   -5.4680 C.2     1  UNL1        0.0250
     32  C         17.3390  -22.9790   -4.3220 C.2     1  UNL1        0.0080
     33  C         18.2640  -21.9280   -4.3740 C.2     1  UNL1       -0.0620
     34  C         18.5540  -21.1040   -3.1530 C.3     1  UNL1        0.0480
     35  C         18.8760  -21.6150   -5.5950 C.2     1  UNL1        0.0080
     36  C         18.5870  -22.3600   -6.7430 C.2     1  UNL1        0.0250
@<TRIPOS>BOND
     1    22    21    1
     2    21    23    1
     3    21    20    1
     4    23    19    1
     5    24    18    2
     6    20    17    1
     7    17    15    1
     8    19    15    1
     9    18    15    1
    10    18    11   am
    11    15    14    1
    12    10     9    1
    13    11     9    1
    14    11    12   am
    15     4     3    2
    16     4     5    1
    17     3     2    1
    18     9     7   am
    19    14    16    1
    20    14    12   am
    21     7     5    1
    22     7     8    2
    23     5     6    2
    24     2     1    2
    25    12    13    2
    26     6     1    1
    27     1    25    1
    28    27    25    2
    29    25    26    2
    30    25    28    1
    31    29    28    1
    32    28    30    1
    33    36    30    2
    34    36    35    1
    35    30    31    1
    36    35    33    2
    37    31    32    2
    38    33    32    1
    39    33    34    1
