@<TRIPOS>MOLECULE
52822_out_ligand_01.pdbqt
 35 39 0 0 0
SMALL
GASTEIGER

@<TRIPOS>ATOM
      1  N         20.7170  -23.2840  -10.3340 N.am    1  UNL1       -0.3230
      2  C         21.0410  -22.1820  -11.1020 C.2     1  UNL1        0.2560
      3  O         20.3430  -21.1970  -11.3060 O.2     1  UNL1       -0.2670
      4  H         21.3460  -24.0730  -10.3700 H       1  UNL1        0.1690
      5  C         22.3780  -22.2390  -11.7620 C.2     1  UNL1        0.0320
      6  C         23.3950  -23.0850  -11.3000 C.2     1  UNL1        0.0180
      7  C         24.6380  -23.0990  -11.9410 C.2     1  UNL1        0.0190
      8  C         24.8780  -22.2480  -13.0280 C.2     1  UNL1        0.0450
      9  C         23.8770  -21.3770  -13.4740 C.2     1  UNL1       -0.0380
     10  C         26.1960  -22.2990  -13.7170 C.2     1  UNL1        0.2940
     11  C         22.6260  -21.3810  -12.8450 C.2     1  UNL1        0.0250
     12  C         24.1670  -20.4800  -14.6430 C.3     1  UNL1        0.0770
     13  C         25.6490  -20.1120  -14.5930 C.3     1  UNL1        0.1690
     14  O         26.4600  -21.3060  -14.6010 O.3     1  UNL1       -0.3070
     15  O         26.9840  -23.2110  -13.5050 O.2     1  UNL1       -0.2590
     16  C         26.0260  -19.2240  -15.7630 C.2     1  UNL1       -0.0290
     17  C         26.4570  -17.9080  -15.5250 C.2     1  UNL1        0.0100
     18  C         26.7920  -17.0660  -16.5850 C.2     1  UNL1        0.0010
     19  C         26.6950  -17.5250  -17.8970 C.2     1  UNL1        0.0000
     20  C         26.2610  -18.8240  -18.1480 C.2     1  UNL1        0.0010
     21  C         25.9250  -19.6680  -17.0890 C.2     1  UNL1        0.0100
     22  C         19.5660  -23.4650   -9.5370 C.2     1  UNL1        0.0350
     23  C         18.2930  -23.0210   -9.8890 C.2     1  UNL1        0.0300
     24  C         17.2060  -23.2240   -9.0290 C.2     1  UNL1        0.0180
     25  C         17.3730  -23.8800   -7.8020 C.2     1  UNL1        0.0180
     26  C         18.6520  -24.3130   -7.4430 C.2     1  UNL1        0.0180
     27  C         19.7360  -24.1140   -8.3080 C.2     1  UNL1        0.0300
     28  C         16.1810  -24.0270   -6.9080 C.2     1  UNL1        0.2280
     29  O         15.1830  -24.5650   -7.3960 O.2     1  UNL1       -0.2830
     30  C         16.2180  -23.5560   -5.5280 C.2     1  UNL1        0.1800
     31  N         17.0510  -24.0050   -4.5990 N.2     1  UNL1       -0.2380
     32  C         16.7360  -23.3390   -3.4450 C.2     1  UNL1        0.1360
     33  C         15.6960  -22.4700   -3.6550 C.2     1  UNL1        0.1110
     34  N         15.3760  -22.6090   -4.9760 N.pl3   1  UNL1       -0.3420
     35  C         14.3530  -21.8680   -5.6770 C.3     1  UNL1        0.1570
@<TRIPOS>BOND
     1    20    19    2
     2    20    21    1
     3    19    18    1
     4    21    16    2
     5    18    17    2
     6    16    17    1
     7    16    13    1
     8    12    13    1
     9    12     9    1
    10    14    13    1
    11    14    10    1
    12    10    15    2
    13    10     8    1
    14     9     8    2
    15     9    11    1
    16     8     7    1
    17    11     5    2
    18     7     6    2
    19     5     6    1
    20     5     2    1
    21     3     2    2
    22     2     1   am
    23     4     1    1
    24     1    22    1
    25    23    22    2
    26    23    24    1
    27    22    27    1
    28    24    25    2
    29    27    26    2
    30    25    26    1
    31    25    28    1
    32    29    28    2
    33    28    30    1
    34    35    34    1
    35    30    34    1
    36    30    31    2
    37    34    33    1
    38    31    32    1
    39    33    32    2
