@<TRIPOS>MOLECULE
52830_out_ligand_01.pdbqt
 32 34 0 0 0
SMALL
GASTEIGER

@<TRIPOS>ATOM
      1  C         20.7020  -21.6380  -10.9720 C.2     1  UNL1        0.2590
      2  O         21.4120  -21.4160   -9.9980 O.2     1  UNL1       -0.2670
      3  N         21.1290  -21.7540  -12.2820 N.am    1  UNL1       -0.3230
      4  H         20.4110  -21.8560  -12.9910 H       1  UNL1        0.1690
      5  C         19.2340  -21.7010  -10.7610 C.2     1  UNL1        0.0680
      6  C         18.4500  -20.8030  -11.5010 C.2     1  UNL1        0.0210
      7  C         17.0650  -20.8260  -11.3800 C.2     1  UNL1        0.0200
      8  C         16.5060  -21.7510  -10.5210 C.2     1  UNL1        0.1180
      9  N         17.2290  -22.6220   -9.7840 N.2     1  UNL1       -0.2530
     10  C         18.5850  -22.5740   -9.8840 C.2     1  UNL1        0.1130
     11  S         19.4210  -23.7250   -8.8030 S.3     1  UNL1       -0.0690
     12  C         19.0450  -22.9910   -7.2110 C.2     1  UNL1        0.0130
     13  C         19.7670  -21.8480   -6.8350 C.2     1  UNL1        0.0200
     14  C         19.5180  -21.2100   -5.6190 C.2     1  UNL1        0.0080
     15  C         18.5560  -21.7150   -4.7440 C.2     1  UNL1       -0.0610
     16  C         18.2550  -21.0110   -3.4540 C.3     1  UNL1        0.0480
     17  C         17.8370  -22.8590   -5.1120 C.2     1  UNL1        0.0140
     18  C         18.0830  -23.5200   -6.3300 C.2     1  UNL1       -0.0440
     19  C         17.2660  -24.7420   -6.6540 C.3     1  UNL1        0.0490
     20  C         22.4580  -21.7700  -12.7550 C.2     1  UNL1        0.0360
     21  C         22.7030  -21.1420  -13.9780 C.2     1  UNL1        0.0300
     22  C         23.9910  -21.1080  -14.5200 C.2     1  UNL1        0.0100
     23  C         25.0720  -21.7030  -13.8540 C.2     1  UNL1       -0.0390
     24  C         26.4280  -21.6380  -14.5000 C.3     1  UNL1        0.0500
     25  C         24.8150  -22.3590  -12.6360 C.2     1  UNL1        0.0820
     26  C         23.5180  -22.3870  -12.0920 C.2     1  UNL1        0.0540
     27  S         26.1050  -23.1960  -11.7280 S.O2    1  UNL1        0.2390
     28  O         26.4350  -24.4280  -12.4050 O.2     1  UNL1       -0.2060
     29  O         27.1200  -22.2430  -11.3520 O.2     1  UNL1       -0.2060
     30  N         25.2800  -23.6710  -10.3350 N.3     1  UNL1       -0.2250
     31  H         25.3160  -22.9700   -9.5960 H       1  UNL1        0.1360
     32  H         24.3150  -23.8830  -10.5980 H       1  UNL1        0.1360
@<TRIPOS>BOND
     1    22    21    1
     2    22    23    2
     3    24    23    1
     4    21    20    2
     5    23    25    1
     6     4     3    1
     7    20     3    1
     8    20    26    1
     9    25    26    2
    10    25    27    1
    11    28    27    2
    12     3     1   am
    13    27    29    2
    14    27    30    1
    15     6     7    1
    16     6     5    2
    17     7     8    2
    18     1     5    1
    19     1     2    2
    20     5    10    1
    21    32    30    1
    22     8     9    1
    23    30    31    1
    24    10     9    2
    25    10    11    1
    26    11    12    1
    27    12    13    2
    28    12    18    1
    29    13    14    1
    30    19    18    1
    31    18    17    2
    32    14    15    2
    33    17    15    1
    34    15    16    1
