@<TRIPOS>MOLECULE
52844_out_ligand_01.pdbqt
 35 38 0 0 0
SMALL
GASTEIGER

@<TRIPOS>ATOM
      1  C         19.4980  -22.2670  -10.6260 C.2     1  UNL1        0.0330
      2  C         18.9560  -21.3300  -11.5170 C.2     1  UNL1        0.0170
      3  C         17.5950  -21.0210  -11.4690 C.2     1  UNL1        0.0030
      4  C         16.7680  -21.6530  -10.5390 C.2     1  UNL1        0.0250
      5  C         17.3090  -22.6030   -9.6680 C.2     1  UNL1        0.0800
      6  C         18.6710  -22.9140   -9.7010 C.2     1  UNL1        0.0420
      7  C         20.9400  -22.6310  -10.6620 C.2     1  UNL1        0.2560
      8  O         21.3000  -23.6130  -10.0270 O.2     1  UNL1       -0.2670
      9  N         21.7370  -21.7700  -11.3920 N.am    1  UNL1       -0.3230
     10  H         21.3100  -20.9070  -11.7050 H       1  UNL1        0.1690
     11  C         23.1190  -21.9010  -11.6460 C.2     1  UNL1        0.0350
     12  C         23.9920  -21.5770  -10.5980 C.2     1  UNL1        0.0290
     13  C         25.3770  -21.6730  -10.7630 C.2     1  UNL1        0.0030
     14  C         25.9030  -22.0930  -11.9820 C.2     1  UNL1        0.0170
     15  C         25.0400  -22.4180  -13.0350 C.2     1  UNL1        0.0340
     16  C         23.6510  -22.3100  -12.8700 C.2     1  UNL1        0.0460
     17  C         25.5720  -22.8470  -14.3540 C.2     1  UNL1        0.2520
     18  O         26.7350  -23.2160  -14.4590 O.2     1  UNL1       -0.2680
     19  N         24.6780  -22.7710  -15.4060 N.am    1  UNL1       -0.3520
     20  H         23.8020  -22.2840  -15.2680 H       1  UNL1        0.1630
     21  C         25.0600  -23.0960  -16.7430 C.3     1  UNL1        0.0840
     22  C         24.8020  -22.1330  -17.8690 C.3     1  UNL1        0.0270
     23  C         24.0150  -23.4060  -17.7780 C.3     1  UNL1        0.0270
     24  S         16.2680  -23.4170   -8.4840 S.O2    1  UNL1        0.2630
     25  O         15.6110  -24.5330   -9.1310 O.2     1  UNL1       -0.2000
     26  O         15.5010  -22.3870   -7.8160 O.2     1  UNL1       -0.2000
     27  N         17.3790  -23.9980   -7.3530 N.pl3   1  UNL1       -0.2810
     28  H         18.1210  -24.5330   -7.8040 H       1  UNL1        0.1790
     29  C         17.7360  -23.1520   -6.2710 C.2     1  UNL1        0.0420
     30  C         17.1340  -23.3400   -5.0260 C.2     1  UNL1        0.0330
     31  C         17.4540  -22.4890   -3.9670 C.2     1  UNL1        0.0440
     32  C         18.3640  -21.4570   -4.1690 C.2     1  UNL1        0.1160
     33  F         18.6670  -20.6370   -3.1530 F       1  UNL1       -0.2060
     34  C         18.9620  -21.2590   -5.4090 C.2     1  UNL1        0.0440
     35  C         18.6450  -22.1110   -6.4690 C.2     1  UNL1        0.0330
@<TRIPOS>BOND
     1    22    23    1
     2    22    21    1
     3    23    21    1
     4    21    19    1
     5    19    20    1
     6    19    17   am
     7    18    17    2
     8    17    15    1
     9    15    16    1
    10    15    14    2
    11    16    11    2
    12    14    13    1
    13    10     9    1
    14    11     9    1
    15    11    12    1
    16     2     3    1
    17     2     1    2
    18     3     4    2
    19     9     7   am
    20    13    12    2
    21     7     1    1
    22     7     8    2
    23     1     6    1
    24     4     5    1
    25     6     5    2
    26     5    24    1
    27    25    24    2
    28    24    26    2
    29    24    27    1
    30    28    27    1
    31    27    29    1
    32    35    29    2
    33    35    34    1
    34    29    30    1
    35    34    32    2
    36    30    31    2
    37    32    31    1
    38    32    33    1
