@<TRIPOS>MOLECULE
52840_out_ligand_01.pdbqt
 31 33 0 0 0
SMALL
GASTEIGER

@<TRIPOS>ATOM
      1  C         20.9050  -21.6290  -11.0510 C.2     1  UNL1        0.2590
      2  O         21.6320  -21.3400  -10.1020 O.2     1  UNL1       -0.2670
      3  N         21.3050  -21.8100  -12.3630 N.am    1  UNL1       -0.3230
      4  H         20.5750  -22.0080  -13.0430 H       1  UNL1        0.1690
      5  C         19.4390  -21.6940  -10.8030 C.2     1  UNL1        0.0680
      6  C         18.6400  -20.8210  -11.5590 C.2     1  UNL1        0.0210
      7  C         17.2560  -20.8440  -11.4170 C.2     1  UNL1        0.0200
      8  C         16.7100  -21.7460  -10.5210 C.2     1  UNL1        0.1180
      9  N         17.4480  -22.5910   -9.7700 N.2     1  UNL1       -0.2530
     10  C         18.8040  -22.5430   -9.8900 C.2     1  UNL1        0.1130
     11  S         19.6890  -23.6610   -8.8060 S.3     1  UNL1       -0.0700
     12  C         18.9830  -23.2550   -7.2210 C.2     1  UNL1        0.0070
     13  C         19.2410  -22.0060   -6.6420 C.2     1  UNL1        0.0190
     14  C         18.6740  -21.6680   -5.4090 C.2     1  UNL1        0.0080
     15  C         17.8290  -22.5700   -4.7460 C.2     1  UNL1       -0.0620
     16  C         17.2420  -22.2100   -3.4100 C.3     1  UNL1        0.0480
     17  C         17.5740  -23.8210   -5.3260 C.2     1  UNL1        0.0080
     18  C         18.1420  -24.1590   -6.5600 C.2     1  UNL1        0.0190
     19  C         22.6180  -21.7600  -12.8780 C.2     1  UNL1        0.0360
     20  C         22.9700  -21.1240  -14.0650 C.2     1  UNL1        0.0300
     21  C         24.2990  -21.1190  -14.5070 C.2     1  UNL1        0.0100
     22  C         25.3120  -21.7620  -13.7800 C.2     1  UNL1       -0.0390
     23  C         26.7220  -21.6870  -14.2940 C.3     1  UNL1        0.0500
     24  C         24.9490  -22.4060  -12.5840 C.2     1  UNL1        0.0820
     25  C         23.6170  -22.3950  -12.1360 C.2     1  UNL1        0.0540
     26  S         26.1440  -23.2660  -11.5820 S.O2    1  UNL1        0.2390
     27  O         27.1180  -22.3070  -11.1050 O.2     1  UNL1       -0.2060
     28  O         26.5330  -24.4860  -12.2480 O.2     1  UNL1       -0.2060
     29  N         25.2370  -23.6620  -10.2180 N.3     1  UNL1       -0.2250
     30  H         25.5660  -24.5010   -9.7460 H       1  UNL1        0.1360
     31  H         24.2570  -23.7480  -10.4930 H       1  UNL1        0.1360
@<TRIPOS>BOND
     1    21    20    1
     2    21    22    2
     3    23    22    1
     4    20    19    2
     5    22    24    1
     6     4     3    1
     7    19     3    1
     8    19    25    1
     9    24    25    2
    10    24    26    1
    11     3     1   am
    12    28    26    2
    13    26    27    2
    14    26    29    1
    15     6     7    1
    16     6     5    2
    17     7     8    2
    18     1     5    1
    19     1     2    2
    20     5    10    1
    21     8     9    1
    22    31    29    1
    23    29    30    1
    24    10     9    2
    25    10    11    1
    26    11    12    1
    27    12    13    2
    28    12    18    1
    29    13    14    1
    30    18    17    2
    31    14    15    2
    32    17    15    1
    33    15    16    1
