@<TRIPOS>MOLECULE
52856_out_ligand_01.pdbqt
 33 37 0 0 0
SMALL
GASTEIGER

@<TRIPOS>ATOM
      1  N         23.3060  -23.0980  -11.0070 N.am    1  UNL1       -0.3220
      2  C         22.8630  -22.0710  -10.1840 C.2     1  UNL1        0.2770
      3  O         23.5670  -21.1640   -9.7500 O.2     1  UNL1       -0.2660
      4  H         22.6540  -23.8510  -11.1680 H       1  UNL1        0.1690
      5  C         21.4250  -22.1730   -9.8440 C.ar    1  UNL1        0.1530
      6  N         21.0240  -22.6070   -8.6280 N.ar    1  UNL1       -0.1610
      7  N         19.6610  -22.5350   -8.6090 N.ar    1  UNL1       -0.2370
      8  C         19.2110  -22.1010   -9.8230 C.ar    1  UNL1        0.0450
      9  C         20.2960  -21.8560  -10.6160 C.ar    1  UNL1        0.0030
     10  C         17.9160  -21.7990  -10.4560 C.3     1  UNL1        0.0600
     11  C         19.9050  -21.3110  -11.9310 C.3     1  UNL1        0.0430
     12  C         18.3600  -21.5590  -11.9370 C.3     1  UNL1        0.0110
     13  C         18.9460  -22.8840   -7.4280 C.2     1  UNL1        0.0610
     14  C         18.3190  -24.1300   -7.2790 C.2     1  UNL1        0.0350
     15  C         17.6260  -24.4340   -6.1000 C.2     1  UNL1        0.0480
     16  C         17.5570  -23.4960   -5.0760 C.2     1  UNL1        0.1540
     17  F         16.8910  -23.7990   -3.9540 F       1  UNL1       -0.2030
     18  C         18.1690  -22.2590   -5.2190 C.2     1  UNL1        0.1570
     19  F         18.0990  -21.3570   -4.2300 F       1  UNL1       -0.2030
     20  C         18.8600  -21.9440   -6.3840 C.2     1  UNL1        0.0770
     21  C         24.5870  -23.2610  -11.5720 C.2     1  UNL1        0.0360
     22  C         25.7780  -23.2110  -10.8450 C.2     1  UNL1        0.0290
     23  C         27.0110  -23.3570  -11.4890 C.2     1  UNL1        0.0030
     24  C         27.0670  -23.5620  -12.8680 C.2     1  UNL1        0.0170
     25  C         25.8820  -23.6300  -13.6050 C.2     1  UNL1        0.0340
     26  C         24.6490  -23.4650  -12.9550 C.2     1  UNL1        0.0460
     27  C         25.8730  -23.8420  -15.0790 C.2     1  UNL1        0.2520
     28  O         26.1560  -24.9450  -15.5350 O.2     1  UNL1       -0.2680
     29  N         25.5730  -22.7380  -15.8550 N.am    1  UNL1       -0.3520
     30  H         25.5380  -21.8250  -15.4230 H       1  UNL1        0.1630
     31  C         25.5750  -22.7980  -17.2830 C.3     1  UNL1        0.0840
     32  C         24.3190  -23.1440  -18.0310 C.3     1  UNL1        0.0270
     33  C         24.8650  -21.7490  -18.0940 C.3     1  UNL1        0.0270
@<TRIPOS>BOND
     1    33    32    1
     2    33    31    1
     3    32    31    1
     4    31    29    1
     5    29    30    1
     6    29    27   am
     7    28    27    2
     8    27    25    1
     9    25    26    1
    10    25    24    2
    11    26    21    2
    12    24    23    1
    13    12    11    1
    14    12    10    1
    15    11     9    1
    16    21     1    1
    17    21    22    1
    18    23    22    2
    19     4     1    1
    20     1     2   am
    21     9     5   ar
    22     9     8   ar
    23    10     8    1
    24     2     5    1
    25     2     3    2
    26     5     6   ar
    27     8     7   ar
    28     6     7   ar
    29     7    13    1
    30    13    14    2
    31    13    20    1
    32    14    15    1
    33    20    18    2
    34    15    16    2
    35    18    16    1
    36    18    19    1
    37    16    17    1
