@<TRIPOS>MOLECULE
52875_out_ligand_01.pdbqt
 34 38 0 0 0
SMALL
GASTEIGER

@<TRIPOS>ATOM
      1  C         21.9280  -22.5310   -8.2720 C.ar    1  UNL1        0.1530
      2  O         21.9920  -21.4850   -7.3860 O.2     1  UNL1       -0.3040
      3  C         20.7950  -21.4150   -6.7490 C.ar    1  UNL1        0.0870
      4  C         20.4600  -20.4850   -5.7680 C.2     1  UNL1        0.0380
      5  C         19.1730  -20.5830   -5.2290 C.2     1  UNL1        0.0030
      6  C         18.2840  -21.5720   -5.6590 C.2     1  UNL1        0.0010
      7  C         18.6540  -22.4910   -6.6510 C.2     1  UNL1        0.0150
      8  C         19.9430  -22.4080   -7.2110 C.ar    1  UNL1        0.0090
      9  C         20.6730  -23.1280   -8.2120 C.ar    1  UNL1        0.0180
     10  C         23.1100  -22.8290   -9.0670 C.2     1  UNL1        0.2800
     11  N         23.3700  -21.8530  -10.0160 N.am    1  UNL1       -0.3210
     12  H         22.7230  -21.0710  -10.0020 H       1  UNL1        0.1690
     13  O         23.7880  -23.8350   -8.8860 O.2     1  UNL1       -0.2650
     14  C         24.4100  -21.8070  -10.9640 C.2     1  UNL1        0.0360
     15  C         25.5380  -20.9910  -10.8510 C.2     1  UNL1        0.0290
     16  C         26.5260  -21.0000  -11.8410 C.2     1  UNL1        0.0030
     17  C         26.4000  -21.8320  -12.9520 C.2     1  UNL1        0.0170
     18  C         25.2850  -22.6680  -13.0690 C.2     1  UNL1        0.0340
     19  C         24.2890  -22.6440  -12.0820 C.2     1  UNL1        0.0460
     20  C         25.0970  -23.5730  -14.2340 C.2     1  UNL1        0.2520
     21  O         25.2010  -24.7860  -14.0870 O.2     1  UNL1       -0.2680
     22  N         24.8370  -22.9570  -15.4450 N.am    1  UNL1       -0.3520
     23  H         24.9370  -21.9530  -15.5170 H       1  UNL1        0.1630
     24  C         24.6980  -23.7050  -16.6550 C.3     1  UNL1        0.0840
     25  C         24.7220  -23.0090  -17.9880 C.3     1  UNL1        0.0270
     26  C         23.4430  -23.6070  -17.4780 C.3     1  UNL1        0.0270
     27  C         20.1790  -24.2940   -9.0070 C.3     1  UNL1        0.2180
     28  O         19.9630  -23.9210  -10.3730 O.2     1  UNL1       -0.3470
     29  C         19.0920  -22.8930  -10.6080 C.2     1  UNL1        0.0690
     30  C         19.6460  -21.8070  -11.2920 C.2     1  UNL1        0.0370
     31  C         18.8690  -20.6900  -11.6020 C.2     1  UNL1        0.0030
     32  C         17.5300  -20.6500  -11.2250 C.2     1  UNL1        0.0000
     33  C         16.9700  -21.7280  -10.5420 C.2     1  UNL1        0.0030
     34  C         17.7480  -22.8490  -10.2340 C.2     1  UNL1        0.0370
@<TRIPOS>BOND
     1    25    26    1
     2    25    24    1
     3    26    24    1
     4    24    22    1
     5    23    22    1
     6    22    20   am
     7    20    21    2
     8    20    18    1
     9    18    17    2
    10    18    19    1
    11    17    16    1
    12    19    14    2
    13    16    15    2
    14    31    30    1
    15    31    32    2
    16    30    29    2
    17    32    33    1
    18    14    15    1
    19    14    11    1
    20    29    28    1
    21    29    34    1
    22    33    34    2
    23    28    27    1
    24    11    12    1
    25    11    10   am
    26    10    13    2
    27    10     1    1
    28    27     9    1
    29     1     9   ar
    30     1     2   ar
    31     9     8   ar
    32     2     3   ar
    33     8     3   ar
    34     8     7    1
    35     3     4    1
    36     7     6    2
    37     4     5    2
    38     6     5    1
