@<TRIPOS>MOLECULE
52876_out_ligand_01.pdbqt
 32 35 0 0 0
SMALL
GASTEIGER

@<TRIPOS>ATOM
      1  O         20.8330  -21.0410  -12.5440 O.2     1  UNL1       -0.2670
      2  C         20.7320  -21.6230  -11.4710 C.2     1  UNL1        0.2560
      3  N         21.7570  -22.2050  -10.7480 N.am    1  UNL1       -0.3230
      4  H         21.5020  -22.7510   -9.9340 H       1  UNL1        0.1690
      5  C         19.3700  -21.7720  -10.8790 C.2     1  UNL1        0.0330
      6  C         18.2890  -21.1600  -11.5320 C.2     1  UNL1        0.0170
      7  C         16.9940  -21.2650  -11.0180 C.2     1  UNL1        0.0030
      8  C         16.7690  -21.9780   -9.8440 C.2     1  UNL1        0.0250
      9  C         17.8480  -22.5770   -9.1870 C.2     1  UNL1        0.0800
     10  C         19.1500  -22.4720   -9.6870 C.2     1  UNL1        0.0420
     11  S         17.5460  -23.4800   -7.6870 S.O2    1  UNL1        0.2600
     12  O         18.6840  -24.3500   -7.4810 O.2     1  UNL1       -0.2000
     13  O         16.1950  -23.9980   -7.7370 O.2     1  UNL1       -0.2000
     14  N         17.5760  -22.2530   -6.5010 N.3     1  UNL1       -0.3070
     15  C         16.7090  -22.4660   -5.3070 C.3     1  UNL1        0.1350
     16  C         17.5300  -22.7130   -4.0490 C.3     1  UNL1        0.0210
     17  C         18.4510  -21.5370   -3.7370 C.3     1  UNL1        0.0030
     18  C         18.9240  -20.8200   -5.0000 C.3     1  UNL1        0.0210
     19  C         18.9490  -21.7600   -6.1970 C.3     1  UNL1        0.1350
     20  C         23.1340  -22.2030  -11.0580 C.2     1  UNL1        0.0350
     21  C         24.1140  -21.6040  -10.2660 C.2     1  UNL1        0.0290
     22  C         25.4590  -21.6350  -10.6500 C.2     1  UNL1        0.0030
     23  C         25.8400  -22.2780  -11.8270 C.2     1  UNL1        0.0170
     24  C         24.8710  -22.9010  -12.6180 C.2     1  UNL1        0.0340
     25  C         23.5230  -22.8510  -12.2370 C.2     1  UNL1        0.0460
     26  C         25.2150  -23.6020  -13.8850 C.2     1  UNL1        0.2520
     27  O         25.7790  -24.6910  -13.8450 O.2     1  UNL1       -0.2680
     28  N         24.8980  -22.9390  -15.0560 N.am    1  UNL1       -0.3520
     29  H         24.6070  -21.9710  -15.0120 H       1  UNL1        0.1630
     30  C         25.2130  -23.4820  -16.3390 C.3     1  UNL1        0.0840
     31  C         24.1730  -23.5210  -17.4240 C.3     1  UNL1        0.0270
     32  C         25.3400  -22.5850  -17.5400 C.3     1  UNL1        0.0270
@<TRIPOS>BOND
     1    32    31    1
     2    32    30    1
     3    31    30    1
     4    30    28    1
     5    28    29    1
     6    28    26   am
     7    26    27    2
     8    26    24    1
     9    24    25    1
    10    24    23    2
    11     1     2    2
    12    25    20    2
    13    23    22    1
    14     6     7    1
    15     6     5    2
    16     2     5    1
    17     2     3   am
    18    20     3    1
    19    20    21    1
    20     7     8    2
    21     5    10    1
    22     3     4    1
    23    22    21    2
    24     8     9    1
    25    10     9    2
    26     9    11    1
    27    13    11    2
    28    11    12    2
    29    11    14    1
    30    14    19    1
    31    14    15    1
    32    19    18    1
    33    15    16    1
    34    18    17    1
    35    16    17    1
