@<TRIPOS>MOLECULE
52885_out_ligand_01.pdbqt
 30 32 0 0 0
SMALL
GASTEIGER

@<TRIPOS>ATOM
      1  C         19.0600  -22.2640  -10.0380 C.2     1  UNL1        0.0390
      2  C         20.3740  -22.6150   -9.7100 C.2     1  UNL1        0.0420
      3  C         21.4180  -22.1890  -10.5310 C.2     1  UNL1        0.0750
      4  C         21.1610  -21.4400  -11.6820 C.2     1  UNL1        0.0250
      5  C         19.8480  -21.0790  -11.9940 C.2     1  UNL1        0.0090
      6  C         18.7810  -21.4680  -11.1670 C.2     1  UNL1       -0.0460
      7  C         17.3850  -21.0300  -11.5160 C.3     1  UNL1        0.0490
      8  S         23.0860  -22.6550  -10.1270 S.O2    1  UNL1        0.2460
      9  O         23.8290  -21.4320   -9.9060 O.2     1  UNL1       -0.2060
     10  O         23.0250  -23.6850   -9.1120 O.2     1  UNL1       -0.2060
     11  N         23.6630  -23.3250  -11.5670 N.pl3   1  UNL1       -0.1780
     12  H         23.7650  -24.3390  -11.4800 H       1  UNL1        0.1460
     13  C         24.7380  -22.6630  -12.2380 C.2     1  UNL1        0.0610
     14  C         24.5020  -21.7780  -13.2890 C.2     1  UNL1        0.0270
     15  C         25.5740  -21.1180  -13.8960 C.2     1  UNL1        0.0020
     16  C         26.8800  -21.3410  -13.4550 C.2     1  UNL1        0.0030
     17  C         27.1210  -22.2280  -12.4060 C.2     1  UNL1        0.0440
     18  C         26.0500  -22.8820  -11.8070 C.2     1  UNL1        0.1380
     19  F         26.2800  -23.7330  -10.7960 F       1  UNL1       -0.2040
     20  C         17.9900  -22.7570   -9.1380 C.2     1  UNL1        0.2570
     21  N         18.1270  -22.3150   -7.8410 N.am    1  UNL1       -0.3070
     22  H         18.8780  -21.6720   -7.6400 H       1  UNL1        0.1700
     23  O         17.1090  -23.4420   -9.6350 O.2     1  UNL1       -0.2670
     24  C         17.2790  -22.6460   -6.7760 C.2     1  UNL1        0.1300
     25  C         17.7400  -23.5870   -5.8610 C.2     1  UNL1        0.0500
     26  C         16.9240  -23.9480   -4.7920 C.2     1  UNL1        0.0060
     27  C         15.6710  -23.3610   -4.6670 C.2     1  UNL1        0.0270
     28  C         15.2780  -22.4320   -5.6210 C.2     1  UNL1        0.0330
     29  C         13.9350  -21.7720   -5.5270 C.3     1  UNL1        0.0700
     30  N         16.0650  -22.0800   -6.6620 N.2     1  UNL1       -0.2360
@<TRIPOS>BOND
     1    15    16    2
     2    15    14    1
     3    16    17    1
     4    14    13    2
     5    17    18    2
     6    13    18    1
     7    13    11    1
     8     5     4    2
     9     5     6    1
    10    18    19    1
    11     4     3    1
    12    11    12    1
    13    11     8    1
    14     7     6    1
    15     6     1    2
    16     3     8    1
    17     3     2    2
    18     8     9    2
    19     8    10    2
    20     1     2    1
    21     1    20    1
    22    23    20    2
    23    20    21   am
    24    21    22    1
    25    21    24    1
    26    24    30    2
    27    24    25    1
    28    30    28    1
    29    25    26    2
    30    28    29    1
    31    28    27    2
    32    26    27    1
