@<TRIPOS>MOLECULE
52884_out_ligand_01.pdbqt
 33 36 0 0 0
SMALL
GASTEIGER

@<TRIPOS>ATOM
      1  C         20.7210  -21.6370  -11.5100 C.2     1  UNL1        0.2560
      2  O         20.8000  -20.9340  -12.5100 O.2     1  UNL1       -0.2670
      3  N         21.7590  -22.2420  -10.8280 N.am    1  UNL1       -0.3230
      4  H         21.5400  -22.6350   -9.9210 H       1  UNL1        0.1690
      5  C         19.3760  -21.8450  -10.9130 C.2     1  UNL1        0.0330
      6  C         18.2400  -21.2330  -11.4420 C.2     1  UNL1        0.0170
      7  C         16.9980  -21.4340  -10.8340 C.2     1  UNL1        0.0090
      8  C         16.8660  -22.2290   -9.6780 C.2     1  UNL1       -0.0390
      9  C         15.4840  -22.4130   -9.1140 C.3     1  UNL1        0.0500
     10  C         18.0260  -22.8180   -9.1370 C.2     1  UNL1        0.0860
     11  C         19.2700  -22.6360   -9.7680 C.2     1  UNL1        0.0420
     12  S         18.0270  -23.8760   -7.6850 S.O2    1  UNL1        0.2610
     13  O         19.2600  -24.6350   -7.7210 O.2     1  UNL1       -0.2000
     14  O         16.7560  -24.5620   -7.6030 O.2     1  UNL1       -0.2000
     15  N         18.1180  -22.7740   -6.3860 N.3     1  UNL1       -0.3070
     16  C         19.3320  -21.9280   -6.3130 C.3     1  UNL1        0.1350
     17  C         19.0610  -20.7200   -5.4190 C.3     1  UNL1        0.0210
     18  C         18.5770  -21.1460   -4.0350 C.3     1  UNL1        0.0030
     19  C         17.3700  -22.0730   -4.1510 C.3     1  UNL1        0.0210
     20  C         17.6750  -23.2650   -5.0560 C.3     1  UNL1        0.1350
     21  C         23.1200  -22.2630  -11.1980 C.2     1  UNL1        0.0350
     22  C         24.0290  -21.6500  -10.3230 C.2     1  UNL1        0.0290
     23  C         25.3960  -21.6280  -10.6100 C.2     1  UNL1        0.0030
     24  C         25.8720  -22.2240  -11.7760 C.2     1  UNL1        0.0170
     25  C         24.9730  -22.8390  -12.6540 C.2     1  UNL1        0.0340
     26  C         23.6020  -22.8700  -12.3600 C.2     1  UNL1        0.0460
     27  C         25.4510  -23.5040  -13.8940 C.2     1  UNL1        0.2520
     28  O         26.1510  -24.5070  -13.8260 O.2     1  UNL1       -0.2680
     29  N         25.0310  -22.9250  -15.0780 N.am    1  UNL1       -0.3520
     30  H         24.3090  -22.2160  -15.0440 H       1  UNL1        0.1630
     31  C         25.3620  -23.4830  -16.3500 C.3     1  UNL1        0.0840
     32  C         24.4140  -23.3570  -17.5120 C.3     1  UNL1        0.0270
     33  C         25.7020  -22.5860  -17.5080 C.3     1  UNL1        0.0270
@<TRIPOS>BOND
     1    32    33    1
     2    32    31    1
     3    33    31    1
     4    31    29    1
     5    29    30    1
     6    29    27   am
     7    27    28    2
     8    27    25    1
     9    25    26    1
    10    25    24    2
    11     2     1    2
    12    26    21    2
    13    24    23    1
    14     1     5    1
    15     1     3   am
    16     6     5    2
    17     6     7    1
    18    21     3    1
    19    21    22    1
    20     5    11    1
    21     7     8    2
    22     3     4    1
    23    23    22    2
    24    11    10    2
    25     8    10    1
    26     8     9    1
    27    10    12    1
    28    13    12    2
    29    12    14    2
    30    12    15    1
    31    15    16    1
    32    15    20    1
    33    16    17    1
    34    17    18    1
    35    20    19    1
    36    19    18    1
