@<TRIPOS>MOLECULE
52899_out_ligand_01.pdbqt
 34 37 0 0 0
SMALL
GASTEIGER

@<TRIPOS>ATOM
      1  N         20.0930  -22.5210   -8.2950 N.pl3   1  UNL1       -0.2790
      2  H         20.4100  -21.6710   -7.7970 H       1  UNL1        0.1280
      3  C         21.2220  -23.4590   -8.4350 C.3     1  UNL1        0.1480
      4  C         20.7470  -24.7500   -9.0980 C.3     1  UNL1        0.0360
      5  C         22.5170  -22.7780   -8.9680 C.2     1  UNL1        0.2390
      6  O         22.9430  -21.7580   -8.4200 O.2     1  UNL1       -0.2710
      7  N         23.1270  -23.4170  -10.0400 N.am    1  UNL1       -0.3250
      8  H         22.7810  -24.3260  -10.2800 H       1  UNL1        0.1690
      9  C         24.2300  -22.9670  -10.8130 C.2     1  UNL1        0.0450
     10  C         25.5470  -23.2120  -10.4070 C.2     1  UNL1        0.0300
     11  C         26.6260  -22.7290  -11.1400 C.2     1  UNL1        0.0030
     12  C         26.4070  -21.9860  -12.2920 C.2     1  UNL1        0.0120
     13  C         25.1060  -21.7210  -12.7370 C.2     1  UNL1       -0.0240
     14  C         24.9190  -20.9740  -13.9110 C.2     1  UNL1        0.0120
     15  C         23.9900  -22.2090  -12.0060 C.2     1  UNL1        0.0010
     16  C         23.6430  -20.7010  -14.3980 C.2     1  UNL1        0.0010
     17  C         22.5360  -21.1720  -13.7120 C.2     1  UNL1        0.0010
     18  C         22.7060  -21.9120  -12.5380 C.2     1  UNL1        0.0140
     19  C         19.2590  -22.1130   -9.3480 C.2     1  UNL1        0.0240
     20  C         19.7520  -21.5690  -10.5440 C.2     1  UNL1        0.0240
     21  C         18.9060  -21.2240  -11.6030 C.2     1  UNL1        0.0020
     22  C         17.5370  -21.4410  -11.5090 C.2     1  UNL1        0.0010
     23  C         17.0150  -22.0220  -10.3580 C.2     1  UNL1        0.0190
     24  C         17.8650  -22.3760   -9.2960 C.2     1  UNL1        0.0530
     25  C         17.2630  -23.0050   -8.0840 C.2     1  UNL1        0.2530
     26  O         17.4200  -24.2000   -7.8570 O.2     1  UNL1       -0.2680
     27  N         16.5130  -22.1670   -7.2850 N.am    1  UNL1       -0.3510
     28  H         16.2210  -21.2750   -7.6610 H       1  UNL1        0.1630
     29  C         15.7240  -22.6920   -6.1930 C.3     1  UNL1        0.1870
     30  C         16.5850  -22.7950   -4.9910 C.2     1  UNL1        0.0700
     31  C         17.4130  -21.8980   -4.3460 C.2     1  UNL1        0.0360
     32  C         17.9740  -22.5920   -3.2490 C.2     1  UNL1        0.0270
     33  C         17.4510  -23.8640   -3.2920 C.2     1  UNL1        0.1420
     34  O         16.6160  -23.9990   -4.3530 O.2     1  UNL1       -0.3250
@<TRIPOS>BOND
     1    16    14    2
     2    16    17    1
     3    14    13    1
     4    17    18    2
     5    13    12    2
     6    13    15    1
     7    18    15    1
     8    12    11    1
     9    15     9    2
    10    21    22    2
    11    21    20    1
    12    22    23    1
    13    11    10    2
    14     9    10    1
    15     9     7    1
    16    20    19    2
    17    23    24    2
    18     8     7    1
    19     7     5   am
    20    19    24    1
    21    19     1    1
    22    24    25    1
    23     4     3    1
    24     5     3    1
    25     5     6    2
    26     3     1    1
    27     1     2    1
    28    25    26    2
    29    25    27   am
    30    28    27    1
    31    27    29    1
    32    29    30    1
    33    30    34    1
    34    30    31    2
    35    34    33    1
    36    31    32    1
    37    33    32    2
