@<TRIPOS>MOLECULE
52897_out_ligand_01.pdbqt
 37 40 0 0 0
SMALL
GASTEIGER

@<TRIPOS>ATOM
      1  C         18.7120  -22.2440  -10.2070 C.2     1  UNL1        0.2420
      2  O         18.6240  -21.2860  -10.9720 O.2     1  UNL1       -0.2710
      3  N         19.8790  -22.9200   -9.8880 N.am    1  UNL1       -0.3260
      4  H         19.7630  -23.7720   -9.3350 H       1  UNL1        0.1690
      5  C         17.4550  -22.8790   -9.6040 C.3     1  UNL1        0.2570
      6  N         17.4170  -22.7810   -8.1440 N.ar    1  UNL1       -0.2240
      7  N         18.3770  -21.9880   -7.5640 N.ar    1  UNL1       -0.1630
      8  C         18.3830  -21.8450   -6.2690 C.ar    1  UNL1        0.1550
      9  C         17.3830  -22.4530   -5.3760 C.ar    1  UNL1        0.0160
     10  C         17.3420  -22.2400   -3.9930 C.2     1  UNL1        0.0150
     11  C         16.4240  -23.2680   -5.9700 C.ar    1  UNL1        0.0460
     12  C         16.3550  -22.8550   -3.2170 C.2     1  UNL1        0.0010
     13  C         15.4040  -23.6790   -3.8150 C.2     1  UNL1        0.0010
     14  C         15.4350  -23.8870   -5.1930 C.2     1  UNL1        0.0180
     15  C         16.4460  -23.4720   -7.4290 C.ar    1  UNL1        0.2750
     16  O         15.6490  -24.2450   -7.9620 O.2     1  UNL1       -0.2660
     17  C         19.5020  -20.9680   -5.7090 C.2     1  UNL1        0.2700
     18  N         19.0970  -20.1010   -4.7310 N.am    1  UNL1       -0.3650
     19  H         19.7400  -19.3590   -4.4900 H       1  UNL1        0.1590
     20  H         18.1040  -19.9030   -4.6650 H       1  UNL1        0.1590
     21  O         20.6430  -21.0200   -6.1310 O.2     1  UNL1       -0.2660
     22  C         21.1970  -22.5950  -10.2550 C.2     1  UNL1        0.0340
     23  C         21.6120  -22.3770  -11.5710 C.2     1  UNL1        0.0310
     24  C         22.9430  -22.0510  -11.8520 C.2     1  UNL1        0.0270
     25  C         23.8700  -21.9590  -10.8120 C.2     1  UNL1        0.0790
     26  C         23.4640  -22.1440   -9.4890 C.2     1  UNL1        0.0270
     27  C         22.1310  -22.4650   -9.2160 C.2     1  UNL1        0.0310
     28  S         25.5610  -21.5170  -11.1640 S.O2    1  UNL1        0.2600
     29  O         26.3910  -22.6250  -10.7360 O.2     1  UNL1       -0.2000
     30  O         25.7800  -20.1810  -10.6520 O.2     1  UNL1       -0.2000
     31  N         25.5950  -21.4540  -12.8670 N.3     1  UNL1       -0.3070
     32  C         25.7240  -20.1130  -13.4740 C.3     1  UNL1        0.1350
     33  C         25.5930  -20.1030  -14.9980 C.3     1  UNL1        0.0210
     34  C         24.4830  -20.9950  -15.5500 C.3     1  UNL1        0.0020
     35  C         24.9400  -22.4380  -15.7750 C.3     1  UNL1        0.0020
     36  C         25.2440  -23.2290  -14.5060 C.3     1  UNL1        0.0210
     37  C         26.2570  -22.5660  -13.5770 C.3     1  UNL1        0.1350
@<TRIPOS>BOND
     1    35    34    1
     2    35    36    1
     3    34    33    1
     4    33    32    1
     5    36    37    1
     6    37    31    1
     7    32    31    1
     8    31    28    1
     9    24    23    1
    10    24    25    2
    11    23    22    2
    12    28    25    1
    13    28    29    2
    14    28    30    2
    15     2     1    2
    16    25    26    1
    17    22     3    1
    18    22    27    1
    19     1     3   am
    20     1     5    1
    21     3     4    1
    22     5     6    1
    23    26    27    2
    24     6     7   ar
    25     6    15   ar
    26    16    15    2
    27     7     8   ar
    28    15    11   ar
    29     8    17    1
    30     8     9   ar
    31    21    17    2
    32    11     9   ar
    33    11    14    1
    34    17    18   am
    35     9    10    1
    36    14    13    2
    37    18    20    1
    38    18    19    1
    39    10    12    2
    40    13    12    1
