@<TRIPOS>MOLECULE
528_out_ligand_01.pdbqt
 37 41 0 0 0
SMALL
GASTEIGER

@<TRIPOS>ATOM
      1  O         22.0630  -22.5280  -11.6790 O.2     1  UNL1       -0.2670
      2  C         23.0340  -22.7280  -10.9600 C.2     1  UNL1        0.2560
      3  N         23.0500  -22.7650   -9.5770 N.am    1  UNL1       -0.3230
      4  H         23.9530  -22.7920   -9.1250 H       1  UNL1        0.1690
      5  C         24.3630  -22.9020  -11.6100 C.2     1  UNL1        0.0330
      6  C         25.5450  -22.4580  -10.9990 C.2     1  UNL1        0.0170
      7  C         26.7770  -22.6450  -11.6340 C.2     1  UNL1        0.0030
      8  C         26.8340  -23.2760  -12.8750 C.2     1  UNL1        0.0250
      9  C         25.6540  -23.7250  -13.4780 C.2     1  UNL1        0.0800
     10  C         24.4190  -23.5560  -12.8460 C.2     1  UNL1        0.0420
     11  S         25.7400  -24.5590  -15.0420 S.O2    1  UNL1        0.2580
     12  O         25.1370  -25.8660  -14.9100 O.2     1  UNL1       -0.2010
     13  O         27.0810  -24.3820  -15.5560 O.2     1  UNL1       -0.2010
     14  N         24.7370  -23.6040  -15.9840 N.3     1  UNL1       -0.3130
     15  H         23.9140  -23.2680  -15.4770 H       1  UNL1        0.1720
     16  C         25.3570  -22.6250  -16.8950 C.3     1  UNL1        0.1640
     17  C         25.1230  -21.2170  -16.3400 C.3     1  UNL1        0.1400
     18  C         26.2570  -20.7230  -15.4610 C.3     1  UNL1        0.0350
     19  C         25.5460  -19.7170  -14.5890 C.3     1  UNL1        0.0290
     20  C         24.2070  -20.3820  -14.3600 C.3     1  UNL1        0.1680
     21  O         23.9400  -21.1980  -15.5120 O.3     1  UNL1       -0.3840
     22  C         21.9400  -22.6660   -8.7130 C.2     1  UNL1        0.0350
     23  C         20.8740  -23.5660   -8.7040 C.2     1  UNL1        0.0300
     24  C         19.8050  -23.4000   -7.8140 C.2     1  UNL1        0.0170
     25  C         19.7770  -22.3210   -6.9250 C.2     1  UNL1        0.0120
     26  C         20.8600  -21.4360   -6.9120 C.2     1  UNL1        0.0170
     27  C         21.9290  -21.6040   -7.7990 C.2     1  UNL1        0.0300
     28  C         18.6750  -22.1240   -5.9870 C.ar    1  UNL1        0.1630
     29  N         18.7960  -21.6310   -4.7690 N.ar    1  UNL1       -0.1290
     30  N         17.5620  -21.6200   -4.1750 N.ar    1  UNL1       -0.1340
     31  C         16.6830  -22.0820   -5.0390 C.ar    1  UNL1        0.1300
     32  N         17.3380  -22.3680   -6.2130 N.ar    1  UNL1       -0.3160
     33  C         15.2320  -22.2730   -4.7430 C.3     1  UNL1        0.0810
     34  C         16.7050  -22.7420   -7.4540 C.3     1  UNL1        0.1320
     35  C         16.0490  -24.1190   -7.4110 C.3     1  UNL1        0.0200
     36  C         15.0960  -24.3560   -6.2340 C.3     1  UNL1        0.0020
     37  C         14.4020  -23.0890   -5.7370 C.3     1  UNL1        0.0080
@<TRIPOS>BOND
     1    16    17    1
     2    16    14    1
     3    17    21    1
     4    17    18    1
     5    14    15    1
     6    14    11    1
     7    13    11    2
     8    21    20    1
     9    18    19    1
    10    11    12    2
    11    11     9    1
    12    19    20    1
    13     9     8    2
    14     9    10    1
    15     8     7    1
    16    10     5    2
    17     1     2    2
    18     7     6    2
    19     5     6    1
    20     5     2    1
    21     2     3   am
    22     3     4    1
    23     3    22    1
    24    22    23    2
    25    22    27    1
    26    23    24    1
    27    24    25    2
    28    27    26    2
    29    34    35    1
    30    34    32    1
    31    35    36    1
    32    25    26    1
    33    25    28    1
    34    36    37    1
    35    32    28   ar
    36    32    31   ar
    37    28    29   ar
    38    37    33    1
    39    31    33    1
    40    31    30   ar
    41    29    30   ar
