@<TRIPOS>MOLECULE
52922_out_ligand_01.pdbqt
 26 28 0 0 0
SMALL
GASTEIGER

@<TRIPOS>ATOM
      1  C         19.9670  -22.2790   -7.8830 C.2     1  UNL1        0.2800
      2  O         21.1000  -22.1840   -7.4240 O.2     1  UNL1       -0.2650
      3  N         19.6700  -22.3040   -9.2390 N.am    1  UNL1       -0.3210
      4  H         18.7200  -22.5480   -9.4790 H       1  UNL1        0.1690
      5  C         18.7940  -22.4180   -7.0290 C.ar    1  UNL1        0.1500
      6  C         18.4060  -21.8260   -5.8280 C.ar    1  UNL1       -0.0090
      7  C         19.1630  -20.8490   -5.0030 C.3     1  UNL1        0.0520
      8  C         17.1220  -22.3770   -5.5100 C.ar    1  UNL1        0.0100
      9  C         16.1850  -22.2150   -4.4690 C.2     1  UNL1        0.0150
     10  C         16.8310  -23.2830   -6.5210 C.ar    1  UNL1        0.1250
     11  C         14.9960  -22.9630   -4.4950 C.2     1  UNL1        0.0040
     12  C         14.7380  -23.8610   -5.5320 C.2     1  UNL1        0.0450
     13  C         15.6590  -24.0340   -6.5640 C.2     1  UNL1        0.1510
     14  F         15.4040  -24.8960   -7.5550 F       1  UNL1       -0.2030
     15  O         17.8390  -23.3150   -7.4280 O.2     1  UNL1       -0.3000
     16  C         20.5560  -22.1370  -10.3220 C.2     1  UNL1        0.0350
     17  C         20.1590  -21.2620  -11.3400 C.2     1  UNL1        0.0300
     18  C         20.9820  -21.0340  -12.4480 C.2     1  UNL1        0.0190
     19  C         22.2150  -21.6850  -12.5550 C.2     1  UNL1        0.0320
     20  C         22.6260  -22.5430  -11.5310 C.2     1  UNL1        0.0190
     21  C         21.7980  -22.7680  -10.4230 C.2     1  UNL1        0.0300
     22  C         23.0560  -21.4100  -13.7510 C.2     1  UNL1        0.2490
     23  N         22.7410  -20.3160  -14.5100 N.am    1  UNL1       -0.3660
     24  H         22.1500  -19.5740  -14.1670 H       1  UNL1        0.1590
     25  H         23.4010  -20.0820  -15.2410 H       1  UNL1        0.1590
     26  O         24.0180  -22.1130  -14.0350 O.2     1  UNL1       -0.2680
@<TRIPOS>BOND
     1    25    23    1
     2    23    24    1
     3    23    22   am
     4    26    22    2
     5    22    19    1
     6    19    18    2
     7    19    20    1
     8    18    17    1
     9    20    21    2
    10    17    16    2
    11    21    16    1
    12    16     3    1
    13     4     3    1
    14     3     1   am
    15     1     2    2
    16     1     5    1
    17    14    13    1
    18    15     5   ar
    19    15    10   ar
    20     5     6   ar
    21    13    10    1
    22    13    12    2
    23    10     8   ar
    24     6     8   ar
    25     6     7    1
    26    12    11    1
    27     8     9    1
    28    11     9    2
