@<TRIPOS>MOLECULE
52920_out_ligand_01.pdbqt
 35 38 0 0 0
SMALL
GASTEIGER

@<TRIPOS>ATOM
      1  N         23.2800  -23.6600  -10.8830 N.pl3   1  UNL1       -0.2830
      2  H         22.4250  -24.2000  -11.0960 H       1  UNL1        0.1280
      3  C         23.6090  -22.8810  -12.0050 C.2     1  UNL1        0.0240
      4  C         24.6750  -23.2050  -12.8580 C.2     1  UNL1        0.0240
      5  C         24.9550  -22.4490  -14.0020 C.2     1  UNL1        0.0020
      6  C         24.1570  -21.3630  -14.3410 C.2     1  UNL1        0.0010
      7  C         23.0580  -21.0480  -13.5500 C.2     1  UNL1        0.0190
      8  C         22.7650  -21.8170  -12.4090 C.2     1  UNL1        0.0530
      9  C         21.5420  -21.4810  -11.6200 C.2     1  UNL1        0.2580
     10  N         20.4180  -22.2070  -11.9800 N.am    1  UNL1       -0.3230
     11  H         20.5570  -22.9470  -12.6540 H       1  UNL1        0.1690
     12  O         21.6290  -20.6510  -10.7220 O.2     1  UNL1       -0.2670
     13  C         19.1220  -22.1100  -11.4360 C.2     1  UNL1        0.0350
     14  C         18.6720  -23.1860  -10.6610 C.2     1  UNL1        0.0300
     15  C         17.3970  -23.1700  -10.0870 C.2     1  UNL1        0.0090
     16  C         16.5440  -22.0820  -10.2870 C.2     1  UNL1       -0.0620
     17  C         15.1880  -22.0570   -9.6460 C.3     1  UNL1        0.0480
     18  C         16.9940  -21.0050  -11.0560 C.2     1  UNL1        0.0090
     19  C         18.2720  -21.0210  -11.6300 C.2     1  UNL1        0.0300
     20  C         23.1910  -23.0810   -9.5400 C.3     1  UNL1        0.1950
     21  C         21.9240  -23.5140   -8.7800 C.2     1  UNL1        0.2350
     22  O         21.5470  -24.6830   -8.7840 O.2     1  UNL1       -0.2720
     23  N         21.3080  -22.4580   -8.1190 N.am    1  UNL1       -0.3260
     24  H         21.7060  -21.5390   -8.2560 H       1  UNL1        0.1690
     25  C         20.1550  -22.5060   -7.3070 C.2     1  UNL1        0.0370
     26  C         19.9230  -21.4040   -6.4700 C.2     1  UNL1        0.0320
     27  C         18.8120  -21.3710   -5.6240 C.2     1  UNL1        0.0420
     28  C         17.9070  -22.4290   -5.6240 C.2     1  UNL1        0.1020
     29  C         18.1340  -23.5340   -6.4460 C.2     1  UNL1        0.1040
     30  O         16.8790  -22.3570   -4.7240 O.2     1  UNL1       -0.3480
     31  C         19.2620  -23.5770   -7.2750 C.2     1  UNL1        0.0690
     32  O         17.3530  -24.6580   -6.4150 O.2     1  UNL1       -0.3480
     33  C         16.0120  -24.3930   -6.8250 C.3     1  UNL1        0.1780
     34  C         15.1750  -23.8220   -5.6900 C.3     1  UNL1        0.0530
     35  C         15.6020  -22.4030   -5.3580 C.3     1  UNL1        0.1780
@<TRIPOS>BOND
     1     6     5    2
     2     6     7    1
     3     5     4    1
     4     7     8    2
     5     4     3    2
     6    11    10    1
     7     8     3    1
     8     8     9    1
     9     3     1    1
    10    10     9   am
    11    10    13    1
    12    19    13    2
    13    19    18    1
    14     9    12    2
    15    13    14    1
    16     2     1    1
    17    18    16    2
    18     1    20    1
    19    14    15    2
    20    16    15    1
    21    16    17    1
    22    20    21    1
    23    22    21    2
    24    21    23   am
    25    24    23    1
    26    23    25    1
    27    25    31    2
    28    25    26    1
    29    31    29    1
    30    33    32    1
    31    33    34    1
    32    26    27    2
    33    29    32    1
    34    29    28    2
    35    34    35    1
    36    27    28    1
    37    28    30    1
    38    35    30    1
