@<TRIPOS>MOLECULE
52933_out_ligand_01.pdbqt
 35 38 0 0 0
SMALL
GASTEIGER

@<TRIPOS>ATOM
      1  N         24.4140  -22.0850  -11.5040 N.pl3   1  UNL1       -0.2830
      2  H         25.0820  -21.3390  -11.2510 H       1  UNL1        0.1280
      3  C         24.1160  -22.9270  -10.3450 C.3     1  UNL1        0.1950
      4  C         23.0150  -22.3330   -9.4490 C.2     1  UNL1        0.2350
      5  O         22.9310  -21.1230   -9.2770 O.2     1  UNL1       -0.2720
      6  N         22.1700  -23.2970   -8.9150 N.am    1  UNL1       -0.3260
      7  H         22.4230  -24.2620   -9.0760 H       1  UNL1        0.1690
      8  C         21.0090  -23.0940   -8.1450 C.2     1  UNL1        0.0340
      9  C         20.7920  -21.9860   -7.3270 C.2     1  UNL1        0.0300
     10  C         19.5870  -21.8440   -6.6270 C.2     1  UNL1        0.0140
     11  C         18.5690  -22.8080   -6.7200 C.2     1  UNL1       -0.0260
     12  C         18.8040  -23.9260   -7.5350 C.2     1  UNL1        0.0140
     13  C         20.0090  -24.0660   -8.2370 C.2     1  UNL1        0.0300
     14  C         17.2920  -22.6430   -6.0010 C.2     1  UNL1       -0.0260
     15  C         16.0830  -22.4780   -6.7010 C.2     1  UNL1        0.0120
     16  C         14.8720  -22.3090   -6.0240 C.2     1  UNL1        0.0010
     17  C         14.8490  -22.3030   -4.6310 C.2     1  UNL1        0.0000
     18  C         16.0340  -22.4690   -3.9160 C.2     1  UNL1        0.0010
     19  C         17.2430  -22.6380   -4.5970 C.2     1  UNL1        0.0120
     20  C         24.7180  -22.6010  -12.7710 C.2     1  UNL1        0.0240
     21  C         25.6450  -23.6390  -12.9660 C.2     1  UNL1        0.0240
     22  C         25.8830  -24.1930  -14.2370 C.2     1  UNL1        0.0020
     23  C         25.1690  -23.7470  -15.3450 C.2     1  UNL1        0.0010
     24  C         24.1990  -22.7640  -15.1790 C.2     1  UNL1        0.0190
     25  C         23.9630  -22.2100  -13.9030 C.2     1  UNL1        0.0530
     26  C         22.8860  -21.1900  -13.7790 C.2     1  UNL1        0.2530
     27  O         22.9120  -20.1620  -14.4460 O.2     1  UNL1       -0.2680
     28  N         21.9150  -21.4840  -12.8410 N.am    1  UNL1       -0.3510
     29  H         22.2150  -22.0890  -12.0850 H       1  UNL1        0.1630
     30  C         20.9540  -20.4620  -12.4790 C.3     1  UNL1        0.1870
     31  C         19.7540  -21.1290  -11.9120 C.2     1  UNL1        0.0700
     32  C         19.5580  -22.2940  -11.1930 C.2     1  UNL1        0.0360
     33  C         18.1700  -22.3680  -10.9170 C.2     1  UNL1        0.0270
     34  C         17.6060  -21.2420  -11.4850 C.2     1  UNL1        0.1420
     35  O         18.5610  -20.4800  -12.0840 O.2     1  UNL1       -0.3250
@<TRIPOS>BOND
     1    23    24    2
     2    23    22    1
     3    24    25    1
     4    27    26    2
     5    22    21    2
     6    25    26    1
     7    25    20    2
     8    26    28   am
     9    21    20    1
    10    28    30    1
    11    28    29    1
    12    20     1    1
    13    30    31    1
    14    35    31    1
    15    35    34    1
    16    31    32    2
    17     1     2    1
    18     1     3    1
    19    34    33    2
    20    32    33    1
    21     3     4    1
    22     4     5    2
    23     4     6   am
    24     7     6    1
    25     6     8    1
    26    13     8    2
    27    13    12    1
    28     8     9    1
    29    12    11    2
    30     9    10    2
    31    11    10    1
    32    11    14    1
    33    15    16    1
    34    15    14    2
    35    16    17    2
    36    14    19    1
    37    17    18    1
    38    19    18    2
