@<TRIPOS>MOLECULE
52936_out_ligand_01.pdbqt
 36 39 0 0 0
SMALL
GASTEIGER

@<TRIPOS>ATOM
      1  C         23.8140  -21.9570  -12.2740 C.2     1  UNL1        0.0530
      2  C         24.5070  -22.4530  -13.3960 C.2     1  UNL1        0.0190
      3  C         25.8750  -22.7030  -13.3330 C.2     1  UNL1        0.0010
      4  C         26.5620  -22.4770  -12.1470 C.2     1  UNL1        0.0020
      5  C         25.8790  -22.0180  -11.0180 C.2     1  UNL1        0.0240
      6  C         24.5000  -21.7460  -11.0490 C.2     1  UNL1        0.0240
      7  N         23.8140  -21.3940   -9.8710 N.pl3   1  UNL1       -0.2830
      8  H         24.3070  -20.6470   -9.3620 H       1  UNL1        0.1280
      9  C         23.2950  -22.4510   -8.9810 C.3     1  UNL1        0.1950
     10  C         22.3070  -21.8890   -7.9450 C.2     1  UNL1        0.2350
     11  O         22.5780  -20.8880   -7.2880 O.2     1  UNL1       -0.2720
     12  N         21.1370  -22.6250   -7.8900 N.am    1  UNL1       -0.3260
     13  H         21.1490  -23.4360   -8.5120 H       1  UNL1        0.1690
     14  C         20.0130  -22.4360   -7.0720 C.2     1  UNL1        0.0370
     15  C         19.8320  -21.3280   -6.2460 C.2     1  UNL1        0.0320
     16  C         18.6910  -21.2260   -5.4430 C.2     1  UNL1        0.0420
     17  C         17.7210  -22.2290   -5.4550 C.2     1  UNL1        0.1020
     18  C         17.8690  -23.3150   -6.3270 C.2     1  UNL1        0.1040
     19  O         16.6770  -22.0380   -4.5860 O.2     1  UNL1       -0.3480
     20  C         19.0260  -23.4280   -7.1060 C.2     1  UNL1        0.0690
     21  O         16.9580  -24.3300   -6.4960 O.2     1  UNL1       -0.3480
     22  C         15.6000  -23.8910   -6.4010 C.3     1  UNL1        0.1780
     23  C         15.1330  -23.8790   -4.9550 C.3     1  UNL1        0.0530
     24  C         16.1650  -23.2530   -4.0340 C.3     1  UNL1        0.1780
     25  C         22.3480  -21.6470  -12.3910 C.2     1  UNL1        0.2580
     26  N         21.5400  -22.2310  -11.4250 N.am    1  UNL1       -0.3230
     27  H         21.9650  -22.9280  -10.8310 H       1  UNL1        0.1690
     28  O         21.9560  -20.9730  -13.3380 O.2     1  UNL1       -0.2670
     29  C         20.1510  -22.0520  -11.2520 C.2     1  UNL1        0.0350
     30  C         19.4640  -20.8900  -11.5980 C.2     1  UNL1        0.0320
     31  C         18.0850  -20.7930  -11.3780 C.2     1  UNL1        0.0390
     32  C         17.3730  -21.8510  -10.8100 C.2     1  UNL1        0.0680
     33  C         18.0570  -23.0100  -10.4540 C.2     1  UNL1        0.0390
     34  C         19.4370  -23.1070  -10.6720 C.2     1  UNL1        0.0320
     35  O         16.0340  -21.6220  -10.6490 O.2     1  UNL1       -0.3560
     36  C         15.3150  -22.5550   -9.8540 C.3     1  UNL1        0.2100
@<TRIPOS>BOND
     1     2     3    1
     2     2     1    2
     3    28    25    2
     4     3     4    2
     5    25     1    1
     6    25    26   am
     7     1     6    1
     8     4     5    1
     9    30    31    1
    10    30    29    2
    11    26    29    1
    12    26    27    1
    13    31    32    2
    14    29    34    1
    15     6     5    2
    16     6     7    1
    17    32    35    1
    18    32    33    1
    19    34    33    2
    20    35    36    1
    21     7     8    1
    22     7     9    1
    23     9    10    1
    24    13    12    1
    25    10    12   am
    26    10    11    2
    27    12    14    1
    28    20    14    2
    29    20    18    1
    30    14    15    1
    31    21    22    1
    32    21    18    1
    33    22    23    1
    34    18    17    2
    35    15    16    2
    36    17    16    1
    37    17    19    1
    38    23    24    1
    39    19    24    1
