@<TRIPOS>MOLECULE
52947_out_ligand_01.pdbqt
 43 46 0 0 0
SMALL
GASTEIGER

@<TRIPOS>ATOM
      1  C         22.6780  -22.5140  -10.0460 C.2     1  UNL1        0.2560
      2  O         22.7730  -21.8670   -9.0100 O.2     1  UNL1       -0.2670
      3  N         21.5880  -23.2550  -10.4660 N.am    1  UNL1       -0.3230
      4  H         21.6370  -23.6590  -11.3920 H       1  UNL1        0.1690
      5  C         23.8290  -22.4900  -10.9920 C.2     1  UNL1        0.0330
      6  C         23.6100  -22.0010  -12.2820 C.2     1  UNL1        0.0420
      7  C         24.6640  -21.9330  -13.2090 C.2     1  UNL1        0.0860
      8  C         25.9540  -22.3730  -12.8540 C.2     1  UNL1       -0.0390
      9  C         26.1550  -22.8620  -11.5490 C.2     1  UNL1        0.0090
     10  C         27.1210  -22.3870  -13.8020 C.3     1  UNL1        0.0500
     11  C         25.1090  -22.9100  -10.6210 C.2     1  UNL1        0.0170
     12  S         24.2740  -21.2970  -14.8370 S.O2    1  UNL1        0.2630
     13  O         23.4430  -20.1230  -14.6770 O.2     1  UNL1       -0.2000
     14  O         23.8180  -22.4030  -15.6530 O.2     1  UNL1       -0.2000
     15  N         25.7720  -20.8380  -15.4500 N.pl3   1  UNL1       -0.2800
     16  H         26.5430  -21.3270  -15.0050 H       1  UNL1        0.1790
     17  C         26.0020  -19.5330  -15.9860 C.2     1  UNL1        0.0480
     18  C         25.7780  -19.2630  -17.3400 C.2     1  UNL1        0.0310
     19  C         25.9820  -17.9810  -17.8560 C.2     1  UNL1        0.0090
     20  C         26.4480  -16.9540  -17.0330 C.2     1  UNL1       -0.0610
     21  C         26.6500  -15.5660  -17.5680 C.3     1  UNL1        0.0480
     22  C         26.7040  -17.2300  -15.6840 C.2     1  UNL1        0.0150
     23  C         26.4980  -18.5150  -15.1510 C.2     1  UNL1       -0.0340
     24  C         26.8000  -18.7430  -13.6940 C.3     1  UNL1        0.0500
     25  C         20.3630  -23.4280   -9.7870 C.2     1  UNL1        0.0350
     26  C         20.3790  -24.2130   -8.6240 C.2     1  UNL1        0.0310
     27  C         19.2070  -24.4330   -7.8920 C.2     1  UNL1        0.0270
     28  C         18.0100  -23.8560   -8.3210 C.2     1  UNL1        0.0800
     29  C         17.9740  -23.0950   -9.4890 C.2     1  UNL1        0.0270
     30  C         19.1520  -22.8730  -10.2100 C.2     1  UNL1        0.0310
     31  S         16.5100  -24.1440   -7.4080 S.O2    1  UNL1        0.2630
     32  O         15.4740  -24.5030   -8.3510 O.2     1  UNL1       -0.2000
     33  O         16.8410  -25.0160   -6.2990 O.2     1  UNL1       -0.2000
     34  N         16.1700  -22.6420   -6.7210 N.pl3   1  UNL1       -0.2800
     35  H         15.1720  -22.4540   -6.6740 H       1  UNL1        0.1790
     36  C         17.0050  -22.1240   -5.6870 C.2     1  UNL1        0.0490
     37  C         18.1790  -21.4450   -6.0310 C.2     1  UNL1        0.0370
     38  C         19.0370  -20.9500   -5.0420 C.2     1  UNL1       -0.0600
     39  C         20.3130  -20.2560   -5.4160 C.3     1  UNL1        0.0480
     40  C         18.7110  -21.1560   -3.7000 C.2     1  UNL1        0.0070
     41  C         17.5360  -21.8230   -3.3510 C.2     1  UNL1        0.0090
     42  C         16.6690  -22.3160   -4.3380 C.2     1  UNL1       -0.0350
     43  C         15.4040  -23.0080   -3.9160 C.3     1  UNL1        0.0500
@<TRIPOS>BOND
     1    19    18    1
     2    19    20    2
     3    21    20    1
     4    18    17    2
     5    20    22    1
     6    17    15    1
     7    17    23    1
     8    22    23    2
     9    14    12    2
    10    15    16    1
    11    15    12    1
    12    23    24    1
    13    12    13    2
    14    12     7    1
    15    10     8    1
    16     7     8    2
    17     7     6    1
    18     8     9    1
    19     6     5    2
    20     9    11    2
    21     4     3    1
    22     5    11    1
    23     5     1    1
    24     3     1   am
    25     3    25    1
    26    30    25    2
    27    30    29    1
    28     1     2    2
    29    25    26    1
    30    29    28    2
    31    26    27    2
    32    32    31    2
    33    28    27    1
    34    28    31    1
    35    31    34    1
    36    31    33    2
    37    34    35    1
    38    34    36    1
    39    37    36    2
    40    37    38    1
    41    36    42    1
    42    39    38    1
    43    38    40    2
    44    42    43    1
    45    42    41    2
    46    40    41    1
