@<TRIPOS>MOLECULE
52945_out_ligand_01.pdbqt
 33 35 0 0 0
SMALL
GASTEIGER

@<TRIPOS>ATOM
      1  C         17.6160  -23.3970   -8.8810 C.2     1  UNL1        0.1020
      2  C         19.0110  -23.5560   -8.9390 C.2     1  UNL1        0.0440
      3  C         19.7530  -22.9270   -9.9440 C.2     1  UNL1        0.0340
      4  C         19.1010  -22.1320  -10.8920 C.2     1  UNL1        0.0190
      5  C         17.7120  -21.9820  -10.8350 C.2     1  UNL1        0.0260
      6  C         16.9610  -22.6130   -9.8330 C.2     1  UNL1        0.0570
      7 CL         15.2620  -22.3160   -9.8460 Cl      1  UNL1       -0.0830
      8  S         16.7340  -24.2310   -7.5850 S.O2    1  UNL1        0.2650
      9  O         15.5720  -24.8650   -8.1690 O.2     1  UNL1       -0.2000
     10  O         17.6870  -25.0300   -6.8420 O.2     1  UNL1       -0.2000
     11  N         16.1820  -22.9790   -6.6030 N.pl3   1  UNL1       -0.2800
     12  H         15.5160  -22.3820   -7.0900 H       1  UNL1        0.1790
     13  C         16.9960  -22.4050   -5.5760 C.2     1  UNL1        0.0490
     14  C         16.7360  -22.7140   -4.2270 C.2     1  UNL1       -0.0350
     15  C         17.5250  -22.1210   -3.2260 C.2     1  UNL1        0.0090
     16  C         15.6360  -23.6500   -3.8090 C.3     1  UNL1        0.0500
     17  C         18.5730  -21.2620   -3.5540 C.2     1  UNL1        0.0070
     18  C         18.8770  -21.0050   -4.8910 C.2     1  UNL1       -0.0600
     19  C         19.9980  -20.0790   -5.2600 C.3     1  UNL1        0.0480
     20  C         18.0890  -21.5870   -5.8920 C.2     1  UNL1        0.0370
     21  C         21.2330  -23.0840   -9.9420 C.2     1  UNL1        0.2560
     22  O         21.7410  -23.7200   -9.0280 O.2     1  UNL1       -0.2670
     23  N         21.8840  -22.5070  -11.0160 N.am    1  UNL1       -0.3230
     24  H         21.3060  -22.1500  -11.7650 H       1  UNL1        0.1690
     25  C         23.2780  -22.4550  -11.2380 C.2     1  UNL1        0.0370
     26  C         23.9980  -21.4830  -10.5280 C.2     1  UNL1        0.0290
     27  C         25.3820  -21.3580  -10.6820 C.2     1  UNL1        0.0050
     28  C         26.0660  -22.2090  -11.5460 C.2     1  UNL1        0.0360
     29  C         25.3520  -23.1870  -12.2500 C.2     1  UNL1        0.1050
     30  C         23.9630  -23.3150  -12.1010 C.2     1  UNL1        0.0650
     31  N         26.0740  -24.0940  -13.1510 N.pl3   1  UNL1       -0.1160
     32  O         26.9630  -24.8090  -12.6670 O.2     1  UNL1       -0.5320
     33  O         25.7570  -24.0830  -14.3500 O.2     1  UNL1       -0.5320
@<TRIPOS>BOND
     1    33    31    2
     2    31    32    2
     3    31    29    1
     4    29    30    1
     5    29    28    2
     6    30    25    2
     7    24    23    1
     8    28    27    1
     9    25    23    1
    10    25    26    1
    11    23    21   am
    12     4     5    2
    13     4     3    1
    14     5     6    1
    15    27    26    2
    16     3    21    1
    17     3     2    2
    18    21    22    2
    19     7     6    1
    20     6     1    2
    21     2     1    1
    22     1     8    1
    23     9     8    2
    24     8    10    2
    25     8    11    1
    26    12    11    1
    27    11    13    1
    28    20    13    2
    29    20    18    1
    30    13    14    1
    31    19    18    1
    32    18    17    2
    33    14    16    1
    34    14    15    2
    35    17    15    1
