@<TRIPOS>MOLECULE
52953_out_ligand_01.pdbqt
 33 36 0 0 0
SMALL
GASTEIGER

@<TRIPOS>ATOM
      1  C         17.3650  -23.3080   -8.8240 C.2     1  UNL1        0.1020
      2  C         18.7650  -23.4000   -8.9450 C.2     1  UNL1        0.0440
      3  C         19.4440  -22.6930   -9.9430 C.2     1  UNL1        0.0340
      4  C         18.7240  -21.8880  -10.8280 C.2     1  UNL1        0.0190
      5  C         17.3370  -21.7860  -10.6970 C.2     1  UNL1        0.0260
      6  C         16.6450  -22.4910   -9.6970 C.2     1  UNL1        0.0570
      7 CL         14.9360  -22.2800   -9.6930 Cl      1  UNL1       -0.0830
      8  C         20.9160  -22.8730  -10.0640 C.2     1  UNL1        0.2560
      9  O         21.4260  -23.7890   -9.4330 O.2     1  UNL1       -0.2670
     10  N         21.5510  -21.9510  -10.8740 N.am    1  UNL1       -0.3230
     11  H         20.9950  -21.1810  -11.2240 H       1  UNL1        0.1690
     12  C         22.9230  -21.9050  -11.2020 C.2     1  UNL1        0.0370
     13  C         23.9360  -21.6170  -10.2830 C.2     1  UNL1        0.0320
     14  C         25.2760  -21.5900  -10.6870 C.2     1  UNL1        0.0420
     15  C         25.6100  -21.8490  -12.0120 C.2     1  UNL1        0.1020
     16  C         24.6090  -22.1680  -12.9300 C.2     1  UNL1        0.1040
     17  O         26.9390  -21.7830  -12.3410 O.2     1  UNL1       -0.3460
     18  C         23.2700  -22.1820  -12.5310 C.2     1  UNL1        0.0690
     19  O         24.8600  -22.4700  -14.2440 O.2     1  UNL1       -0.3460
     20  C         26.2490  -22.7530  -14.4570 C.3     1  UNL1        0.2020
     21  C         27.1210  -21.7210  -13.7600 C.3     1  UNL1        0.2020
     22  S         16.6350  -24.2750   -7.5230 S.O2    1  UNL1        0.2640
     23  O         15.5030  -24.9640   -8.1090 O.2     1  UNL1       -0.2000
     24  O         17.6400  -25.0190   -6.8010 O.2     1  UNL1       -0.2000
     25  N         15.9740  -23.1000   -6.5040 N.pl3   1  UNL1       -0.2810
     26  H         15.2920  -22.5120   -6.9820 H       1  UNL1        0.1790
     27  C         16.7960  -22.4980   -5.5120 C.2     1  UNL1        0.0430
     28  C         16.5490  -22.6980   -4.1560 C.2     1  UNL1        0.0300
     29  C         17.3960  -22.1310   -3.2050 C.2     1  UNL1        0.0030
     30  C         18.4920  -21.3670   -3.6090 C.2     1  UNL1        0.0070
     31  C         18.7550  -21.1700   -4.9710 C.2     1  UNL1       -0.0600
     32  C         19.9140  -20.3230   -5.4060 C.3     1  UNL1        0.0480
     33  C         17.8890  -21.7290   -5.9200 C.2     1  UNL1        0.0370
@<TRIPOS>BOND
     1    20    19    1
     2    20    21    1
     3    19    16    1
     4    21    17    1
     5    16    18    1
     6    16    15    2
     7    18    12    2
     8    17    15    1
     9    15    14    1
    10    11    10    1
    11    12    10    1
    12    12    13    1
    13    10     8   am
    14     4     5    2
    15     4     3    1
    16     5     6    1
    17    14    13    2
    18     8     3    1
    19     8     9    2
    20     3     2    2
    21     6     7    1
    22     6     1    2
    23     2     1    1
    24     1    22    1
    25    23    22    2
    26    22    24    2
    27    22    25    1
    28    26    25    1
    29    25    27    1
    30    33    27    2
    31    33    31    1
    32    27    28    1
    33    32    31    1
    34    31    30    2
    35    28    29    2
    36    30    29    1
