@<TRIPOS>MOLECULE
52950_out_ligand_01.pdbqt
 34 37 0 0 0
SMALL
GASTEIGER

@<TRIPOS>ATOM
      1  C         17.6710  -23.5810   -8.5200 C.2     1  UNL1        0.0810
      2  C         19.0560  -23.8110   -8.4520 C.2     1  UNL1        0.0420
      3  C         19.9130  -23.2570   -9.4080 C.2     1  UNL1        0.0330
      4  C         19.3840  -22.4780  -10.4400 C.2     1  UNL1        0.0170
      5  C         18.0070  -22.2390  -10.5020 C.2     1  UNL1        0.0090
      6  C         17.1280  -22.7870   -9.5510 C.2     1  UNL1       -0.0390
      7  C         15.6610  -22.4870   -9.6810 C.3     1  UNL1        0.0500
      8  C         21.3640  -23.5720   -9.3230 C.2     1  UNL1        0.2510
      9  O         21.7230  -24.6570   -8.8840 O.2     1  UNL1       -0.2680
     10  N         22.2300  -22.5910   -9.7480 N.am    1  UNL1       -0.3530
     11  H         21.8830  -21.6900  -10.0390 H       1  UNL1        0.1630
     12  C         23.6570  -22.8080   -9.8310 C.3     1  UNL1        0.1610
     13  C         24.2140  -22.1540  -11.0710 C.2     1  UNL1       -0.0380
     14  C         25.4520  -21.4700  -11.0320 C.2     1  UNL1        0.0120
     15  C         25.9680  -20.8460  -12.1750 C.2     1  UNL1        0.0400
     16  C         25.2270  -20.9220  -13.3360 C.2     1  UNL1        0.1050
     17  C         24.0220  -21.5840  -13.3840 C.2     1  UNL1        0.1050
     18  O         25.5730  -20.3850  -14.5340 O.2     1  UNL1       -0.3230
     19  C         23.4910  -22.2120  -12.2760 C.2     1  UNL1        0.0480
     20  O         23.4540  -21.5390  -14.6180 O.2     1  UNL1       -0.3230
     21  C         24.4390  -20.7710  -15.3410 C.3     1  UNL1        0.3520
     22  S         16.6520  -24.3310   -7.2510 S.O2    1  UNL1        0.2460
     23  O         15.5360  -24.9680   -7.9180 O.2     1  UNL1       -0.2060
     24  O         17.5120  -25.0710   -6.3540 O.2     1  UNL1       -0.2060
     25  N         16.0470  -22.9330   -6.4800 N.pl3   1  UNL1       -0.1810
     26  H         15.1360  -23.1690   -6.0800 H       1  UNL1        0.1460
     27  C         16.9160  -22.4010   -5.4640 C.2     1  UNL1        0.0290
     28  C         16.6860  -22.6730   -4.1090 C.2     1  UNL1       -0.0400
     29  C         17.5430  -22.1020   -3.1540 C.2     1  UNL1        0.0090
     30  C         15.5560  -23.5480   -3.6530 C.3     1  UNL1        0.0500
     31  C         18.6150  -21.2940   -3.5440 C.2     1  UNL1        0.0070
     32  C         18.8410  -21.0220   -4.8950 C.2     1  UNL1       -0.0600
     33  C         19.9960  -20.1580   -5.3080 C.3     1  UNL1        0.0480
     34  C         17.9860  -21.5810   -5.8520 C.2     1  UNL1        0.0310
@<TRIPOS>BOND
     1    21    20    1
     2    21    18    1
     3    20    17    1
     4    18    16    1
     5    17    16    2
     6    17    19    1
     7    16    15    1
     8    19    13    2
     9    15    14    2
    10    13    14    1
    11    13    12    1
    12     5     4    2
    13     5     6    1
    14     4     3    1
    15    11    10    1
    16    12    10    1
    17    10     8   am
    18     7     6    1
    19     6     1    2
    20     3     8    1
    21     3     2    2
    22     8     9    2
    23     1     2    1
    24     1    22    1
    25    23    22    2
    26    22    25    1
    27    22    24    2
    28    25    26    1
    29    25    27    1
    30    34    27    2
    31    34    32    1
    32    27    28    1
    33    33    32    1
    34    32    31    2
    35    28    30    1
    36    28    29    2
    37    31    29    1
