@<TRIPOS>MOLECULE
52967_out_ligand_01.pdbqt
 42 45 0 0 0
SMALL
GASTEIGER

@<TRIPOS>ATOM
      1  C         20.6890  -21.7320   -6.9620 C.2     1  UNL1        0.2560
      2  O         21.4020  -20.8960   -6.4190 O.2     1  UNL1       -0.2670
      3  N         21.0130  -22.5490   -8.0280 N.am    1  UNL1       -0.3230
      4  H         20.2780  -23.1340   -8.4050 H       1  UNL1        0.1690
      5  C         19.3060  -21.8950   -6.4380 C.2     1  UNL1        0.0340
      6  C         18.3590  -22.5290   -7.2500 C.2     1  UNL1        0.0440
      7  C         17.0210  -22.6600   -6.8270 C.2     1  UNL1        0.1020
      8  C         16.6370  -22.1650   -5.5810 C.2     1  UNL1        0.0570
      9  C         17.5950  -21.5270   -4.7750 C.2     1  UNL1        0.0260
     10 CL         15.0450  -22.2260   -4.9260 Cl      1  UNL1       -0.0830
     11  C         18.9200  -21.3860   -5.1970 C.2     1  UNL1        0.0190
     12  S         15.9250  -23.4770   -7.9650 S.O2    1  UNL1        0.2640
     13  O         15.5860  -24.7520   -7.3630 O.2     1  UNL1       -0.2000
     14  O         14.8790  -22.5860   -8.4090 O.2     1  UNL1       -0.2000
     15  N         16.9390  -23.8440   -9.2670 N.pl3   1  UNL1       -0.2810
     16  H         17.5810  -24.6060   -9.0530 H       1  UNL1        0.1790
     17  C         17.4020  -22.7930  -10.1050 C.2     1  UNL1        0.0430
     18  C         16.5930  -21.6940  -10.3850 C.2     1  UNL1        0.0300
     19  C         17.0900  -20.6470  -11.1620 C.2     1  UNL1        0.0030
     20  C         18.3940  -20.7010  -11.6590 C.2     1  UNL1        0.0070
     21  C         19.2090  -21.8100  -11.3940 C.2     1  UNL1       -0.0600
     22  C         20.6180  -21.8460  -11.9080 C.3     1  UNL1        0.0480
     23  C         18.7060  -22.8520  -10.6060 C.2     1  UNL1        0.0370
     24  C         22.2450  -22.6050   -8.7150 C.2     1  UNL1        0.0350
     25  C         22.8530  -21.5030   -9.3230 C.2     1  UNL1        0.0310
     26  C         24.0750  -21.6390   -9.9900 C.2     1  UNL1        0.0270
     27  C         24.7050  -22.8840  -10.0310 C.2     1  UNL1        0.0800
     28  C         24.1030  -23.9990   -9.4460 C.2     1  UNL1        0.0270
     29  C         22.8790  -23.8550   -8.7860 C.2     1  UNL1        0.0310
     30  S         26.2520  -23.0570  -10.8910 S.O2    1  UNL1        0.2630
     31  O         26.6640  -21.7430  -11.3380 O.2     1  UNL1       -0.2000
     32  O         27.1210  -23.8730  -10.0700 O.2     1  UNL1       -0.2000
     33  N         25.8450  -24.0090  -12.2250 N.pl3   1  UNL1       -0.2800
     34  H         25.4720  -24.9140  -11.9500 H       1  UNL1        0.1790
     35  C         25.3720  -23.4070  -13.4280 C.2     1  UNL1        0.0500
     36  C         24.4490  -22.3590  -13.3600 C.2     1  UNL1        0.0540
     37  C         23.9700  -21.7770  -14.5310 C.2     1  UNL1        0.0360
     38 CL         22.8270  -20.4950  -14.4450 Cl      1  UNL1       -0.0840
     39  C         24.4100  -22.2230  -15.7720 C.2     1  UNL1        0.0240
     40  C         25.3460  -23.2570  -15.8430 C.2     1  UNL1        0.0110
     41  C         25.8390  -23.8600  -14.6760 C.2     1  UNL1       -0.0350
     42  C         26.8570  -24.9610  -14.7960 C.3     1  UNL1        0.0500
@<TRIPOS>BOND
     1    40    39    2
     2    40    41    1
     3    39    37    1
     4    42    41    1
     5    41    35    2
     6    37    38    1
     7    37    36    2
     8    35    36    1
     9    35    33    1
    10    33    34    1
    11    33    30    1
    12    22    21    1
    13    20    21    2
    14    20    19    1
    15    21    23    1
    16    31    30    2
    17    19    18    2
    18    30    32    2
    19    30    27    1
    20    23    17    2
    21    18    17    1
    22    17    15    1
    23    27    26    2
    24    27    28    1
    25    26    25    1
    26    28    29    2
    27    25    24    2
    28    15    16    1
    29    15    12    1
    30    29    24    1
    31    24     3    1
    32    14    12    2
    33     4     3    1
    34     3     1   am
    35    12    13    2
    36    12     7    1
    37     6     7    1
    38     6     5    2
    39     1     5    1
    40     1     2    2
    41     7     8    2
    42     5    11    1
    43     8    10    1
    44     8     9    1
    45    11     9    2
