@<TRIPOS>MOLECULE
52969_out_ligand_01.pdbqt
 40 43 0 0 0
SMALL
GASTEIGER

@<TRIPOS>ATOM
      1  C         17.7390  -23.5540   -8.6810 C.2     1  UNL1        0.0860
      2  C         19.0850  -23.9580   -8.6360 C.2     1  UNL1        0.0420
      3  C         20.0180  -23.4160   -9.5230 C.2     1  UNL1        0.0330
      4  C         19.6030  -22.4800  -10.4730 C.2     1  UNL1        0.0170
      5  C         18.2670  -22.0760  -10.5180 C.2     1  UNL1        0.0090
      6  C         17.3120  -22.6030   -9.6270 C.2     1  UNL1       -0.0390
      7  C         15.8990  -22.1050   -9.7410 C.3     1  UNL1        0.0500
      8  C         21.4320  -23.8780   -9.4300 C.2     1  UNL1        0.2560
      9  O         21.6740  -24.8590   -8.7360 O.2     1  UNL1       -0.2670
     10  N         22.3400  -23.1130  -10.1330 N.am    1  UNL1       -0.3220
     11  H         21.9840  -22.2720  -10.5920 H       1  UNL1        0.1690
     12  C         23.7510  -23.2380  -10.1890 C.2     1  UNL1        0.0500
     13  C         24.4760  -23.9370   -9.2150 C.2     1  UNL1        0.0300
     14  C         25.8720  -24.0060   -9.2680 C.2     1  UNL1        0.0020
     15  C         26.5670  -23.3690  -10.2900 C.2     1  UNL1        0.0010
     16  C         25.8670  -22.6790  -11.2790 C.2     1  UNL1        0.0190
     17  C         24.4600  -22.6280  -11.2550 C.2     1  UNL1        0.0580
     18  C         23.7230  -21.9220  -12.3540 C.2     1  UNL1        0.2540
     19  O         22.4980  -21.9810  -12.4250 O.2     1  UNL1       -0.2680
     20  N         24.4820  -21.2670  -13.3000 N.am    1  UNL1       -0.3510
     21  H         25.4610  -21.5080  -13.3940 H       1  UNL1        0.1630
     22  C         23.8640  -20.7240  -14.4870 C.3     1  UNL1        0.1870
     23  C         24.3040  -21.5260  -15.6530 C.2     1  UNL1        0.0700
     24  C         24.6040  -22.8610  -15.8300 C.2     1  UNL1        0.0360
     25  C         24.9640  -23.0120  -17.1910 C.2     1  UNL1        0.0270
     26  C         24.8610  -21.7620  -17.7580 C.2     1  UNL1        0.1420
     27  O         24.4580  -20.8530  -16.8340 O.2     1  UNL1       -0.3250
     28  S         16.6580  -24.2850   -7.4590 S.O2    1  UNL1        0.2630
     29  O         15.4970  -24.7870   -8.1650 O.2     1  UNL1       -0.2000
     30  O         17.4080  -25.1660   -6.5910 O.2     1  UNL1       -0.2000
     31  N         16.1300  -22.9430   -6.6060 N.pl3   1  UNL1       -0.2800
     32  H         15.1210  -22.8160   -6.5810 H       1  UNL1        0.1790
     33  C         16.9280  -22.3610   -5.5890 C.2     1  UNL1        0.0490
     34  C         16.6370  -22.6100   -4.2400 C.2     1  UNL1       -0.0350
     35  C         17.4560  -22.0310   -3.2580 C.2     1  UNL1        0.0090
     36  C         15.4430  -23.4190   -3.8100 C.3     1  UNL1        0.0500
     37  C         18.5680  -21.2620   -3.6140 C.2     1  UNL1        0.0070
     38  C         18.8900  -21.0680   -4.9580 C.2     1  UNL1       -0.0600
     39  C         20.0640  -20.2220   -5.3500 C.3     1  UNL1        0.0480
     40  C         18.0620  -21.6220   -5.9420 C.2     1  UNL1        0.0370
@<TRIPOS>BOND
     1    26    25    2
     2    26    27    1
     3    25    24    1
     4    27    23    1
     5    24    23    2
     6    23    22    1
     7    22    20    1
     8    21    20    1
     9    20    18   am
    10    19    18    2
    11    18    17    1
    12    16    17    1
    13    16    15    2
    14    17    12    2
    15    11    10    1
    16     5     4    2
    17     5     6    1
    18     4     3    1
    19    15    14    1
    20    12    10    1
    21    12    13    1
    22    10     8   am
    23     7     6    1
    24     6     1    2
    25     3     8    1
    26     3     2    2
    27     8     9    2
    28    14    13    2
    29     1     2    1
    30     1    28    1
    31    29    28    2
    32    28    31    1
    33    28    30    2
    34    31    32    1
    35    31    33    1
    36    40    33    2
    37    40    38    1
    38    33    34    1
    39    39    38    1
    40    38    37    2
    41    34    36    1
    42    34    35    2
    43    37    35    1
