@<TRIPOS>MOLECULE
52970_out_ligand_01.pdbqt
 37 40 0 0 0
SMALL
GASTEIGER

@<TRIPOS>ATOM
      1  C         21.5590  -21.8220   -8.0890 C.2     1  UNL1        0.2560
      2  O         22.6490  -21.4230   -7.6990 O.2     1  UNL1       -0.2670
      3  N         21.2250  -22.2440   -9.3610 N.am    1  UNL1       -0.3230
      4  H         20.2460  -22.4320   -9.5380 H       1  UNL1        0.1690
      5  C         20.4380  -21.8290   -7.1120 C.2     1  UNL1        0.0330
      6  C         20.3760  -20.9260   -6.0500 C.2     1  UNL1        0.0170
      7  C         19.2890  -20.9600   -5.1710 C.2     1  UNL1        0.0090
      8  C         18.2360  -21.8790   -5.3410 C.2     1  UNL1       -0.0390
      9  C         17.1070  -21.8430   -4.3490 C.3     1  UNL1        0.0500
     10  C         18.3000  -22.7690   -6.4300 C.2     1  UNL1        0.0860
     11  C         19.4020  -22.7470   -7.3020 C.2     1  UNL1        0.0420
     12  S         17.0420  -23.9870   -6.8110 S.O2    1  UNL1        0.2630
     13  O         17.3970  -25.1850   -6.0770 O.2     1  UNL1       -0.2000
     14  O         15.7250  -23.4040   -6.6770 O.2     1  UNL1       -0.2000
     15  N         17.3350  -24.3290   -8.4420 N.pl3   1  UNL1       -0.2810
     16  H         18.0750  -25.0180   -8.5560 H       1  UNL1        0.1790
     17  C         17.2640  -23.2730   -9.3950 C.2     1  UNL1        0.0420
     18  C         16.2060  -22.3630   -9.3820 C.2     1  UNL1        0.0300
     19  C         16.1700  -21.3190  -10.3110 C.2     1  UNL1        0.0020
     20  C         17.1920  -21.1870  -11.2520 C.2     1  UNL1        0.0000
     21  C         18.2480  -22.0990  -11.2690 C.2     1  UNL1        0.0020
     22  C         18.2850  -23.1440  -10.3410 C.2     1  UNL1        0.0300
     23  C         22.0780  -22.3450  -10.4790 C.2     1  UNL1        0.0350
     24  C         23.1670  -23.2190  -10.5520 C.2     1  UNL1        0.0310
     25  C         23.9740  -23.2610  -11.6950 C.2     1  UNL1        0.0270
     26  C         23.6900  -22.4170  -12.7690 C.2     1  UNL1        0.0740
     27  C         22.5980  -21.5490  -12.7200 C.2     1  UNL1        0.0270
     28  C         21.7970  -21.5150  -11.5750 C.2     1  UNL1        0.0310
     29  S         24.6990  -22.4500  -14.2290 S.O2    1  UNL1        0.2430
     30  O         23.9010  -21.9070  -15.3080 O.2     1  UNL1       -0.2060
     31  O         25.3170  -23.7560  -14.3360 O.2     1  UNL1       -0.2060
     32  N         25.9360  -21.3260  -13.8580 N.3     1  UNL1       -0.2060
     33  C         25.5730  -19.8920  -14.0440 C.3     1  UNL1        0.1070
     34  C         26.6690  -18.9910  -13.4840 C.3     1  UNL1        0.0150
     35  C         26.8340  -19.1830  -11.9790 C.3     1  UNL1        0.0020
     36  C         26.3990  -20.5720  -11.5200 C.3     1  UNL1        0.0150
     37  C         26.6660  -21.6230  -12.5880 C.3     1  UNL1        0.1070
@<TRIPOS>BOND
     1    30    29    2
     2    31    29    2
     3    29    32    1
     4    29    26    1
     5    33    32    1
     6    33    34    1
     7    32    37    1
     8    34    35    1
     9    26    27    2
    10    26    25    1
    11    27    28    1
    12    37    36    1
    13    35    36    1
    14    25    24    2
    15    28    23    2
    16    21    20    2
    17    21    22    1
    18    20    19    1
    19    24    23    1
    20    23     3    1
    21    22    17    2
    22    19    18    2
    23     4     3    1
    24    17    18    1
    25    17    15    1
    26     3     1   am
    27    16    15    1
    28    15    12    1
    29     1     2    2
    30     1     5    1
    31    11     5    2
    32    11    10    1
    33     5     6    1
    34    12    14    2
    35    12    10    1
    36    12    13    2
    37    10     8    2
    38     6     7    2
    39     8     7    1
    40     8     9    1
