@<TRIPOS>MOLECULE
52984_out_ligand_01.pdbqt
 39 42 0 0 0
SMALL
GASTEIGER

@<TRIPOS>ATOM
      1  O         19.1490  -21.1930   -5.8000 O.2     1  UNL1       -0.2670
      2  C         18.7180  -22.2890   -6.1410 C.2     1  UNL1        0.2580
      3  N         19.3070  -23.2000   -6.9940 N.am    1  UNL1       -0.3230
      4  H         18.7310  -23.9770   -7.2950 H       1  UNL1        0.1690
      5  C         20.5320  -23.0500   -7.6750 C.2     1  UNL1        0.0350
      6  C         21.3290  -21.9050   -7.5980 C.2     1  UNL1        0.0310
      7  C         22.5010  -21.8030   -8.3530 C.2     1  UNL1        0.0270
      8  C         22.8710  -22.8510   -9.1980 C.2     1  UNL1        0.0750
      9  C         22.1190  -24.0250   -9.2420 C.2     1  UNL1        0.0270
     10  C         20.9500  -24.1180   -8.4830 C.2     1  UNL1        0.0310
     11  S         24.3070  -22.6870  -10.2340 S.O2    1  UNL1        0.2450
     12  O         24.6220  -21.2790  -10.3450 O.2     1  UNL1       -0.2060
     13  O         25.2910  -23.6400   -9.7660 O.2     1  UNL1       -0.2060
     14  N         23.7640  -23.2570  -11.7370 N.pl3   1  UNL1       -0.1800
     15  H         22.8120  -23.6190  -11.6590 H       1  UNL1        0.1460
     16  C         24.0140  -22.4440  -12.8940 C.2     1  UNL1        0.0440
     17  C         23.0600  -21.5090  -13.3030 C.2     1  UNL1        0.0260
     18  C         23.2610  -20.7700  -14.4700 C.2     1  UNL1        0.0020
     19  C         24.4150  -20.9620  -15.2320 C.2     1  UNL1        0.0020
     20  C         25.3770  -21.8850  -14.8240 C.2     1  UNL1        0.0260
     21  C         25.1810  -22.6200  -13.6530 C.2     1  UNL1        0.0560
     22 CL         26.3970  -23.7480  -13.1680 Cl      1  UNL1       -0.0820
     23  C         17.3720  -22.6780   -5.6550 C.2     1  UNL1        0.0540
     24  C         17.2190  -23.2890   -4.4040 C.2     1  UNL1        0.0190
     25  C         15.9460  -23.6520   -3.9620 C.2     1  UNL1        0.0010
     26  C         14.8290  -23.4040   -4.7620 C.2     1  UNL1        0.0020
     27  C         14.9780  -22.7880   -6.0070 C.2     1  UNL1        0.0250
     28  C         16.2460  -22.4080   -6.4520 C.2     1  UNL1        0.0380
     29  N         16.3760  -21.8520   -7.7690 N.pl3   1  UNL1       -0.1800
     30  H         17.2010  -21.2450   -7.8820 H       1  UNL1        0.1460
     31  S         16.3630  -22.9660   -9.0530 S.O2    1  UNL1        0.2450
     32  O         16.9870  -24.1790   -8.5670 O.2     1  UNL1       -0.2060
     33  O         15.0440  -22.9860   -9.6510 O.2     1  UNL1       -0.2060
     34  C         17.4970  -22.2240  -10.1990 C.2     1  UNL1        0.0740
     35  C         18.7440  -22.8110  -10.4300 C.2     1  UNL1        0.0250
     36  C         19.6260  -22.2120  -11.3290 C.2     1  UNL1        0.0020
     37  C         19.2620  -21.0350  -11.9870 C.2     1  UNL1        0.0000
     38  C         18.0180  -20.4480  -11.7460 C.2     1  UNL1        0.0020
     39  C         17.1300  -21.0390  -10.8470 C.2     1  UNL1        0.0250
@<TRIPOS>BOND
     1    19    20    2
     2    19    18    1
     3    20    21    1
     4    18    17    2
     5    21    22    1
     6    21    16    2
     7    17    16    1
     8    16    14    1
     9    37    38    2
    10    37    36    1
    11    38    39    1
    12    14    15    1
    13    14    11    1
    14    36    35    2
    15    39    34    2
    16    35    34    1
    17    12    11    2
    18    11    13    2
    19    11     8    1
    20    34    31    1
    21    33    31    2
    22     9     8    2
    23     9    10    1
    24     8     7    1
    25    31    32    2
    26    31    29    1
    27    10     5    2
    28     7     6    2
    29    30    29    1
    30    29    28    1
    31     5     6    1
    32     5     3    1
    33     4     3    1
    34     3     2   am
    35    28    27    1
    36    28    23    2
    37     2     1    2
    38     2    23    1
    39    27    26    2
    40    23    24    1
    41    26    25    1
    42    24    25    2
