@<TRIPOS>MOLECULE
52983_out_ligand_01.pdbqt
 45 48 0 0 0
SMALL
GASTEIGER

@<TRIPOS>ATOM
      1  C         21.8870  -22.4200  -10.5650 C.2     1  UNL1        0.2560
      2  O         20.8450  -22.2710  -11.1870 O.2     1  UNL1       -0.2670
      3  N         22.0320  -22.5130   -9.1910 N.am    1  UNL1       -0.3230
      4  H         22.9750  -22.6080   -8.8330 H       1  UNL1        0.1690
      5  C         21.0050  -22.6540   -8.2320 C.2     1  UNL1        0.0350
      6  C         20.6820  -21.6780   -7.2830 C.2     1  UNL1        0.0310
      7  C         19.5930  -21.8580   -6.4220 C.2     1  UNL1        0.0270
      8  C         18.8270  -23.0210   -6.5090 C.2     1  UNL1        0.0800
      9  C         19.1610  -24.0230   -7.4210 C.2     1  UNL1        0.0270
     10  C         20.2430  -23.8310   -8.2840 C.2     1  UNL1        0.0310
     11  S         17.4130  -23.2410   -5.4540 S.O2    1  UNL1        0.2630
     12  O         17.1700  -24.6640   -5.3540 O.2     1  UNL1       -0.2000
     13  O         17.5850  -22.4220   -4.2730 O.2     1  UNL1       -0.2000
     14  N         16.1460  -22.6160   -6.3810 N.pl3   1  UNL1       -0.2810
     15  H         15.2740  -22.5720   -5.8580 H       1  UNL1        0.1790
     16  C         16.0900  -22.8570   -7.7800 C.2     1  UNL1        0.0430
     17  C         15.4270  -23.9610   -8.3070 C.2     1  UNL1        0.0300
     18  C         15.4020  -24.1660   -9.6870 C.2     1  UNL1        0.0030
     19  C         16.0420  -23.2670  -10.5410 C.2     1  UNL1        0.0160
     20  C         16.7120  -22.1490  -10.0240 C.2     1  UNL1        0.0500
     21  C         16.7390  -21.9590   -8.6320 C.2     1  UNL1        0.0460
     22  C         17.4310  -21.1860  -10.9330 C.3     1  UNL1        0.4170
     23  F         17.7170  -21.7370  -12.1430 F       1  UNL1       -0.1660
     24  F         16.7210  -20.0530  -11.1930 F       1  UNL1       -0.1660
     25  F         18.6240  -20.7710  -10.4250 F       1  UNL1       -0.1660
     26  C         23.1500  -22.6030  -11.3320 C.2     1  UNL1        0.0330
     27  C         23.3110  -22.1270  -12.6360 C.2     1  UNL1        0.0420
     28  C         24.5650  -22.2140  -13.2640 C.2     1  UNL1        0.0860
     29  C         25.6690  -22.7730  -12.5910 C.2     1  UNL1       -0.0390
     30  C         25.4640  -23.3090  -11.3080 C.2     1  UNL1        0.0090
     31  C         27.0500  -22.8650  -13.1710 C.3     1  UNL1        0.0500
     32  C         24.2180  -23.2310  -10.6890 C.2     1  UNL1        0.0170
     33  S         24.6770  -21.5720  -14.9270 S.O2    1  UNL1        0.2630
     34  O         24.7110  -22.6930  -15.8410 O.2     1  UNL1       -0.2000
     35  O         23.6460  -20.5610  -15.0390 O.2     1  UNL1       -0.2000
     36  N         26.1460  -20.7660  -14.9960 N.pl3   1  UNL1       -0.2810
     37  H         26.6860  -20.9040  -14.1430 H       1  UNL1        0.1790
     38  C         26.3280  -19.5440  -15.7050 C.2     1  UNL1        0.0430
     39  C         26.0470  -19.5450  -17.0710 C.2     1  UNL1        0.0300
     40  C         26.1460  -18.3670  -17.8170 C.2     1  UNL1        0.0090
     41  C         26.5100  -17.1600  -17.2050 C.2     1  UNL1       -0.0560
     42  C         26.6030  -15.9130  -18.0400 C.3     1  UNL1        0.0490
     43  C         26.7430  -17.1400  -15.8160 C.2     1  UNL1       -0.0540
     44  C         26.6560  -18.3390  -15.0840 C.2     1  UNL1        0.0370
     45  C         27.1180  -15.8710  -15.0960 C.3     1  UNL1        0.0490
@<TRIPOS>BOND
     1    42    41    1
     2    40    41    2
     3    40    39    1
     4    41    43    1
     5    39    38    2
     6    34    33    2
     7    43    45    1
     8    43    44    2
     9    38    44    1
    10    38    36    1
    11    35    33    2
    12    36    33    1
    13    36    37    1
    14    33    28    1
    15    28    27    1
    16    28    29    2
    17    31    29    1
    18    27    26    2
    19    29    30    1
    20    23    22    1
    21    26    32    1
    22    26     1    1
    23    30    32    2
    24    24    22    1
    25     2     1    2
    26    22    25    1
    27    22    20    1
    28     1     3   am
    29    19    20    2
    30    19    18    1
    31    20    21    1
    32    18    17    2
    33     3     4    1
    34     3     5    1
    35    21    16    2
    36    17    16    1
    37    10     5    2
    38    10     9    1
    39     5     6    1
    40    16    14    1
    41     9     8    2
    42     6     7    2
    43     8     7    1
    44     8    11    1
    45    14    15    1
    46    14    11    1
    47    11    12    2
    48    11    13    2
