@<TRIPOS>MOLECULE
52980_out_ligand_01.pdbqt
 42 45 0 0 0
SMALL
GASTEIGER

@<TRIPOS>ATOM
      1  C         22.5650  -22.8000   -9.4150 C.2     1  UNL1        0.2560
      2  O         23.3010  -23.7490   -9.1790 O.2     1  UNL1       -0.2670
      3  N         22.4850  -22.0820  -10.5960 N.am    1  UNL1       -0.3230
      4  H         21.9070  -21.2520  -10.5970 H       1  UNL1        0.1690
      5  C         21.6730  -22.3160   -8.3210 C.2     1  UNL1        0.0330
      6  C         20.4170  -22.8800   -8.0800 C.2     1  UNL1        0.0420
      7  C         19.6090  -22.3850   -7.0420 C.2     1  UNL1        0.0810
      8  C         20.0520  -21.3240   -6.2260 C.2     1  UNL1       -0.0390
      9  C         21.3280  -20.7890   -6.4690 C.2     1  UNL1        0.0090
     10  C         19.2310  -20.7360   -5.1100 C.3     1  UNL1        0.0500
     11  C         22.1310  -21.2810   -7.5000 C.2     1  UNL1        0.0170
     12  S         17.9980  -23.1350   -6.8220 S.O2    1  UNL1        0.2460
     13  O         17.0320  -22.0600   -6.7130 O.2     1  UNL1       -0.2060
     14  O         18.1260  -24.1420   -5.7940 O.2     1  UNL1       -0.2060
     15  N         17.7490  -23.8460   -8.3500 N.pl3   1  UNL1       -0.1810
     16  H         18.5760  -24.4040   -8.5690 H       1  UNL1        0.1460
     17  C         17.4880  -22.8970   -9.3960 C.2     1  UNL1        0.0230
     18  C         16.1840  -22.4540   -9.6120 C.2     1  UNL1        0.0240
     19  C         15.9280  -21.5090  -10.6040 C.2     1  UNL1        0.0020
     20  C         16.9770  -20.9980  -11.3710 C.2     1  UNL1        0.0070
     21  C         18.2950  -21.4140  -11.1380 C.2     1  UNL1       -0.0600
     22  C         19.4140  -20.8670  -11.9730 C.3     1  UNL1        0.0480
     23  C         18.5440  -22.3730  -10.1450 C.2     1  UNL1        0.0310
     24  C         23.1960  -22.3220  -11.7910 C.2     1  UNL1        0.0350
     25  C         22.8470  -21.5470  -12.9060 C.2     1  UNL1        0.0310
     26  C         23.5060  -21.7120  -14.1280 C.2     1  UNL1        0.0270
     27  C         24.5320  -22.6530  -14.2330 C.2     1  UNL1        0.0800
     28  C         24.8690  -23.4530  -13.1420 C.2     1  UNL1        0.0270
     29  C         24.2050  -23.2810  -11.9230 C.2     1  UNL1        0.0310
     30  S         25.3720  -22.8700  -15.7870 S.O2    1  UNL1        0.2630
     31  O         25.5200  -24.2900  -16.0230 O.2     1  UNL1       -0.2000
     32  O         24.7100  -22.0200  -16.7560 O.2     1  UNL1       -0.2000
     33  N         26.8830  -22.1690  -15.5180 N.pl3   1  UNL1       -0.2800
     34  H         27.5800  -22.4830  -16.1880 H       1  UNL1        0.1790
     35  C         26.9740  -20.8380  -15.0180 C.2     1  UNL1        0.0490
     36  C         26.9500  -20.6210  -13.6360 C.2     1  UNL1        0.0370
     37  C         27.0130  -19.3250  -13.1120 C.2     1  UNL1       -0.0600
     38  C         26.9490  -19.0950  -11.6300 C.3     1  UNL1        0.0480
     39  C         27.0840  -18.2420  -13.9910 C.2     1  UNL1        0.0070
     40  C         27.1210  -18.4540  -15.3720 C.2     1  UNL1        0.0090
     41  C         27.0680  -19.7510  -15.9030 C.2     1  UNL1       -0.0350
     42  C         27.1210  -19.9310  -17.3930 C.3     1  UNL1        0.0500
@<TRIPOS>BOND
     1    42    41    1
     2    32    30    2
     3    34    33    1
     4    31    30    2
     5    41    40    1
     6    41    35    2
     7    30    33    1
     8    30    27    1
     9    33    35    1
    10    40    39    2
    11    35    36    1
    12    27    26    2
    13    27    28    1
    14    26    25    1
    15    39    37    1
    16    36    37    2
    17    28    29    2
    18    37    38    1
    19    25    24    2
    20    22    21    1
    21    29    24    1
    22    24     3    1
    23    20    21    2
    24    20    19    1
    25    21    23    1
    26    19    18    2
    27     4     3    1
    28     3     1   am
    29    23    17    2
    30    18    17    1
    31     1     2    2
    32     1     5    1
    33    17    15    1
    34    16    15    1
    35    15    12    1
    36     5     6    2
    37     5    11    1
    38     6     7    1
    39    11     9    2
    40     7    12    1
    41     7     8    2
    42    12    13    2
    43    12    14    2
    44     9     8    1
    45     8    10    1
