@<TRIPOS>MOLECULE
52990_out_ligand_01.pdbqt
 41 44 0 0 0
SMALL
GASTEIGER

@<TRIPOS>ATOM
      1  C         22.4850  -22.5570   -9.1980 C.2     1  UNL1        0.2560
      2  O         23.4180  -23.2920   -8.8990 O.2     1  UNL1       -0.2670
      3  N         22.2100  -22.0280  -10.4470 N.am    1  UNL1       -0.3230
      4  H         21.4750  -21.3360  -10.5000 H       1  UNL1        0.1690
      5  C         22.9200  -22.2590  -11.6430 C.2     1  UNL1        0.0350
      6  C         23.9330  -23.2140  -11.7760 C.2     1  UNL1        0.0310
      7  C         24.6060  -23.3750  -12.9910 C.2     1  UNL1        0.0270
      8  C         24.2720  -22.5650  -14.0780 C.2     1  UNL1        0.0800
      9  C         23.2420  -21.6290  -13.9730 C.2     1  UNL1        0.0270
     10  C         22.5720  -21.4790  -12.7550 C.2     1  UNL1        0.0310
     11  S         25.1500  -22.7380  -15.6140 S.O2    1  UNL1        0.2630
     12  O         24.5910  -21.7810  -16.5450 O.2     1  UNL1       -0.2000
     13  O         25.2330  -24.1450  -15.9370 O.2     1  UNL1       -0.2000
     14  N         26.6930  -22.1620  -15.2270 N.pl3   1  UNL1       -0.2810
     15  H         27.4110  -22.5790  -15.8170 H       1  UNL1        0.1790
     16  C         26.8560  -20.8130  -14.8050 C.2     1  UNL1        0.0450
     17  C         26.9260  -19.8120  -15.7760 C.2     1  UNL1        0.0540
     18  C         27.0470  -18.4790  -15.3820 C.2     1  UNL1        0.0370
     19 CL         27.1210  -17.2460  -16.5820 Cl      1  UNL1       -0.0840
     20  C         27.1040  -18.1370  -14.0340 C.2     1  UNL1        0.0480
     21  C         27.0410  -19.1460  -13.0750 C.2     1  UNL1        0.0370
     22 CL         27.1160  -18.7350  -11.4060 Cl      1  UNL1       -0.0840
     23  C         26.9190  -20.4820  -13.4530 C.2     1  UNL1        0.0540
     24  C         21.5590  -22.1200   -8.1150 C.2     1  UNL1        0.0330
     25  C         21.9160  -21.1260   -7.2000 C.2     1  UNL1        0.0170
     26  C         21.0250  -20.7540   -6.1890 C.2     1  UNL1        0.0090
     27  C         19.7640  -21.3650   -6.0700 C.2     1  UNL1       -0.0390
     28  C         18.8540  -20.9060   -4.9630 C.3     1  UNL1        0.0500
     29  C         19.4030  -22.3430   -7.0180 C.2     1  UNL1        0.0810
     30  C         20.2950  -22.7110   -8.0390 C.2     1  UNL1        0.0420
     31  S         17.8110  -23.1530   -6.9940 S.O2    1  UNL1        0.2460
     32  O         16.7750  -22.1570   -6.8240 O.2     1  UNL1       -0.2060
     33  O         17.8960  -24.2800   -6.0890 O.2     1  UNL1       -0.2060
     34  N         17.7020  -23.8000   -8.5560 N.pl3   1  UNL1       -0.1810
     35  H         17.0170  -24.5560   -8.5720 H       1  UNL1        0.1460
     36  C         17.6710  -22.8850   -9.6440 C.2     1  UNL1        0.0220
     37  C         16.6150  -21.9840   -9.7720 C.2     1  UNL1        0.0240
     38  C         16.6150  -21.0620  -10.8190 C.2     1  UNL1        0.0020
     39  C         17.6710  -21.0390  -11.7300 C.2     1  UNL1        0.0000
     40  C         18.7290  -21.9380  -11.5970 C.2     1  UNL1        0.0020
     41  C         18.7320  -22.8600  -10.5500 C.2     1  UNL1        0.0240
@<TRIPOS>BOND
     1    19    18    1
     2    12    11    2
     3    13    11    2
     4    15    14    1
     5    17    18    1
     6    17    16    2
     7    11    14    1
     8    11     8    1
     9    18    20    2
    10    14    16    1
    11    16    23    1
    12     8     9    2
    13     8     7    1
    14    20    21    1
    15     9    10    1
    16    23    21    2
    17    21    22    1
    18     7     6    2
    19    10     5    2
    20     6     5    1
    21    39    40    2
    22    39    38    1
    23     5     3    1
    24    40    41    1
    25    38    37    2
    26    41    36    2
    27     4     3    1
    28     3     1   am
    29    37    36    1
    30    36    34    1
    31     1     2    2
    32     1    24    1
    33    35    34    1
    34    34    31    1
    35    24    30    2
    36    24    25    1
    37    30    29    1
    38    25    26    2
    39    29    31    1
    40    29    27    2
    41    31    32    2
    42    31    33    2
    43    26    27    1
    44    27    28    1
