@<TRIPOS>MOLECULE
52999_out_ligand_01.pdbqt
 32 34 0 0 0
SMALL
GASTEIGER

@<TRIPOS>ATOM
      1  C         16.6740  -20.9060  -11.0510 C.3     1  UNL1        0.0500
      2  C         18.0700  -21.4500  -10.9240 C.2     1  UNL1       -0.0390
      3  C         19.0680  -20.9020  -11.7490 C.2     1  UNL1        0.0090
      4  C         20.3900  -21.3520  -11.6830 C.2     1  UNL1        0.0170
      5  C         20.7450  -22.3510  -10.7720 C.2     1  UNL1        0.0330
      6  C         19.7670  -22.9080   -9.9440 C.2     1  UNL1        0.0420
      7  C         18.4360  -22.4640  -10.0170 C.2     1  UNL1        0.0860
      8  S         17.2660  -23.2190   -8.8870 S.O2    1  UNL1        0.2630
      9  O         16.1220  -23.6580   -9.6570 O.2     1  UNL1       -0.2000
     10  O         17.9800  -24.1600   -8.0510 O.2     1  UNL1       -0.2000
     11  N         16.8120  -21.9420   -7.8850 N.pl3   1  UNL1       -0.2800
     12  H         16.2360  -21.2500   -8.3540 H       1  UNL1        0.1790
     13  C         16.6460  -22.1590   -6.4850 C.2     1  UNL1        0.0490
     14  C         15.3990  -22.5900   -6.0220 C.2     1  UNL1        0.0310
     15  C         15.1660  -22.7440   -4.6600 C.2     1  UNL1        0.0030
     16  C         16.1790  -22.4610   -3.7490 C.2     1  UNL1        0.0070
     17  C         17.4420  -22.0300   -4.1890 C.2     1  UNL1       -0.0540
     18  C         18.4940  -21.7330   -3.1530 C.3     1  UNL1        0.0490
     19  C         17.6960  -21.9030   -5.5770 C.2     1  UNL1       -0.0290
     20  C         19.0500  -21.4300   -6.0430 C.3     1  UNL1        0.0510
     21  C         22.1420  -22.8640  -10.6810 C.2     1  UNL1        0.2560
     22  O         22.4310  -23.6080   -9.7550 O.2     1  UNL1       -0.2670
     23  N         23.0010  -22.3630  -11.6380 N.am    1  UNL1       -0.3180
     24  H         22.7120  -21.5200  -12.1230 H       1  UNL1        0.1690
     25  C         24.3580  -22.7200  -11.8300 C.2     1  UNL1        0.1130
     26  C         24.8410  -23.6360  -12.7670 C.2     1  UNL1        0.1460
     27  F         24.0380  -24.2190  -13.6670 F       1  UNL1       -0.2040
     28  C         26.2070  -23.9200  -12.8600 C.2     1  UNL1        0.0450
     29  C         27.1200  -23.2770  -12.0260 C.2     1  UNL1        0.0060
     30  C         26.6630  -22.3350  -11.1080 C.2     1  UNL1        0.0450
     31  C         25.2980  -22.0630  -11.0250 C.2     1  UNL1        0.1460
     32  F         24.8780  -21.1480  -10.1370 F       1  UNL1       -0.2040
@<TRIPOS>BOND
     1    27    26    1
     2    28    26    1
     3    28    29    2
     4    26    25    2
     5    24    23    1
     6    29    30    1
     7    25    23    1
     8    25    31    1
     9     3     4    1
    10     3     2    2
    11     4     5    2
    12    23    21   am
    13    30    31    2
    14     1     2    1
    15    31    32    1
    16     2     7    1
    17     5    21    1
    18     5     6    1
    19    21    22    2
    20     7     6    2
    21     7     8    1
    22     9     8    2
    23     8    10    2
    24     8    11    1
    25    12    11    1
    26    11    13    1
    27    13    14    2
    28    13    19    1
    29    20    19    1
    30    14    15    1
    31    19    17    2
    32    15    16    2
    33    17    16    1
    34    17    18    1
