@<TRIPOS>MOLECULE
52996_out_ligand_01.pdbqt
 39 44 0 0 0
SMALL
GASTEIGER

@<TRIPOS>ATOM
      1  C         22.1070  -22.0680  -11.2830 C.2     1  UNL1        0.2560
      2  O         21.3640  -21.2610  -11.8290 O.2     1  UNL1       -0.2670
      3  N         21.9370  -22.6820  -10.0570 N.am    1  UNL1       -0.3230
      4  H         22.7080  -23.2400   -9.7130 H       1  UNL1        0.1690
      5  C         23.3820  -22.4060  -11.9650 C.2     1  UNL1        0.0330
      6  C         23.5230  -22.0660  -13.3100 C.2     1  UNL1        0.0420
      7  C         24.7260  -22.3320  -13.9870 C.2     1  UNL1        0.0860
      8  C         25.7940  -22.9610  -13.3180 C.2     1  UNL1       -0.0390
      9  C         25.6170  -23.3180  -11.9660 C.2     1  UNL1        0.0090
     10  C         27.1210  -23.2620  -13.9580 C.3     1  UNL1        0.0500
     11  C         24.4240  -23.0440  -11.2910 C.2     1  UNL1        0.0170
     12  S         24.8280  -21.7400  -15.6700 S.O2    1  UNL1        0.2630
     13  O         23.7900  -20.7650  -15.9150 O.2     1  UNL1       -0.2000
     14  O         24.9250  -22.9100  -16.5200 O.2     1  UNL1       -0.2000
     15  N         26.3580  -21.0290  -15.7210 N.pl3   1  UNL1       -0.2800
     16  H         26.9990  -21.6140  -16.2540 H       1  UNL1        0.1790
     17  C         26.4610  -19.6250  -15.9410 C.2     1  UNL1        0.0480
     18  C         26.4520  -19.1360  -17.2520 C.2     1  UNL1        0.0300
     19  C         26.5910  -17.7700  -17.4950 C.2     1  UNL1        0.0020
     20  C         26.7640  -16.8910  -16.4280 C.2     1  UNL1        0.0010
     21  C         26.8090  -17.3790  -15.1190 C.2     1  UNL1        0.0090
     22  C         26.6720  -18.7530  -14.8610 C.2     1  UNL1       -0.0350
     23  C         26.7710  -19.2520  -13.4460 C.3     1  UNL1        0.0500
     24  C         20.8620  -22.5090   -9.1600 C.2     1  UNL1        0.0350
     25  C         21.0120  -22.1810   -7.8150 C.2     1  UNL1        0.0300
     26  C         19.8880  -22.0370   -6.9890 C.2     1  UNL1        0.0100
     27  C         18.5820  -22.2370   -7.4740 C.2     1  UNL1       -0.0530
     28  C         18.4470  -22.5320   -8.8360 C.2     1  UNL1        0.0100
     29  C         19.5690  -22.6710   -9.6650 C.2     1  UNL1        0.0300
     30  C         17.3930  -22.0380   -6.5320 C.3     1  UNL1        0.0270
     31  C         15.9840  -22.4460   -7.0690 C.3     1  UNL1       -0.0050
     32  C         15.8320  -23.9810   -7.1350 C.3     1  UNL1        0.0100
     33  C         14.9090  -21.8970   -6.1040 C.3     1  UNL1        0.0100
     34  C         16.0260  -24.5960   -5.7420 C.3     1  UNL1       -0.0130
     35  C         14.9590  -24.0310   -4.7900 C.3     1  UNL1        0.0090
     36  C         17.4260  -24.2290   -5.2210 C.3     1  UNL1        0.0100
     37  C         15.0910  -22.5010   -4.7030 C.3     1  UNL1       -0.0130
     38  C         16.4910  -22.1480   -4.1760 C.3     1  UNL1        0.0100
     39  C         17.5760  -22.6980   -5.1270 C.3     1  UNL1       -0.0050
@<TRIPOS>BOND
     1    19    18    1
     2    19    20    2
     3    18    17    2
     4    14    12    2
     5    20    21    1
     6    16    15    1
     7    17    15    1
     8    17    22    1
     9    13    12    2
    10    15    12    1
    11    12     7    1
    12    21    22    2
    13    22    23    1
    14     7     8    2
    15     7     6    1
    16    10     8    1
    17     8     9    1
    18     6     5    2
    19     9    11    2
    20     5    11    1
    21     5     1    1
    22     2     1    2
    23     1     3   am
    24     3     4    1
    25     3    24    1
    26    29    24    2
    27    29    28    1
    28    24    25    1
    29    28    27    2
    30    25    26    2
    31    27    26    1
    32    27    30    1
    33    32    31    1
    34    32    34    1
    35    31    30    1
    36    31    33    1
    37    30    39    1
    38    33    37    1
    39    34    36    1
    40    34    35    1
    41    36    39    1
    42    39    38    1
    43    35    37    1
    44    37    38    1
