@<TRIPOS>MOLECULE
52995_out_ligand_01.pdbqt
 33 36 0 0 0
SMALL
GASTEIGER

@<TRIPOS>ATOM
      1  C         17.6550  -23.6180   -8.5880 C.2     1  UNL1        0.0860
      2  C         19.0340  -23.8800   -8.5150 C.2     1  UNL1        0.0420
      3  C         19.9070  -23.3280   -9.4560 C.2     1  UNL1        0.0330
      4  C         19.4030  -22.5110  -10.4710 C.2     1  UNL1        0.0170
      5  C         18.0300  -22.2600  -10.5500 C.2     1  UNL1        0.0090
      6  C         17.1350  -22.8010   -9.6110 C.2     1  UNL1       -0.0390
      7  C         15.6710  -22.4940   -9.7700 C.3     1  UNL1        0.0500
      8  C         21.3620  -23.6100   -9.3250 C.2     1  UNL1        0.2510
      9  O         21.7390  -24.6700   -8.8380 O.2     1  UNL1       -0.2680
     10  N         22.2130  -22.6380   -9.8050 N.am    1  UNL1       -0.3530
     11  H         21.8360  -21.9130  -10.4000 H       1  UNL1        0.1630
     12  C         23.6400  -22.8620   -9.8800 C.3     1  UNL1        0.1610
     13  C         24.2140  -22.2190  -11.1180 C.2     1  UNL1       -0.0380
     14  C         25.4770  -21.5830  -11.0770 C.2     1  UNL1        0.0120
     15  C         26.0080  -20.9630  -12.2120 C.2     1  UNL1        0.0400
     16  C         25.2550  -20.9880  -13.3670 C.2     1  UNL1        0.1050
     17  C         24.0240  -21.5960  -13.4160 C.2     1  UNL1        0.1050
     18  O         25.6100  -20.4350  -14.5570 O.2     1  UNL1       -0.3230
     19  C         23.4750  -22.2150  -12.3130 C.2     1  UNL1        0.0480
     20  O         23.4490  -21.5030  -14.6440 O.2     1  UNL1       -0.3230
     21  C         24.4580  -20.7650  -15.3620 C.3     1  UNL1        0.3520
     22  S         16.6140  -24.3790   -7.3440 S.O2    1  UNL1        0.2630
     23  O         17.4420  -25.2310   -6.5180 O.2     1  UNL1       -0.2000
     24  O         15.4430  -24.9180   -8.0040 O.2     1  UNL1       -0.2000
     25  N         16.0820  -23.0670   -6.4250 N.pl3   1  UNL1       -0.2810
     26  H         15.4420  -22.4660   -6.9400 H       1  UNL1        0.1790
     27  C         16.9510  -22.4660   -5.4720 C.2     1  UNL1        0.0430
     28  C         16.6760  -22.6470   -4.1150 C.2     1  UNL1        0.0300
     29  C         17.4810  -22.0350   -3.1540 C.2     1  UNL1        0.0030
     30  C         18.5640  -21.2490   -3.5460 C.2     1  UNL1        0.0070
     31  C         18.8650  -21.0850   -4.9030 C.2     1  UNL1       -0.0600
     32  C         20.0040  -20.2070   -5.3310 C.3     1  UNL1        0.0480
     33  C         18.0490  -21.7000   -5.8630 C.2     1  UNL1        0.0370
@<TRIPOS>BOND
     1    21    20    1
     2    21    18    1
     3    20    17    1
     4    18    16    1
     5    17    16    2
     6    17    19    1
     7    16    15    1
     8    19    13    2
     9    15    14    2
    10    13    14    1
    11    13    12    1
    12     5     4    2
    13     5     6    1
    14     4     3    1
    15    11    10    1
    16    12    10    1
    17    10     8   am
    18     7     6    1
    19     6     1    2
    20     3     8    1
    21     3     2    2
    22     8     9    2
    23     1     2    1
    24     1    22    1
    25    24    22    2
    26    22    23    2
    27    22    25    1
    28    26    25    1
    29    25    27    1
    30    33    27    2
    31    33    31    1
    32    27    28    1
    33    32    31    1
    34    31    30    2
    35    28    29    2
    36    30    29    1
