@<TRIPOS>MOLECULE
52998_out_ligand_01.pdbqt
 38 41 0 0 0
SMALL
GASTEIGER

@<TRIPOS>ATOM
      1  O         19.5650  -21.0440   -6.1390 O.2     1  UNL1       -0.2670
      2  C         19.6290  -22.1600   -6.6400 C.2     1  UNL1        0.2560
      3  N         18.7500  -23.2040   -6.4420 N.am    1  UNL1       -0.3220
      4  H         18.8780  -24.0370   -7.0160 H       1  UNL1        0.1690
      5  C         20.7240  -22.4430   -7.6130 C.2     1  UNL1        0.0320
      6  C         21.7210  -21.5020   -7.9040 C.2     1  UNL1        0.0190
      7  C         22.7500  -21.8210   -8.7960 C.2     1  UNL1        0.0310
      8  C         22.7830  -23.0770   -9.4020 C.2     1  UNL1        0.0420
      9  C         21.7750  -24.0050   -9.1420 C.2     1  UNL1        0.0310
     10  C         20.7460  -23.6890   -8.2510 C.2     1  UNL1        0.0190
     11  N         23.8750  -23.4020  -10.2500 N.pl3   1  UNL1       -0.2810
     12  H         24.3370  -24.3000  -10.1150 H       1  UNL1        0.1790
     13  S         23.8030  -22.9740  -11.8860 S.O2    1  UNL1        0.2630
     14  O         22.4640  -22.4710  -12.1070 O.2     1  UNL1       -0.2000
     15  O         24.3440  -24.0500  -12.6910 O.2     1  UNL1       -0.2000
     16  C         24.9180  -21.5900  -11.9940 C.2     1  UNL1        0.0790
     17  C         25.1050  -20.9450  -13.2230 C.2     1  UNL1        0.0250
     18  C         25.9890  -19.8700  -13.3070 C.2     1  UNL1        0.0020
     19  C         26.6880  -19.4460  -12.1730 C.2     1  UNL1        0.0000
     20  C         26.5130  -20.1020  -10.9530 C.2     1  UNL1        0.0020
     21  C         25.6350  -21.1850  -10.8610 C.2     1  UNL1        0.0250
     22  C         17.6500  -23.2860   -5.5520 C.2     1  UNL1        0.0500
     23  C         17.7830  -23.0610   -4.1780 C.2     1  UNL1        0.0300
     24  C         16.6830  -23.1800   -3.3200 C.2     1  UNL1        0.0020
     25  C         15.4340  -23.5320   -3.8220 C.2     1  UNL1        0.0010
     26  C         15.2770  -23.7590   -5.1890 C.2     1  UNL1        0.0190
     27  C         16.3710  -23.6230   -6.0620 C.2     1  UNL1        0.0580
     28  C         16.1810  -23.8560   -7.5310 C.2     1  UNL1        0.2540
     29  O         16.3970  -24.9670   -8.0050 O.2     1  UNL1       -0.2680
     30  N         15.8070  -22.7690   -8.2910 N.am    1  UNL1       -0.3530
     31  H         15.8380  -21.8430   -7.8870 H       1  UNL1        0.1630
     32  C         15.7230  -22.8400   -9.7340 C.3     1  UNL1        0.1610
     33  C         16.9440  -22.2160  -10.3660 C.2     1  UNL1       -0.0410
     34  C         18.1590  -22.9250  -10.4150 C.2     1  UNL1        0.0090
     35  C         19.2940  -22.3450  -10.9910 C.2     1  UNL1        0.0010
     36  C         19.2280  -21.0530  -11.5220 C.2     1  UNL1        0.0000
     37  C         18.0310  -20.3310  -11.4600 C.2     1  UNL1        0.0010
     38  C         16.8940  -20.9080  -10.8830 C.2     1  UNL1        0.0090
@<TRIPOS>BOND
     1    18    17    1
     2    18    19    2
     3    17    16    2
     4    15    13    2
     5    19    20    1
     6    14    13    2
     7    16    13    1
     8    16    21    1
     9    13    11    1
    10    36    37    2
    11    36    35    1
    12    37    38    1
    13    35    34    2
    14    20    21    2
    15    38    33    2
    16    34    33    1
    17    33    32    1
    18    11    12    1
    19    11     8    1
    20    32    30    1
    21     8     9    2
    22     8     7    1
    23     9    10    1
    24     7     6    2
    25    30    31    1
    26    30    28   am
    27    10     5    2
    28    29    28    2
    29     6     5    1
    30     5     2    1
    31    28    27    1
    32     4     3    1
    33     2     3   am
    34     2     1    2
    35     3    22    1
    36    27    22    2
    37    27    26    1
    38    22    23    1
    39    26    25    2
    40    23    24    2
    41    25    24    1
