@<TRIPOS>MOLECULE
53009_out_ligand_01.pdbqt
 31 33 0 0 0
SMALL
GASTEIGER

@<TRIPOS>ATOM
      1  C         19.8400  -22.7550  -10.0690 C.2     1  UNL1        0.0330
      2  C         19.1650  -21.9890  -11.0230 C.2     1  UNL1        0.0170
      3  C         17.7760  -21.8390  -10.9590 C.2     1  UNL1        0.0090
      4  C         17.0270  -22.4370   -9.9300 C.2     1  UNL1       -0.0390
      5  C         15.5370  -22.2360   -9.9330 C.3     1  UNL1        0.0500
      6  C         17.7150  -23.1980   -8.9660 C.2     1  UNL1        0.0860
      7  C         19.1120  -23.3550   -9.0390 C.2     1  UNL1        0.0420
      8  C         21.3230  -22.8820  -10.1790 C.2     1  UNL1        0.2510
      9  N         21.9730  -21.9130  -10.9130 N.am    1  UNL1       -0.3530
     10  H         21.4830  -21.0670  -11.1670 H       1  UNL1        0.1630
     11  O         21.9000  -23.8030   -9.6110 O.2     1  UNL1       -0.2680
     12  C         23.4160  -21.8620  -10.9900 C.3     1  UNL1        0.1610
     13  C         23.8820  -22.2240  -12.3750 C.2     1  UNL1       -0.0410
     14  C         24.7230  -23.3290  -12.5680 C.2     1  UNL1        0.0090
     15  C         25.1820  -23.6570  -13.8460 C.2     1  UNL1        0.0070
     16  C         24.8230  -22.8760  -14.9500 C.2     1  UNL1       -0.0620
     17  C         25.2930  -23.2480  -16.3250 C.3     1  UNL1        0.0480
     18  C         23.9820  -21.7730  -14.7600 C.2     1  UNL1        0.0070
     19  C         23.5230  -21.4440  -13.4820 C.2     1  UNL1        0.0090
     20  S         16.8820  -24.0420   -7.6220 S.O2    1  UNL1        0.2630
     21  O         17.8840  -24.7870   -6.8870 O.2     1  UNL1       -0.2000
     22  O         15.7170  -24.7180   -8.1500 O.2     1  UNL1       -0.2000
     23  N         16.3090  -22.7770   -6.6660 N.pl3   1  UNL1       -0.2800
     24  H         15.7690  -22.0990   -7.1970 H       1  UNL1        0.1790
     25  C         17.0630  -22.3250   -5.5440 C.2     1  UNL1        0.0480
     26  C         18.1770  -21.5030   -5.7510 C.2     1  UNL1        0.0300
     27  C         18.9010  -21.0040   -4.6690 C.2     1  UNL1        0.0020
     28  C         18.5200  -21.3300   -3.3720 C.2     1  UNL1        0.0010
     29  C         17.4230  -22.1660   -3.1570 C.2     1  UNL1        0.0090
     30  C         16.6880  -22.6840   -4.2380 C.2     1  UNL1       -0.0350
     31  C         15.5070  -23.5670   -3.9490 C.3     1  UNL1        0.0500
@<TRIPOS>BOND
     1    17    16    1
     2    16    18    2
     3    16    15    1
     4    18    19    1
     5    15    14    2
     6    19    13    2
     7    14    13    1
     8    13    12    1
     9    10     9    1
    10     2     3    1
    11     2     1    2
    12    12     9    1
    13     3     4    2
    14     9     8   am
    15     8     1    1
    16     8    11    2
    17     1     7    1
    18     5     4    1
    19     4     6    1
    20     7     6    2
    21     6    20    1
    22    22    20    2
    23    20    21    2
    24    20    23    1
    25    24    23    1
    26    23    25    1
    27    26    25    2
    28    26    27    1
    29    25    30    1
    30    27    28    2
    31    30    31    1
    32    30    29    2
    33    28    29    1
