@<TRIPOS>MOLECULE
53008_out_ligand_01.pdbqt
 32 34 0 0 0
SMALL
GASTEIGER

@<TRIPOS>ATOM
      1  C         20.8010  -22.3130  -10.8540 C.2     1  UNL1        0.0330
      2  C         20.5420  -21.3080  -11.7900 C.2     1  UNL1        0.0170
      3  C         19.2510  -20.7870  -11.9150 C.2     1  UNL1        0.0090
      4  C         18.1940  -21.2680  -11.1220 C.2     1  UNL1       -0.0390
      5  C         16.8340  -20.6510  -11.3030 C.3     1  UNL1        0.0500
      6  C         18.4680  -22.2840  -10.1850 C.2     1  UNL1        0.0810
      7  C         19.7640  -22.8060  -10.0570 C.2     1  UNL1        0.0420
      8  S         17.2010  -22.9460   -9.1070 S.O2    1  UNL1        0.2460
      9  O         16.4330  -23.9070   -9.8660 O.2     1  UNL1       -0.2060
     10  O         16.5670  -21.8330   -8.4320 O.2     1  UNL1       -0.2060
     11  N         18.1670  -23.7330   -7.9410 N.pl3   1  UNL1       -0.1810
     12  H         19.1180  -23.7690   -8.3100 H       1  UNL1        0.1460
     13  C         18.1490  -23.0990   -6.6530 C.2     1  UNL1        0.0230
     14  C         17.5010  -23.7150   -5.5810 C.2     1  UNL1        0.0310
     15  C         17.5040  -23.1120   -4.3170 C.2     1  UNL1       -0.0600
     16  C         16.8320  -23.7790   -3.1540 C.3     1  UNL1        0.0480
     17  C         18.2000  -21.9080   -4.1370 C.2     1  UNL1        0.0130
     18  C         18.8820  -21.3050   -5.2020 C.2     1  UNL1       -0.0600
     19  C         19.6130  -20.0080   -5.0070 C.3     1  UNL1        0.0480
     20  C         18.8440  -21.9060   -6.4650 C.2     1  UNL1        0.0310
     21  C         22.1570  -22.9070  -10.7100 C.2     1  UNL1        0.2560
     22  N         23.0840  -22.4620  -11.6350 N.am    1  UNL1       -0.3230
     23  H         22.8050  -21.6900  -12.2280 H       1  UNL1        0.1690
     24  O         22.3450  -23.6930   -9.7900 O.2     1  UNL1       -0.2670
     25  C         24.4210  -22.8880  -11.7740 C.2     1  UNL1        0.0360
     26  C         25.2850  -22.6390  -10.7000 C.2     1  UNL1        0.0290
     27  C         26.6260  -23.0190  -10.7650 C.2     1  UNL1        0.0040
     28  C         27.1140  -23.6550  -11.9070 C.2     1  UNL1        0.0180
     29  C         26.2650  -23.9190  -12.9860 C.2     1  UNL1        0.0020
     30  C         24.9240  -23.5170  -12.9170 C.2     1  UNL1        0.0480
     31  S         26.9620  -24.7170  -14.4260 S.3     1  UNL1       -0.1340
     32  C         25.4730  -25.4160  -15.1920 C.3     1  UNL1        0.0950
@<TRIPOS>BOND
     1    32    31    1
     2    31    29    1
     3    29    30    1
     4    29    28    2
     5    30    25    2
     6    23    22    1
     7     3     2    1
     8     3     4    2
     9    28    27    1
    10     2     1    2
    11    25    22    1
    12    25    26    1
    13    22    21   am
    14     5     4    1
    15     4     6    1
    16     1    21    1
    17     1     7    1
    18    27    26    2
    19    21    24    2
    20     6     7    2
    21     6     8    1
    22     9     8    2
    23     8    10    2
    24     8    11    1
    25    12    11    1
    26    11    13    1
    27    13    20    2
    28    13    14    1
    29    20    18    1
    30    14    15    2
    31    18    19    1
    32    18    17    2
    33    15    17    1
    34    15    16    1
