@<TRIPOS>MOLECULE
53006_out_ligand_01.pdbqt
 35 37 0 0 0
SMALL
GASTEIGER

@<TRIPOS>ATOM
      1  C         20.4490  -22.5920  -10.2050 C.2     1  UNL1        0.0330
      2  C         21.0900  -23.4930   -9.3530 C.2     1  UNL1        0.0170
      3  C         20.3500  -24.1980   -8.3990 C.2     1  UNL1        0.0090
      4  C         18.9580  -24.0270   -8.2850 C.2     1  UNL1       -0.0390
      5  C         18.2350  -24.8190   -7.2300 C.3     1  UNL1        0.0500
      6  C         18.3270  -23.1000   -9.1390 C.2     1  UNL1        0.0860
      7  C         19.0750  -22.3740  -10.0800 C.2     1  UNL1        0.0420
      8  C         21.2010  -21.8340  -11.2420 C.2     1  UNL1        0.2560
      9  N         22.3530  -22.4590  -11.6830 N.am    1  UNL1       -0.3230
     10  H         22.5260  -23.3930  -11.3350 H       1  UNL1        0.1690
     11  O         20.7350  -20.7720  -11.6330 O.2     1  UNL1       -0.2670
     12  C         23.2670  -21.9850  -12.6450 C.2     1  UNL1        0.0350
     13  C         22.7510  -21.2090  -13.6890 C.2     1  UNL1        0.0320
     14  C         23.5940  -20.6970  -14.6820 C.2     1  UNL1        0.0320
     15  C         24.9690  -20.9540  -14.6550 C.2     1  UNL1        0.0340
     16  C         25.4810  -21.7310  -13.6180 C.2     1  UNL1        0.0320
     17  C         24.6350  -22.2430  -12.6200 C.2     1  UNL1        0.0320
     18  N         25.7500  -20.4000  -15.6890 N.am    1  UNL1       -0.3280
     19  C         25.4410  -20.3330  -17.0350 C.2     1  UNL1        0.2180
     20  C         26.5350  -19.6680  -17.8340 C.3     1  UNL1        0.1170
     21  O         24.4150  -20.7200  -17.5810 O.2     1  UNL1       -0.2740
     22  H         26.6300  -19.9880  -15.4050 H       1  UNL1        0.1690
     23  S         16.5650  -22.7780   -9.0820 S.O2    1  UNL1        0.2630
     24  O         15.8870  -24.0240   -8.7970 O.2     1  UNL1       -0.2000
     25  O         16.2010  -21.9970  -10.2450 O.2     1  UNL1       -0.2000
     26  N         16.4100  -21.7460   -7.7580 N.pl3   1  UNL1       -0.2800
     27  H         16.8820  -20.8570   -7.8940 H       1  UNL1        0.1790
     28  C         16.2590  -22.2680   -6.4380 C.2     1  UNL1        0.0490
     29  C         15.0680  -22.9180   -6.0990 C.2     1  UNL1        0.0310
     30  C         14.9040  -23.4780   -4.8370 C.2     1  UNL1        0.0030
     31  C         15.9280  -23.3860   -3.9000 C.2     1  UNL1        0.0070
     32  C         17.1310  -22.7270   -4.2090 C.2     1  UNL1       -0.0540
     33  C         18.2030  -22.6680   -3.1530 C.3     1  UNL1        0.0490
     34  C         17.2970  -22.1360   -5.4870 C.2     1  UNL1       -0.0290
     35  C         18.5830  -21.4310   -5.8400 C.3     1  UNL1        0.0510
@<TRIPOS>BOND
     1    20    19    1
     2    21    19    2
     3    19    18   am
     4    18    22    1
     5    18    15    1
     6    14    15    2
     7    14    13    1
     8    15    16    1
     9    13    12    2
    10    16    17    2
    11    12    17    1
    12    12     9    1
    13     9    10    1
    14     9     8   am
    15    11     8    2
    16     8     1    1
    17    25    23    2
    18     1     7    2
    19     1     2    1
    20     7     6    1
    21     2     3    2
    22     6    23    1
    23     6     4    2
    24    23    24    2
    25    23    26    1
    26     3     4    1
    27     4     5    1
    28    27    26    1
    29    26    28    1
    30    28    29    2
    31    28    34    1
    32    29    30    1
    33    35    34    1
    34    34    32    2
    35    30    31    2
    36    32    31    1
    37    32    33    1
