@<TRIPOS>MOLECULE
53002_out_ligand_01.pdbqt
 43 46 0 0 0
SMALL
GASTEIGER

@<TRIPOS>ATOM
      1  N         21.3360  -22.3520   -7.9120 N.am    1  UNL1       -0.3230
      2  C         21.0490  -21.4290   -6.9220 C.2     1  UNL1        0.2560
      3  O         21.7890  -20.5390   -6.5200 O.2     1  UNL1       -0.2670
      4  H         20.6790  -23.1080   -8.0450 H       1  UNL1        0.1690
      5  C         19.7100  -21.5740   -6.2750 C.2     1  UNL1        0.0330
      6  C         19.4200  -21.0170   -5.0270 C.2     1  UNL1        0.0170
      7  C         18.1580  -21.1990   -4.4550 C.2     1  UNL1        0.0090
      8  C         17.1570  -21.9440   -5.1050 C.2     1  UNL1       -0.0390
      9  C         15.8430  -22.1150   -4.3970 C.3     1  UNL1        0.0500
     10  C         17.4630  -22.5240   -6.3500 C.2     1  UNL1        0.0860
     11  C         18.7350  -22.3420   -6.9230 C.2     1  UNL1        0.0420
     12  S         16.3280  -23.5720   -7.2570 S.O2    1  UNL1        0.2630
     13  O         16.2550  -24.8350   -6.5500 O.2     1  UNL1       -0.2000
     14  O         15.1170  -22.8400   -7.5530 O.2     1  UNL1       -0.2000
     15  N         17.1810  -23.8940   -8.6610 N.pl3   1  UNL1       -0.2800
     16  H         17.1370  -24.8570   -8.9880 H       1  UNL1        0.1790
     17  C         17.5560  -22.8720   -9.5720 C.2     1  UNL1        0.0490
     18  C         16.6230  -21.8900   -9.9160 C.2     1  UNL1        0.0310
     19  C         16.9360  -20.9240  -10.8670 C.2     1  UNL1        0.0030
     20  C         18.1700  -20.9600  -11.5090 C.2     1  UNL1        0.0070
     21  C         19.1020  -21.9690  -11.2180 C.2     1  UNL1       -0.0540
     22  C         20.4140  -21.9720  -11.9580 C.3     1  UNL1        0.0490
     23  C         18.8010  -22.9360  -10.2280 C.2     1  UNL1       -0.0290
     24  C         19.7830  -24.0390   -9.9310 C.3     1  UNL1        0.0510
     25  C         22.4800  -22.3910   -8.7380 C.2     1  UNL1        0.0350
     26  C         23.2040  -23.5920   -8.7700 C.2     1  UNL1        0.0310
     27  C         24.3320  -23.7260   -9.5850 C.2     1  UNL1        0.0270
     28  C         24.7390  -22.6510  -10.3750 C.2     1  UNL1        0.0800
     29  C         24.0430  -21.4430  -10.3400 C.2     1  UNL1        0.0270
     30  C         22.9120  -21.3190   -9.5260 C.2     1  UNL1        0.0310
     31  S         26.1500  -22.8090  -11.4370 S.O2    1  UNL1        0.2630
     32  O         26.5070  -21.4770  -11.8760 O.2     1  UNL1       -0.2000
     33  O         27.1210  -23.6740  -10.8030 O.2     1  UNL1       -0.2000
     34  N         25.5060  -23.5950  -12.7910 N.pl3   1  UNL1       -0.2810
     35  H         24.7520  -24.2240  -12.5150 H       1  UNL1        0.1790
     36  C         25.3370  -22.8410  -13.9850 C.2     1  UNL1        0.0440
     37  C         24.3710  -21.8390  -14.0360 C.2     1  UNL1        0.0310
     38  C         24.2320  -21.0640  -15.1890 C.2     1  UNL1        0.0110
     39  C         25.0620  -21.2780  -16.3000 C.2     1  UNL1       -0.0400
     40  C         24.8960  -20.4200  -17.5230 C.3     1  UNL1        0.0500
     41  C         26.0410  -22.2820  -16.2240 C.2     1  UNL1        0.0420
     42  C         26.1780  -23.0600  -15.0720 C.2     1  UNL1        0.0540
     43 CL         27.1210  -22.5910  -17.5380 Cl      1  UNL1       -0.0840
@<TRIPOS>BOND
     1    43    41    1
     2    40    39    1
     3    39    41    2
     4    39    38    1
     5    41    42    1
     6    38    37    2
     7    42    36    2
     8    37    36    1
     9    36    34    1
    10    34    35    1
    11    34    31    1
    12    22    21    1
    13    32    31    2
    14    20    21    2
    15    20    19    1
    16    31    33    2
    17    31    28    1
    18    21    23    1
    19    19    18    2
    20    28    29    2
    21    28    27    1
    22    29    30    1
    23    23    24    1
    24    23    17    2
    25    18    17    1
    26    27    26    2
    27    17    15    1
    28    30    25    2
    29    16    15    1
    30    26    25    1
    31    25     1    1
    32    15    12    1
    33     4     1    1
    34     1     2   am
    35    14    12    2
    36    12    13    2
    37    12    10    1
    38    11    10    1
    39    11     5    2
    40     2     3    2
    41     2     5    1
    42    10     8    2
    43     5     6    1
    44     8     7    1
    45     8     9    1
    46     6     7    2
