@<TRIPOS>MOLECULE
53013_out_ligand_01.pdbqt
 30 32 0 0 0
SMALL
GASTEIGER

@<TRIPOS>ATOM
      1  C         18.5780  -22.5330   -9.9550 C.2     1  UNL1        0.0860
      2  C         19.8990  -23.0110   -9.8720 C.2     1  UNL1        0.0420
      3  C         20.8800  -22.5280  -10.7400 C.2     1  UNL1        0.0330
      4  C         20.5390  -21.5610  -11.6880 C.2     1  UNL1        0.0170
      5  C         19.2260  -21.0940  -11.7820 C.2     1  UNL1        0.0090
      6  C         18.2240  -21.5660  -10.9170 C.2     1  UNL1       -0.0390
      7  C         16.8330  -21.0210  -11.0850 C.3     1  UNL1        0.0500
      8  S         17.3910  -23.2370   -8.8120 S.O2    1  UNL1        0.2630
      9  O         18.0790  -24.2410   -8.0280 O.2     1  UNL1       -0.2000
     10  O         16.1930  -23.5830   -9.5450 O.2     1  UNL1       -0.2000
     11  N         16.9870  -21.9310   -7.8240 N.pl3   1  UNL1       -0.2800
     12  H         17.4130  -21.0600   -8.1290 H       1  UNL1        0.1790
     13  C         16.7510  -22.1290   -6.4320 C.2     1  UNL1        0.0480
     14  C         15.4890  -22.5550   -6.0040 C.2     1  UNL1        0.0300
     15  C         15.2430  -22.7990   -4.6530 C.2     1  UNL1        0.0020
     16  C         16.2580  -22.6150   -3.7220 C.2     1  UNL1        0.0010
     17  C         17.5140  -22.1740   -4.1380 C.2     1  UNL1        0.0090
     18  C         17.7750  -21.9130   -5.4950 C.2     1  UNL1       -0.0350
     19  C         19.1480  -21.4470   -5.8890 C.3     1  UNL1        0.0500
     20  C         22.2950  -22.9900  -10.6770 C.2     1  UNL1        0.2520
     21  O         22.6820  -23.6580   -9.7240 O.2     1  UNL1       -0.2680
     22  N         23.1180  -22.5990  -11.7100 N.am    1  UNL1       -0.3510
     23  H         22.8370  -21.8270  -12.3000 H       1  UNL1        0.1630
     24  C         24.5470  -22.8360  -11.6510 C.3     1  UNL1        0.1820
     25  C         25.3230  -21.5930  -12.0220 C.2     1  UNL1        0.0510
     26  C         25.9830  -20.8560  -11.0420 C.2     1  UNL1        0.0290
     27  C         26.6560  -19.6950  -11.4120 C.2     1  UNL1        0.0030
     28  C         26.6440  -19.2960  -12.7430 C.2     1  UNL1        0.0190
     29  C         25.9510  -20.0770  -13.6530 C.2     1  UNL1        0.1170
     30  N         25.2870  -21.2070  -13.3250 N.2     1  UNL1       -0.2640
@<TRIPOS>BOND
     1    29    30    1
     2    29    28    2
     3    30    25    2
     4    28    27    1
     5    23    22    1
     6    25    24    1
     7    25    26    1
     8     5     4    2
     9     5     6    1
    10    22    24    1
    11    22    20   am
    12     4     3    1
    13    27    26    2
    14     7     6    1
    15     6     1    2
    16     3    20    1
    17     3     2    2
    18    20    21    2
    19     1     2    1
    20     1     8    1
    21    10     8    2
    22     8     9    2
    23     8    11    1
    24    12    11    1
    25    11    13    1
    26    13    14    2
    27    13    18    1
    28    14    15    1
    29    19    18    1
    30    18    17    2
    31    15    16    2
    32    17    16    1
