@<TRIPOS>MOLECULE
53014_out_ligand_01.pdbqt
 36 38 0 0 0
SMALL
GASTEIGER

@<TRIPOS>ATOM
      1  C         17.5660  -23.2980   -8.9950 C.2     1  UNL1        0.1020
      2  C         18.9660  -23.3720   -9.1410 C.2     1  UNL1        0.0440
      3  C         19.6180  -22.6920  -10.1780 C.2     1  UNL1        0.0340
      4  C         18.8710  -21.8990  -11.0540 C.2     1  UNL1        0.0190
      5  C         17.4840  -21.8180  -10.9020 C.2     1  UNL1        0.0260
      6  C         16.8210  -22.5110   -9.8760 C.2     1  UNL1        0.0570
      7 CL         15.1110  -22.3080   -9.8360 Cl      1  UNL1       -0.0830
      8  C         21.1020  -22.8000  -10.2830 C.2     1  UNL1        0.2560
      9  O         21.6740  -23.5820   -9.5360 O.2     1  UNL1       -0.2670
     10  N         21.6830  -22.0400  -11.2810 N.am    1  UNL1       -0.3230
     11  H         21.0690  -21.6250  -11.9680 H       1  UNL1        0.1690
     12  C         23.0680  -21.9020  -11.5320 C.2     1  UNL1        0.0360
     13  C         23.9000  -21.6580  -10.4310 C.2     1  UNL1        0.0290
     14  C         25.2770  -21.4940  -10.6030 C.2     1  UNL1        0.0040
     15  C         25.8350  -21.5860  -11.8760 C.2     1  UNL1        0.0250
     16  C         25.0190  -21.8480  -12.9770 C.2     1  UNL1        0.0260
     17  C         23.6400  -22.0150  -12.8020 C.2     1  UNL1        0.0540
     18  N         25.6480  -21.9600  -14.2720 N.pl3   1  UNL1       -0.1810
     19  C         27.0790  -22.3600  -14.2260 C.3     1  UNL1        0.1350
     20  S         25.3570  -20.6580  -15.3510 S.O2    1  UNL1        0.2110
     21  C         26.8140  -20.7010  -16.3750 C.3     1  UNL1        0.1800
     22  O         25.4220  -19.4310  -14.5810 O.2     1  UNL1       -0.2110
     23  O         24.2040  -20.9540  -16.1740 O.2     1  UNL1       -0.2110
     24  S         16.8610  -24.1840   -7.6240 S.O2    1  UNL1        0.2650
     25  O         15.6840  -24.8680   -8.1260 O.2     1  UNL1       -0.2000
     26  O         17.8810  -24.9330   -6.9260 O.2     1  UNL1       -0.2000
     27  N         16.2560  -22.9670   -6.6400 N.pl3   1  UNL1       -0.2800
     28  H         15.4920  -22.4400   -7.0500 H       1  UNL1        0.1790
     29  C         17.0220  -22.3930   -5.5900 C.2     1  UNL1        0.0490
     30  C         16.7010  -22.6580   -4.2480 C.2     1  UNL1       -0.0350
     31  C         17.4760  -22.0580   -3.2400 C.2     1  UNL1        0.0090
     32  C         15.5280  -23.5130   -3.8490 C.3     1  UNL1        0.0500
     33  C         18.5590  -21.2330   -3.5610 C.2     1  UNL1        0.0070
     34  C         18.8820  -20.9790   -4.8960 C.2     1  UNL1       -0.0600
     35  C         20.0620  -20.1220   -5.2560 C.3     1  UNL1        0.0480
     36  C         18.1140  -21.5740   -5.9060 C.2     1  UNL1        0.0370
@<TRIPOS>BOND
     1    21    20    1
     2    23    20    2
     3    20    22    2
     4    20    18    1
     5    18    19    1
     6    18    16    1
     7    16    17    1
     8    16    15    2
     9    17    12    2
    10    11    10    1
    11    15    14    1
    12    12    10    1
    13    12    13    1
    14    10     8   am
    15     4     5    2
    16     4     3    1
    17     5     6    1
    18    14    13    2
    19     8     3    1
    20     8     9    2
    21     3     2    2
    22     6     7    1
    23     6     1    2
    24     2     1    1
    25     1    24    1
    26    25    24    2
    27    24    26    2
    28    24    27    1
    29    28    27    1
    30    27    29    1
    31    36    29    2
    32    36    34    1
    33    29    30    1
    34    35    34    1
    35    34    33    2
    36    30    32    1
    37    30    31    2
    38    33    31    1
