@<TRIPOS>MOLECULE
53019_out_ligand_01.pdbqt
 33 35 0 0 0
SMALL
GASTEIGER

@<TRIPOS>ATOM
      1  C         21.4990  -22.3990  -10.1690 C.2     1  UNL1        0.0860
      2  C         20.7530  -22.9560   -9.1150 C.2     1  UNL1        0.0420
      3  C         19.3580  -22.9110   -9.1330 C.2     1  UNL1        0.0330
      4  C         18.7010  -22.3600  -10.2380 C.2     1  UNL1        0.0170
      5  C         19.4400  -21.8270  -11.2970 C.2     1  UNL1        0.0090
      6  C         20.8470  -21.8200  -11.2760 C.2     1  UNL1       -0.0390
      7  C         21.5660  -21.2330  -12.4570 C.3     1  UNL1        0.0500
      8  C         18.6090  -23.4730   -7.9700 C.2     1  UNL1        0.2560
      9  O         18.9250  -24.5750   -7.5400 O.2     1  UNL1       -0.2670
     10  N         17.6540  -22.6250   -7.4290 N.am    1  UNL1       -0.3220
     11  H         17.8510  -21.6440   -7.5730 H       1  UNL1        0.1690
     12  C         16.8720  -22.9300   -6.2840 C.2     1  UNL1        0.0470
     13  C         15.7110  -23.7200   -6.4870 C.2     1  UNL1       -0.0350
     14  C         15.2880  -24.1970   -7.8530 C.3     1  UNL1        0.0500
     15  C         14.8920  -24.0500   -5.3960 C.2     1  UNL1        0.0090
     16  C         15.2110  -23.6140   -4.1170 C.2     1  UNL1        0.0010
     17  C         16.3670  -22.8690   -3.9100 C.2     1  UNL1        0.0100
     18  C         17.2340  -22.5320   -4.9730 C.2     1  UNL1       -0.0270
     19  C         18.5570  -21.8530   -4.6230 C.3     1  UNL1        0.0130
     20  C         18.8550  -20.6650   -5.5470 C.3     1  UNL1        0.0150
     21  C         18.5860  -21.4060   -3.1530 C.3     1  UNL1        0.0150
     22  S         23.2830  -22.4810  -10.0320 S.O2    1  UNL1        0.2630
     23  O         23.8130  -21.1490  -10.2210 O.2     1  UNL1       -0.2000
     24  O         23.6190  -23.2380   -8.8440 O.2     1  UNL1       -0.2000
     25  N         23.7230  -23.4450  -11.3450 N.pl3   1  UNL1       -0.2800
     26  H         22.9440  -23.9830  -11.7120 H       1  UNL1        0.1790
     27  C         24.7650  -23.0450  -12.2350 C.2     1  UNL1        0.0480
     28  C         24.4530  -22.4630  -13.4680 C.2     1  UNL1        0.0300
     29  C         25.4650  -22.1030  -14.3590 C.2     1  UNL1        0.0020
     30  C         26.7980  -22.3020  -14.0150 C.2     1  UNL1        0.0010
     31  C         27.1200  -22.8530  -12.7740 C.2     1  UNL1        0.0090
     32  C         26.1100  -23.2260  -11.8680 C.2     1  UNL1       -0.0350
     33  C         26.5120  -23.8210  -10.5460 C.3     1  UNL1        0.0500
@<TRIPOS>BOND
     1    29    30    2
     2    29    28    1
     3    30    31    1
     4    28    27    2
     5    31    32    2
     6     7     6    1
     7    27    32    1
     8    27    25    1
     9    32    33    1
    10    26    25    1
    11    25    22    1
    12     5     6    1
    13     5     4    2
    14     6     1    2
    15     4     3    1
    16    23    22    2
    17     1    22    1
    18     1     2    1
    19    22    24    2
    20     3     2    2
    21     3     8    1
    22     8     9    2
    23     8    10   am
    24    14    13    1
    25    11    10    1
    26    10    12    1
    27    13    12    2
    28    13    15    1
    29    12    18    1
    30    20    19    1
    31    15    16    2
    32    18    19    1
    33    18    17    2
    34    19    21    1
    35    16    17    1
