@<TRIPOS>MOLECULE
53015_out_ligand_01.pdbqt
 31 33 0 0 0
SMALL
GASTEIGER

@<TRIPOS>ATOM
      1  C         17.5540  -23.5130   -8.6560 C.2     1  UNL1        0.0860
      2  C         18.9480  -23.6780   -8.5680 C.2     1  UNL1        0.0420
      3  C         19.7980  -23.0550   -9.4840 C.2     1  UNL1        0.0330
      4  C         19.2550  -22.2660  -10.4990 C.2     1  UNL1        0.0170
      5  C         17.8690  -22.1250  -10.6060 C.2     1  UNL1        0.0090
      6  C         16.9940  -22.7470   -9.6950 C.2     1  UNL1       -0.0390
      7  C         15.5180  -22.5540   -9.8980 C.3     1  UNL1        0.0500
      8  S         16.5980  -24.3530   -7.3950 S.O2    1  UNL1        0.2630
      9  O         17.5440  -25.0880   -6.5800 O.2     1  UNL1       -0.2000
     10  O         15.4700  -25.0290   -7.9940 O.2     1  UNL1       -0.2000
     11  N         16.0390  -23.0880   -6.4260 N.pl3   1  UNL1       -0.2800
     12  H         15.0450  -23.1690   -6.2210 H       1  UNL1        0.1790
     13  C         16.8890  -22.4820   -5.4530 C.2     1  UNL1        0.0490
     14  C         16.6640  -22.6980   -4.0820 C.2     1  UNL1       -0.0350
     15  C         17.5390  -22.1130   -3.1540 C.2     1  UNL1        0.0090
     16  C         15.5190  -23.5310   -3.5750 C.3     1  UNL1        0.0500
     17  C         18.6000  -21.3090   -3.5750 C.2     1  UNL1        0.0070
     18  C         18.7960  -21.0550   -4.9320 C.2     1  UNL1       -0.0600
     19  C         19.9370  -20.2000   -5.3990 C.3     1  UNL1        0.0480
     20  C         17.9360  -21.6500   -5.8650 C.2     1  UNL1        0.0370
     21  C         21.2650  -23.2250   -9.3100 C.2     1  UNL1        0.2510
     22  O         21.7220  -24.3390   -9.0820 O.2     1  UNL1       -0.2680
     23  N         22.0330  -22.0910   -9.4550 N.am    1  UNL1       -0.3530
     24  H         21.6130  -21.2680   -9.8630 H       1  UNL1        0.1630
     25  C         23.4790  -22.1570   -9.4540 C.3     1  UNL1        0.1620
     26  C         24.0380  -21.8230  -10.8060 C.2     1  UNL1       -0.0230
     27  C         23.2970  -22.0320  -11.9730 C.2     1  UNL1        0.0120
     28  C         23.8420  -21.6950  -13.2080 C.2     1  UNL1        0.0200
     29  C         25.1160  -21.1530  -13.2360 C.2     1  UNL1        0.1160
     30  N         25.8630  -20.9350  -12.1330 N.2     1  UNL1       -0.2730
     31  C         25.3090  -21.2750  -10.9470 C.2     1  UNL1        0.1240
@<TRIPOS>BOND
     1    29    28    2
     2    29    30    1
     3    28    27    1
     4    30    31    2
     5    27    26    2
     6    31    26    1
     7    26    25    1
     8     5     4    2
     9     5     6    1
    10     4     3    1
    11     7     6    1
    12    24    23    1
    13     6     1    2
    14     3    21    1
    15     3     2    2
    16    23    25    1
    17    23    21   am
    18    21    22    2
    19     1     2    1
    20     1     8    1
    21    10     8    2
    22     8     9    2
    23     8    11    1
    24    11    12    1
    25    11    13    1
    26    20    13    2
    27    20    18    1
    28    13    14    1
    29    19    18    1
    30    18    17    2
    31    14    16    1
    32    14    15    2
    33    17    15    1
