@<TRIPOS>MOLECULE
53018_out_ligand_01.pdbqt
 32 34 0 0 0
SMALL
GASTEIGER

@<TRIPOS>ATOM
      1  C         20.5180  -22.7400  -10.1890 C.2     1  UNL1        0.0340
      2  C         21.1380  -23.6450   -9.3250 C.2     1  UNL1        0.0190
      3  C         20.3800  -24.3100   -8.3560 C.2     1  UNL1        0.0260
      4  C         18.9990  -24.0940   -8.2360 C.2     1  UNL1        0.0570
      5 CL         18.2220  -24.9740   -6.9740 Cl      1  UNL1       -0.0830
      6  C         18.3730  -23.2010   -9.1080 C.2     1  UNL1        0.1020
      7  C         19.1340  -22.5430  -10.0940 C.2     1  UNL1        0.0440
      8  S         16.6290  -22.8500   -9.0890 S.O2    1  UNL1        0.2650
      9  O         15.8690  -24.0500   -8.8310 O.2     1  UNL1       -0.2000
     10  O         16.3480  -22.0570  -10.2700 O.2     1  UNL1       -0.2000
     11  N         16.4600  -21.7840   -7.7940 N.pl3   1  UNL1       -0.2800
     12  H         16.9240  -20.8890   -7.9380 H       1  UNL1        0.1790
     13  C         16.2870  -22.2770   -6.4700 C.2     1  UNL1        0.0490
     14  C         15.0690  -22.8750   -6.1380 C.2     1  UNL1        0.0310
     15  C         14.8660  -23.4030   -4.8670 C.2     1  UNL1        0.0030
     16  C         15.8800  -23.3260   -3.9180 C.2     1  UNL1        0.0070
     17  C         17.1060  -22.7140   -4.2230 C.2     1  UNL1       -0.0540
     18  C         18.1670  -22.6550   -3.1540 C.3     1  UNL1        0.0490
     19  C         17.3260  -22.1890   -5.5210 C.2     1  UNL1       -0.0290
     20  C         18.6430  -21.5220   -5.8340 C.3     1  UNL1        0.0510
     21  C         21.2720  -21.9900  -11.2360 C.2     1  UNL1        0.2560
     22  N         22.4770  -22.5540  -11.6170 N.am    1  UNL1       -0.3230
     23  H         22.7990  -23.3590  -11.1010 H       1  UNL1        0.1690
     24  O         20.7960  -20.9350  -11.6350 O.2     1  UNL1       -0.2670
     25  C         23.3620  -22.0800  -12.6110 C.2     1  UNL1        0.0350
     26  C         24.7080  -22.4650  -12.5060 C.2     1  UNL1        0.0370
     27  C         25.6670  -22.0550  -13.4520 C.2     1  UNL1       -0.0430
     28  C         27.0950  -22.4980  -13.2910 C.3     1  UNL1        0.0490
     29  C         25.2510  -21.2430  -14.5160 C.2     1  UNL1        0.0170
     30  C         23.9140  -20.8570  -14.6270 C.2     1  UNL1        0.0220
     31 BR         26.4570  -20.6320  -15.8500 Br      1  UNL1       -0.0510
     32  C         22.9750  -21.2750  -13.6800 C.2     1  UNL1        0.0310
@<TRIPOS>BOND
     1    31    29    1
     2    30    29    2
     3    30    32    1
     4    29    27    1
     5    32    25    2
     6    27    28    1
     7    27    26    2
     8    25    26    1
     9    25    22    1
    10    24    21    2
    11    22    21   am
    12    22    23    1
    13    21     1    1
    14    10     8    2
    15     1     7    2
    16     1     2    1
    17     7     6    1
    18     2     3    2
    19     6     8    1
    20     6     4    2
    21     8     9    2
    22     8    11    1
    23     3     4    1
    24     4     5    1
    25    12    11    1
    26    11    13    1
    27    13    14    2
    28    13    19    1
    29    14    15    1
    30    20    19    1
    31    19    17    2
    32    15    16    2
    33    17    16    1
    34    17    18    1
