@<TRIPOS>MOLECULE
53023_out_ligand_01.pdbqt
 44 47 0 0 0
SMALL
GASTEIGER

@<TRIPOS>ATOM
      1  C         22.3060  -22.3220  -10.6270 C.2     1  UNL1        0.2560
      2  O         21.6310  -21.3330  -10.8740 O.2     1  UNL1       -0.2670
      3  N         22.0710  -23.2700   -9.6470 N.am    1  UNL1       -0.3230
      4  H         22.6620  -24.0910   -9.6440 H       1  UNL1        0.1690
      5  C         21.0310  -23.2700   -8.6920 C.2     1  UNL1        0.0350
      6  C         20.9620  -22.1670   -7.8270 C.2     1  UNL1        0.0310
      7  C         19.9650  -22.0880   -6.8500 C.2     1  UNL1        0.0270
      8  C         19.0220  -23.1110   -6.7450 C.2     1  UNL1        0.0800
      9  C         19.0860  -24.2210   -7.5900 C.2     1  UNL1        0.0270
     10  C         20.0860  -24.2920   -8.5660 C.2     1  UNL1        0.0310
     11  S         17.7570  -23.0310   -5.4970 S.O2    1  UNL1        0.2630
     12  O         18.1930  -22.1000   -4.4790 O.2     1  UNL1       -0.2000
     13  O         17.3850  -24.3900   -5.1640 O.2     1  UNL1       -0.2000
     14  N         16.4430  -22.3740   -6.3310 N.pl3   1  UNL1       -0.2810
     15  H         15.6030  -22.3500   -5.7540 H       1  UNL1        0.1790
     16  C         16.2960  -22.6140   -7.7240 C.2     1  UNL1        0.0430
     17  C         15.5970  -23.7460   -8.1430 C.2     1  UNL1        0.0300
     18  C         15.4630  -24.0220   -9.5040 C.2     1  UNL1        0.0030
     19  C         16.0290  -23.1650  -10.4490 C.2     1  UNL1        0.0160
     20  C         16.7220  -22.0150  -10.0420 C.2     1  UNL1        0.0500
     21  C         16.8510  -21.7480   -8.6680 C.2     1  UNL1        0.0460
     22  C         17.3600  -21.0910  -11.0510 C.3     1  UNL1        0.4170
     23  F         18.6950  -20.9390  -10.8330 F       1  UNL1       -0.1660
     24  F         16.8300  -19.8380  -11.0380 F       1  UNL1       -0.1660
     25  F         17.2400  -21.5320  -12.3350 F       1  UNL1       -0.1660
     26  C         23.4990  -22.5840  -11.4820 C.2     1  UNL1        0.0340
     27  C         23.4870  -22.1380  -12.8110 C.2     1  UNL1        0.0440
     28  C         24.5860  -22.3750  -13.6580 C.2     1  UNL1        0.1020
     29  C         25.7140  -23.0360  -13.1630 C.2     1  UNL1        0.0570
     30  C         25.7280  -23.4570  -11.8220 C.2     1  UNL1        0.0260
     31 CL         27.1210  -23.4310  -14.0770 Cl      1  UNL1       -0.0830
     32  C         24.6330  -23.2310  -10.9840 C.2     1  UNL1        0.0190
     33  S         24.4680  -21.7560  -15.3170 S.O2    1  UNL1        0.2650
     34  O         24.3290  -22.9100  -16.1860 O.2     1  UNL1       -0.2000
     35  O         23.5080  -20.6830  -15.4040 O.2     1  UNL1       -0.2000
     36  N         26.0290  -21.1780  -15.6180 N.pl3   1  UNL1       -0.2800
     37  H         26.5550  -21.8400  -16.1860 H       1  UNL1        0.1790
     38  C         26.2070  -19.7930  -15.8970 C.2     1  UNL1        0.0480
     39  C         26.1110  -19.3800  -17.2300 C.2     1  UNL1        0.0300
     40  C         26.3090  -18.0420  -17.5690 C.2     1  UNL1        0.0020
     41  C         26.6060  -17.1150  -16.5750 C.2     1  UNL1        0.0010
     42  C         26.6960  -17.5230  -15.2430 C.2     1  UNL1        0.0090
     43  C         26.4850  -18.8650  -14.8820 C.2     1  UNL1       -0.0350
     44  C         26.6220  -19.2550  -13.4360 C.3     1  UNL1        0.0500
@<TRIPOS>BOND
     1    40    39    1
     2    40    41    2
     3    39    38    2
     4    41    42    1
     5    37    36    1
     6    34    33    2
     7    38    36    1
     8    38    43    1
     9    36    33    1
    10    35    33    2
    11    33    28    1
    12    42    43    2
    13    43    44    1
    14    31    29    1
    15    28    29    2
    16    28    27    1
    17    29    30    1
    18    27    26    2
    19    25    22    1
    20    30    32    2
    21    26    32    1
    22    26     1    1
    23    22    24    1
    24    22    23    1
    25    22    20    1
    26     2     1    2
    27     1     3   am
    28    19    20    2
    29    19    18    1
    30    20    21    1
    31     3     4    1
    32     3     5    1
    33    18    17    2
    34     5    10    2
    35     5     6    1
    36    21    16    2
    37    10     9    1
    38    17    16    1
    39     6     7    2
    40    16    14    1
    41     9     8    2
    42     7     8    1
    43     8    11    1
    44    14    15    1
    45    14    11    1
    46    11    13    2
    47    11    12    2
