@<TRIPOS>MOLECULE
53022_out_ligand_01.pdbqt
 43 46 0 0 0
SMALL
GASTEIGER

@<TRIPOS>ATOM
      1  C         20.8650  -21.5360   -6.9340 C.2     1  UNL1        0.2560
      2  O         21.5890  -20.6550   -6.4930 O.2     1  UNL1       -0.2670
      3  N         21.1370  -22.3870   -7.9890 N.am    1  UNL1       -0.3230
      4  H         20.3730  -22.9590   -8.3290 H       1  UNL1        0.1690
      5  C         19.5320  -21.7260   -6.2920 C.2     1  UNL1        0.0340
      6  C         18.5270  -22.3780   -7.0160 C.2     1  UNL1        0.0440
      7  C         17.2280  -22.5130   -6.4870 C.2     1  UNL1        0.1020
      8  C         16.9440  -22.0150   -5.2140 C.2     1  UNL1        0.0570
      9  C         17.9600  -21.3690   -4.4880 C.2     1  UNL1        0.0260
     10 CL         15.4190  -22.0970   -4.4290 Cl      1  UNL1       -0.0830
     11  C         19.2450  -21.2190   -5.0190 C.2     1  UNL1        0.0190
     12  S         16.0490  -23.3590   -7.5150 S.O2    1  UNL1        0.2650
     13  O         14.9720  -22.4770   -7.8980 O.2     1  UNL1       -0.2000
     14  O         15.7480  -24.6090   -6.8500 O.2     1  UNL1       -0.2000
     15  N         16.9370  -23.7880   -8.8830 N.pl3   1  UNL1       -0.2800
     16  H         17.5130  -24.6150   -8.7310 H       1  UNL1        0.1790
     17  C         17.3780  -22.7950   -9.8090 C.2     1  UNL1        0.0490
     18  C         16.5130  -21.7570  -10.1590 C.2     1  UNL1        0.0310
     19  C         16.9420  -20.7430  -11.0120 C.2     1  UNL1        0.0030
     20  C         18.2350  -20.7770  -11.5340 C.2     1  UNL1        0.0070
     21  C         19.1110  -21.8330  -11.2250 C.2     1  UNL1       -0.0540
     22  C         20.4830  -21.8310  -11.8500 C.3     1  UNL1        0.0490
     23  C         18.6850  -22.8570  -10.3440 C.2     1  UNL1       -0.0290
     24  C         19.5820  -24.0230  -10.0160 C.3     1  UNL1        0.0510
     25  C         22.3470  -22.4990   -8.7060 C.2     1  UNL1        0.0350
     26  C         22.9410  -23.7690   -8.7580 C.2     1  UNL1        0.0310
     27  C         24.1540  -23.9640   -9.4270 C.2     1  UNL1        0.0270
     28  C         24.7870  -22.8760  -10.0310 C.2     1  UNL1        0.0800
     29  C         24.1980  -21.6110  -10.0050 C.2     1  UNL1        0.0270
     30  C         22.9810  -21.4260   -9.3400 C.2     1  UNL1        0.0310
     31  S         26.3240  -23.1120  -10.8860 S.O2    1  UNL1        0.2630
     32  O         27.1210  -24.0440  -10.1150 O.2     1  UNL1       -0.2000
     33  O         26.8470  -21.8170  -11.2690 O.2     1  UNL1       -0.2000
     34  N         25.8470  -23.9610  -12.2770 N.pl3   1  UNL1       -0.2810
     35  H         26.4540  -24.7730  -12.4120 H       1  UNL1        0.1790
     36  C         25.4840  -23.2050  -13.4250 C.2     1  UNL1        0.0450
     37  C         26.2530  -23.2790  -14.5860 C.2     1  UNL1        0.0540
     38  C         25.9100  -22.4950  -15.6890 C.2     1  UNL1        0.0370
     39 CL         26.8540  -22.5930  -17.1260 Cl      1  UNL1       -0.0840
     40  C         24.8140  -21.6340  -15.6380 C.2     1  UNL1        0.0480
     41  C         24.0570  -21.5670  -14.4700 C.2     1  UNL1        0.0370
     42 CL         22.7040  -20.5070  -14.3880 Cl      1  UNL1       -0.0840
     43  C         24.3890  -22.3450  -13.3590 C.2     1  UNL1        0.0540
@<TRIPOS>BOND
     1    39    38    1
     2    38    40    2
     3    38    37    1
     4    40    41    1
     5    37    36    2
     6    41    42    1
     7    41    43    2
     8    36    43    1
     9    36    34    1
    10    35    34    1
    11    34    31    1
    12    22    21    1
    13    20    21    2
    14    20    19    1
    15    33    31    2
    16    21    23    1
    17    19    18    2
    18    31    32    2
    19    31    28    1
    20    23    24    1
    21    23    17    2
    22    18    17    1
    23    28    29    2
    24    28    27    1
    25    29    30    1
    26    17    15    1
    27    27    26    2
    28    30    25    2
    29    15    16    1
    30    15    12    1
    31    26    25    1
    32    25     3    1
    33     4     3    1
    34     3     1   am
    35    13    12    2
    36    12    14    2
    37    12     7    1
    38     6     7    1
    39     6     5    2
    40     1     2    2
    41     1     5    1
    42     7     8    2
    43     5    11    1
    44     8     9    1
    45     8    10    1
    46    11     9    2
