@<TRIPOS>MOLECULE
53034_out_ligand_01.pdbqt
 41 44 0 0 0
SMALL
GASTEIGER

@<TRIPOS>ATOM
      1  N         19.2610  -23.2220   -7.0140 N.am    1  UNL1       -0.3230
      2  C         18.6490  -22.2920   -6.1900 C.2     1  UNL1        0.2580
      3  O         19.0340  -21.1520   -5.9560 O.2     1  UNL1       -0.2670
      4  H         18.7400  -24.0650   -7.2250 H       1  UNL1        0.1690
      5  C         20.4710  -23.0640   -7.7240 C.2     1  UNL1        0.0350
      6  C         20.8960  -24.1470   -8.5090 C.2     1  UNL1        0.0310
      7  C         22.0740  -24.0700   -9.2570 C.2     1  UNL1        0.0270
      8  C         22.8280  -22.8970   -9.2310 C.2     1  UNL1        0.0800
      9  C         22.4320  -21.8210   -8.4340 C.2     1  UNL1        0.0270
     10  C         21.2560  -21.9070   -7.6830 C.2     1  UNL1        0.0310
     11  S         24.3330  -22.7880  -10.1680 S.O2    1  UNL1        0.2630
     12  O         25.2820  -23.7190   -9.5980 O.2     1  UNL1       -0.2000
     13  O         24.6540  -21.3820  -10.3110 O.2     1  UNL1       -0.2000
     14  N         23.8670  -23.3130  -11.7010 N.pl3   1  UNL1       -0.2810
     15  H         23.6480  -24.3070  -11.7140 H       1  UNL1        0.1790
     16  C         24.4580  -22.7440  -12.8590 C.2     1  UNL1        0.0420
     17  C         23.7380  -21.7990  -13.5830 C.2     1  UNL1        0.0330
     18  C         24.2920  -21.2390  -14.7360 C.2     1  UNL1        0.0390
     19  C         25.5680  -21.6080  -15.1660 C.2     1  UNL1        0.0680
     20  C         26.2880  -22.5510  -14.4360 C.2     1  UNL1        0.0390
     21  C         25.7320  -23.1180  -13.2820 C.2     1  UNL1        0.0330
     22  O         25.9810  -20.9930  -16.3140 O.2     1  UNL1       -0.3560
     23  C         24.9820  -20.7240  -17.2900 C.3     1  UNL1        0.2100
     24  C         17.3570  -22.7300   -5.5900 C.2     1  UNL1        0.0540
     25  C         17.3270  -23.3020   -4.3080 C.2     1  UNL1        0.0190
     26  C         16.1140  -23.7210   -3.7550 C.2     1  UNL1        0.0010
     27  C         14.9290  -23.5620   -4.4700 C.2     1  UNL1        0.0020
     28  C         14.9490  -22.9760   -5.7380 C.2     1  UNL1        0.0250
     29  C         16.1550  -22.5480   -6.3010 C.2     1  UNL1        0.0380
     30  N         16.1410  -21.9810   -7.6210 N.pl3   1  UNL1       -0.1800
     31  H         16.8220  -21.2250   -7.7660 H       1  UNL1        0.1460
     32  S         16.1260  -23.0350   -8.9490 S.O2    1  UNL1        0.2450
     33  O         14.8450  -22.8710   -9.6040 O.2     1  UNL1       -0.2060
     34  O         16.5870  -24.3400   -8.5210 O.2     1  UNL1       -0.2060
     35  C         17.3680  -22.3410  -10.0180 C.2     1  UNL1        0.0740
     36  C         17.2310  -21.0320  -10.4880 C.2     1  UNL1        0.0250
     37  C         18.2160  -20.4910  -11.3160 C.2     1  UNL1        0.0080
     38  C         19.3340  -21.2530  -11.6790 C.2     1  UNL1       -0.0620
     39  C         20.4110  -20.6730  -12.5480 C.3     1  UNL1        0.0480
     40  C         19.4700  -22.5570  -11.1790 C.2     1  UNL1        0.0080
     41  C         18.4910  -23.1030  -10.3500 C.2     1  UNL1        0.0250
@<TRIPOS>BOND
     1    23    22    1
     2    22    19    1
     3    19    18    2
     4    19    20    1
     5    18    17    1
     6    20    21    2
     7    17    16    2
     8    21    16    1
     9    16    14    1
    10    39    38    1
    11    15    14    1
    12    14    11    1
    13    38    37    2
    14    38    40    1
    15    37    36    1
    16    40    41    2
    17    36    35    2
    18    41    35    1
    19    13    11    2
    20    11    12    2
    21    11     8    1
    22    35    32    1
    23    33    32    2
    24     7     8    2
    25     7     6    1
    26     8     9    1
    27    32    34    2
    28    32    30    1
    29     6     5    2
    30     9    10    2
    31    31    30    1
    32     5    10    1
    33     5     1    1
    34    30    29    1
    35     4     1    1
    36     1     2   am
    37    29    28    1
    38    29    24    2
    39     2     3    2
    40     2    24    1
    41    28    27    2
    42    24    25    1
    43    27    26    1
    44    25    26    2
