@<TRIPOS>MOLECULE
53048_out_ligand_01.pdbqt
 39 42 0 0 0
SMALL
GASTEIGER

@<TRIPOS>ATOM
      1  C         15.9480  -22.1920   -4.4120 C.3     1  UNL1        0.0500
      2  C         17.2550  -21.9820   -5.1260 C.2     1  UNL1       -0.0390
      3  C         18.2370  -21.2030   -4.4870 C.2     1  UNL1        0.0090
      4  C         19.4930  -20.9970   -5.0680 C.2     1  UNL1        0.0170
      5  C         19.7930  -21.5860   -6.2980 C.2     1  UNL1        0.0330
      6  C         18.8270  -22.3510   -6.9570 C.2     1  UNL1        0.0420
      7  C         17.5630  -22.5510   -6.3770 C.2     1  UNL1        0.0860
      8  C         21.1240  -21.4260   -6.9410 C.2     1  UNL1        0.2560
      9  O         21.8390  -20.5060   -6.5650 O.2     1  UNL1       -0.2670
     10  N         21.3860  -22.3310   -7.9540 N.am    1  UNL1       -0.3230
     11  H         20.6420  -22.9710   -8.1970 H       1  UNL1        0.1690
     12  C         22.5210  -22.3680   -8.7900 C.2     1  UNL1        0.0350
     13  C         23.2710  -23.5530   -8.7960 C.2     1  UNL1        0.0310
     14  C         24.3870  -23.6900   -9.6260 C.2     1  UNL1        0.0270
     15  C         24.7500  -22.6340  -10.4630 C.2     1  UNL1        0.0740
     16  C         24.0350  -21.4370  -10.4450 C.2     1  UNL1        0.0270
     17  C         22.9220  -21.3070   -9.6080 C.2     1  UNL1        0.0310
     18  S         26.1270  -22.8020  -11.5690 S.O2    1  UNL1        0.2430
     19  O         26.8180  -21.5300  -11.6090 O.2     1  UNL1       -0.2060
     20  O         26.8330  -24.0250  -11.2450 O.2     1  UNL1       -0.2060
     21  N         25.3600  -23.0390  -13.0760 N.3     1  UNL1       -0.2020
     22  C         25.4890  -24.4190  -13.6510 C.3     1  UNL1        0.1340
     23  C         25.2650  -24.4070  -15.1660 C.3     1  UNL1        0.1830
     24  O         26.2280  -23.6120  -15.8680 O.3     1  UNL1       -0.3890
     25  C         26.6940  -22.4840  -15.1130 C.3     1  UNL1        0.1830
     26  C         25.6740  -21.9780  -14.0890 C.3     1  UNL1        0.1340
     27  S         16.4120  -23.5810   -7.2790 S.O2    1  UNL1        0.2630
     28  O         16.2160  -24.8030   -6.5270 O.2     1  UNL1       -0.2000
     29  O         15.2700  -22.7680   -7.6500 O.2     1  UNL1       -0.2000
     30  N         17.2320  -23.9330   -8.7100 N.pl3   1  UNL1       -0.2800
     31  H         17.0070  -24.8540   -9.0700 H       1  UNL1        0.1790
     32  C         17.5460  -22.8880   -9.6340 C.2     1  UNL1        0.0490
     33  C         16.5840  -21.9060   -9.8990 C.2     1  UNL1        0.0310
     34  C         16.8240  -20.9220  -10.8520 C.2     1  UNL1        0.0030
     35  C         18.0310  -20.9060  -11.5430 C.2     1  UNL1        0.0070
     36  C         19.0230  -21.8670  -11.2810 C.2     1  UNL1       -0.0540
     37  C         20.3080  -21.7970  -12.0640 C.3     1  UNL1        0.0490
     38  C         18.7950  -22.8580  -10.2950 C.2     1  UNL1       -0.0290
     39  C         19.8520  -23.8960  -10.0120 C.3     1  UNL1        0.0510
@<TRIPOS>BOND
     1    24    23    1
     2    24    25    1
     3    23    22    1
     4    25    26    1
     5    26    21    1
     6    22    21    1
     7    21    18    1
     8    37    36    1
     9    19    18    2
    10    18    20    2
    11    18    15    1
    12    35    36    2
    13    35    34    1
    14    36    38    1
    15    34    33    2
    16    15    16    2
    17    15    14    1
    18    16    17    1
    19    38    39    1
    20    38    32    2
    21    33    32    1
    22    32    30    1
    23    14    13    2
    24    17    12    2
    25    31    30    1
    26    13    12    1
    27    12    10    1
    28    30    27    1
    29    11    10    1
    30    10     8   am
    31    29    27    2
    32    27    28    2
    33    27     7    1
    34     6     7    1
    35     6     5    2
    36     8     9    2
    37     8     5    1
    38     7     2    2
    39     5     4    1
    40     2     3    1
    41     2     1    1
    42     4     3    2
