@<TRIPOS>MOLECULE
53041_out_ligand_01.pdbqt
 43 46 0 0 0
SMALL
GASTEIGER

@<TRIPOS>ATOM
      1  N         21.1950  -22.5100   -7.7710 N.am    1  UNL1       -0.3230
      2  C         20.8210  -21.5480   -6.8490 C.2     1  UNL1        0.2560
      3  O         21.5190  -20.6430   -6.4100 O.2     1  UNL1       -0.2670
      4  H         20.5620  -23.2870   -7.9100 H       1  UNL1        0.1690
      5  C         19.4220  -21.6630   -6.3440 C.2     1  UNL1        0.0330
      6  C         19.0680  -21.2280   -5.0640 C.2     1  UNL1        0.0170
      7  C         17.7620  -21.4050   -4.6010 C.2     1  UNL1        0.0090
      8  C         16.7840  -22.0290   -5.3970 C.2     1  UNL1       -0.0390
      9  C         15.4110  -22.2110   -4.8170 C.3     1  UNL1        0.0500
     10  C         17.1500  -22.4670   -6.6850 C.2     1  UNL1        0.0810
     11  C         18.4650  -22.2890   -7.1490 C.2     1  UNL1        0.0420
     12  S         15.9990  -23.3080   -7.7730 S.O2    1  UNL1        0.2460
     13  O         15.0790  -22.3180   -8.2870 O.2     1  UNL1       -0.2060
     14  O         15.5350  -24.4870   -7.0720 O.2     1  UNL1       -0.2060
     15  N         17.0360  -23.8660   -9.0180 N.pl3   1  UNL1       -0.1810
     16  H         16.5270  -24.5830   -9.5390 H       1  UNL1        0.1460
     17  C         17.4750  -22.8240   -9.9170 C.2     1  UNL1        0.0290
     18  C         16.5720  -21.8040  -10.2390 C.2     1  UNL1        0.0250
     19  C         16.9520  -20.7720  -11.0880 C.2     1  UNL1        0.0020
     20  C         18.2370  -20.7550  -11.6230 C.2     1  UNL1        0.0070
     21  C         19.1600  -21.7680  -11.3150 C.2     1  UNL1       -0.0540
     22  C         20.5350  -21.6910  -11.9250 C.3     1  UNL1        0.0490
     23  C         18.7880  -22.8080  -10.4290 C.2     1  UNL1       -0.0340
     24  C         19.7490  -23.9180  -10.0920 C.3     1  UNL1        0.0500
     25  C         22.3930  -22.5560   -8.5160 C.2     1  UNL1        0.0350
     26  C         22.9070  -21.4730   -9.2340 C.2     1  UNL1        0.0310
     27  C         24.0780  -21.6080   -9.9860 C.2     1  UNL1        0.0270
     28  C         24.7310  -22.8410  -10.0360 C.2     1  UNL1        0.0800
     29  C         24.2510  -23.9230   -9.2980 C.2     1  UNL1        0.0270
     30  C         23.0810  -23.7790   -8.5460 C.2     1  UNL1        0.0310
     31  S         26.2080  -23.0220  -11.0100 S.O2    1  UNL1        0.2630
     32  O         26.6060  -21.7110  -11.4740 O.2     1  UNL1       -0.2000
     33  O         27.1210  -23.8610  -10.2610 O.2     1  UNL1       -0.2000
     34  N         25.6970  -23.9560  -12.3210 N.pl3   1  UNL1       -0.2800
     35  H         25.2510  -24.8230  -12.0300 H       1  UNL1        0.1790
     36  C         25.2660  -23.3310  -13.5270 C.2     1  UNL1        0.0500
     37  C         24.3620  -22.2670  -13.4690 C.2     1  UNL1        0.0540
     38  C         23.9120  -21.6710  -14.6440 C.2     1  UNL1        0.0360
     39  C         24.3620  -22.1210  -15.8810 C.2     1  UNL1        0.0240
     40 CL         22.7910  -20.3670  -14.5690 Cl      1  UNL1       -0.0840
     41  C         25.2770  -23.1740  -15.9440 C.2     1  UNL1        0.0110
     42  C         25.7380  -23.7920  -14.7700 C.2     1  UNL1       -0.0350
     43  C         26.7310  -24.9150  -14.8810 C.3     1  UNL1        0.0500
@<TRIPOS>BOND
     1    41    39    2
     2    41    42    1
     3    39    38    1
     4    43    42    1
     5    42    36    2
     6    38    40    1
     7    38    37    2
     8    36    37    1
     9    36    34    1
    10    34    35    1
    11    34    31    1
    12    22    21    1
    13    20    21    2
    14    20    19    1
    15    32    31    2
    16    21    23    1
    17    19    18    2
    18    31    33    2
    19    31    28    1
    20    23    24    1
    21    23    17    2
    22    18    17    1
    23    28    27    2
    24    28    29    1
    25    27    26    1
    26    17    15    1
    27    16    15    1
    28    29    30    2
    29    26    25    2
    30    15    12    1
    31    30    25    1
    32    25     1    1
    33    13    12    2
    34     4     1    1
    35    12    14    2
    36    12    10    1
    37     1     2   am
    38    11    10    1
    39    11     5    2
    40     2     3    2
    41     2     5    1
    42    10     8    2
    43     5     6    1
    44     8     9    1
    45     8     7    1
    46     6     7    2
