@<TRIPOS>MOLECULE
53047_out_ligand_01.pdbqt
 42 45 0 0 0
SMALL
GASTEIGER

@<TRIPOS>ATOM
      1  N         21.7460  -22.7710   -9.0520 N.am    1  UNL1       -0.3230
      2  C         21.7030  -22.3200  -10.3600 C.2     1  UNL1        0.2560
      3  O         20.7330  -21.8490  -10.9400 O.2     1  UNL1       -0.2670
      4  H         22.6560  -22.9780   -8.6630 H       1  UNL1        0.1690
      5  C         22.9990  -22.3810  -11.0950 C.2     1  UNL1        0.0340
      6  C         24.1720  -22.8340  -10.4860 C.2     1  UNL1        0.0190
      7  C         25.3610  -22.8810  -11.2200 C.2     1  UNL1        0.0260
      8  C         25.3990  -22.4900  -12.5670 C.2     1  UNL1        0.0570
      9 CL         26.9450  -22.5700  -13.3230 Cl      1  UNL1       -0.0830
     10  C         24.2230  -22.0500  -13.1820 C.2     1  UNL1        0.1020
     11  C         23.0230  -22.0090  -12.4450 C.2     1  UNL1        0.0440
     12  S         24.1350  -21.5880  -14.8930 S.O2    1  UNL1        0.2650
     13  O         23.3970  -20.3410  -14.9540 O.2     1  UNL1       -0.2000
     14  O         23.7080  -22.7040  -15.7040 O.2     1  UNL1       -0.2000
     15  N         25.7280  -21.1610  -15.2560 N.pl3   1  UNL1       -0.2800
     16  H         26.3670  -21.4540  -14.5180 H       1  UNL1        0.1790
     17  C         25.9840  -19.9080  -15.8820 C.2     1  UNL1        0.0490
     18  C         25.7400  -19.8290  -17.2550 C.2     1  UNL1        0.0310
     19  C         25.9450  -18.6340  -17.9360 C.2     1  UNL1        0.0030
     20  C         26.3900  -17.5120  -17.2420 C.2     1  UNL1        0.0070
     21  C         26.6450  -17.5740  -15.8620 C.2     1  UNL1       -0.0540
     22  C         27.1210  -16.3300  -15.1590 C.3     1  UNL1        0.0490
     23  C         26.4660  -18.7950  -15.1680 C.2     1  UNL1       -0.0290
     24  C         26.7430  -18.8620  -13.6880 C.3     1  UNL1        0.0510
     25  C         20.6650  -22.8770   -8.1520 C.2     1  UNL1        0.0350
     26  C         20.4540  -21.8020   -7.2770 C.2     1  UNL1        0.0310
     27  C         19.4020  -21.8240   -6.3570 C.2     1  UNL1        0.0270
     28  C         18.5520  -22.9290   -6.3140 C.2     1  UNL1        0.0800
     29  C         18.7660  -24.0210   -7.1580 C.2     1  UNL1        0.0270
     30  C         19.8190  -23.9880   -8.0780 C.2     1  UNL1        0.0310
     31  S         17.2010  -22.9660   -5.1570 S.O2    1  UNL1        0.2630
     32  O         17.3970  -21.8940   -4.2040 O.2     1  UNL1       -0.2000
     33  O         17.0410  -24.3370   -4.7190 O.2     1  UNL1       -0.2000
     34  N         15.8610  -22.6210   -6.1280 N.pl3   1  UNL1       -0.2810
     35  H         14.9850  -22.8040   -5.6400 H       1  UNL1        0.1790
     36  C         15.9200  -22.9290   -7.5160 C.2     1  UNL1        0.0430
     37  C         15.4360  -24.1440   -7.9950 C.2     1  UNL1        0.0300
     38  C         15.4650  -24.4110   -9.3630 C.2     1  UNL1        0.0030
     39  C         15.9680  -23.4590  -10.2520 C.2     1  UNL1        0.0070
     40  C         16.4400  -22.2280   -9.7800 C.2     1  UNL1       -0.0600
     41  C         17.0050  -21.2150  -10.7310 C.3     1  UNL1        0.0480
     42  C         16.4260  -21.9750   -8.4020 C.2     1  UNL1        0.0370
@<TRIPOS>BOND
     1    19    18    1
     2    19    20    2
     3    18    17    2
     4    20    21    1
     5    17    15    1
     6    17    23    1
     7    21    23    2
     8    21    22    1
     9    14    12    2
    10    15    12    1
    11    15    16    1
    12    23    24    1
    13    13    12    2
    14    12    10    1
    15     9     8    1
    16    10     8    2
    17    10    11    1
    18     8     7    1
    19    11     5    2
    20     7     6    2
    21     5     6    1
    22     5     2    1
    23     3     2    2
    24    41    40    1
    25     2     1   am
    26    39    40    2
    27    39    38    1
    28    40    42    1
    29    38    37    2
    30     1     4    1
    31     1    25    1
    32    42    36    2
    33    25    30    2
    34    25    26    1
    35    30    29    1
    36    37    36    1
    37    36    34    1
    38    26    27    2
    39    29    28    2
    40    27    28    1
    41    28    31    1
    42    34    35    1
    43    34    31    1
    44    31    33    2
    45    31    32    2
