@<TRIPOS>MOLECULE
53045_out_ligand_01.pdbqt
 34 37 0 0 0
SMALL
GASTEIGER

@<TRIPOS>ATOM
      1  C         18.9140  -23.0240   -9.5440 C.2     1  UNL1        0.0860
      2  C         19.6630  -22.4350  -10.5770 C.2     1  UNL1        0.0420
      3  C         21.0330  -22.6830  -10.6920 C.2     1  UNL1        0.0330
      4  C         21.6620  -23.5250   -9.7750 C.2     1  UNL1        0.0170
      5  C         20.9130  -24.1340   -8.7620 C.2     1  UNL1        0.0090
      6  C         19.5300  -23.9010   -8.6320 C.2     1  UNL1       -0.0390
      7  C         18.8050  -24.6060   -7.5200 C.3     1  UNL1        0.0500
      8  C         21.7890  -21.9890  -11.7680 C.2     1  UNL1        0.2560
      9  O         21.2200  -21.0920  -12.3760 O.2     1  UNL1       -0.2670
     10  N         23.0660  -22.4720  -11.9820 N.am    1  UNL1       -0.3230
     11  H         23.3330  -23.3060  -11.4740 H       1  UNL1        0.1690
     12  C         24.0170  -21.9930  -12.9090 C.2     1  UNL1        0.0370
     13  C         25.3360  -21.8530  -12.4530 C.2     1  UNL1        0.0320
     14  C         26.3430  -21.3910  -13.3060 C.2     1  UNL1        0.0420
     15  C         26.0370  -21.0670  -14.6220 C.2     1  UNL1        0.1020
     16  C         24.7190  -21.1700  -15.0760 C.2     1  UNL1        0.1040
     17  O         27.0760  -20.6470  -15.4110 O.2     1  UNL1       -0.3460
     18  C         23.7150  -21.6430  -14.2270 C.2     1  UNL1        0.0690
     19  O         24.3380  -20.8310  -16.3520 O.2     1  UNL1       -0.3460
     20  C         25.3500  -20.0650  -17.0150 C.3     1  UNL1        0.2020
     21  C         26.7210  -20.6860  -16.7990 C.3     1  UNL1        0.2020
     22  S         17.1740  -22.6000   -9.5140 S.O2    1  UNL1        0.2630
     23  O         16.9560  -21.6780  -10.6090 O.2     1  UNL1       -0.2000
     24  O         16.3720  -23.7970   -9.3990 O.2     1  UNL1       -0.2000
     25  N         17.0240  -21.6880   -8.1040 N.pl3   1  UNL1       -0.2800
     26  H         17.6510  -20.8870   -8.0910 H       1  UNL1        0.1790
     27  C         16.6740  -22.3050   -6.8650 C.2     1  UNL1        0.0480
     28  C         15.4660  -22.9980   -6.7520 C.2     1  UNL1        0.0310
     29  C         15.1110  -23.6220   -5.5560 C.2     1  UNL1        0.0090
     30  C         15.9630  -23.5630   -4.4510 C.2     1  UNL1       -0.0610
     31  C         15.5760  -24.2080   -3.1540 C.3     1  UNL1        0.0480
     32  C         17.1560  -22.8350   -4.5530 C.2     1  UNL1        0.0150
     33  C         17.5200  -22.1900   -5.7480 C.2     1  UNL1       -0.0340
     34  C         18.8150  -21.4260   -5.7860 C.3     1  UNL1        0.0500
@<TRIPOS>BOND
     1    20    21    1
     2    20    19    1
     3    21    17    1
     4    19    16    1
     5    17    15    1
     6    16    15    2
     7    16    18    1
     8    15    14    1
     9    18    12    2
    10    14    13    2
    11    12    13    1
    12    12    10    1
    13     9     8    2
    14    10     8   am
    15    10    11    1
    16     8     3    1
    17     3     2    1
    18     3     4    2
    19    23    22    2
    20     2     1    2
    21     4     5    1
    22     1    22    1
    23     1     6    1
    24    22    24    2
    25    22    25    1
    26     5     6    2
    27     6     7    1
    28    25    26    1
    29    25    27    1
    30    27    28    2
    31    27    33    1
    32    28    29    1
    33    34    33    1
    34    33    32    2
    35    29    30    2
    36    32    30    1
    37    30    31    1
