@<TRIPOS>MOLECULE
53053_out_ligand_01.pdbqt
 31 33 0 0 0
SMALL
GASTEIGER

@<TRIPOS>ATOM
      1  C         19.4390  -22.7200  -10.1280 C.2     1  UNL1        0.0330
      2  C         18.6850  -21.9370  -11.0070 C.2     1  UNL1        0.0170
      3  C         17.3030  -21.8270  -10.8350 C.2     1  UNL1        0.0090
      4  C         16.6410  -22.5000   -9.7910 C.2     1  UNL1       -0.0390
      5  C         15.1540  -22.3190   -9.6670 C.3     1  UNL1        0.0500
      6  C         17.4140  -23.2710   -8.8990 C.2     1  UNL1        0.0860
      7  C         18.8080  -23.3640   -9.0610 C.2     1  UNL1        0.0420
      8  C         20.9120  -22.8660  -10.2810 C.2     1  UNL1        0.2560
      9  N         21.4930  -21.9800  -11.1710 N.am    1  UNL1       -0.3230
     10  H         20.8680  -21.3930  -11.7050 H       1  UNL1        0.1690
     11  O         21.4740  -23.7540   -9.6540 O.2     1  UNL1       -0.2670
     12  C         22.8630  -21.8650  -11.4910 C.2     1  UNL1        0.0360
     13  C         23.7340  -21.5210  -10.4520 C.2     1  UNL1        0.0300
     14  C         25.1070  -21.3910  -10.6800 C.2     1  UNL1        0.0110
     15  C         25.6410  -21.6030  -11.9570 C.2     1  UNL1       -0.0400
     16  C         27.1200  -21.4570  -12.1780 C.3     1  UNL1        0.0500
     17  C         24.7650  -21.9510  -12.9960 C.2     1  UNL1        0.0420
     18  C         23.3890  -22.0820  -12.7650 C.2     1  UNL1        0.0530
     19 CL         25.3460  -22.2350  -14.6000 Cl      1  UNL1       -0.0840
     20  S         16.6980  -24.1450   -7.5090 S.O2    1  UNL1        0.2630
     21  O         15.5720  -24.9160   -7.9890 O.2     1  UNL1       -0.2000
     22  O         17.7650  -24.7930   -6.7750 O.2     1  UNL1       -0.2000
     23  N         16.1400  -22.8940   -6.5240 N.pl3   1  UNL1       -0.2800
     24  H         15.1340  -22.9160   -6.3890 H       1  UNL1        0.1790
     25  C         16.9660  -22.3560   -5.4920 C.2     1  UNL1        0.0480
     26  C         18.0380  -21.5210   -5.8210 C.2     1  UNL1        0.0300
     27  C         18.8740  -21.0130   -4.8280 C.2     1  UNL1        0.0020
     28  C         18.6350  -21.3260   -3.4940 C.2     1  UNL1        0.0010
     29  C         17.5540  -22.1400   -3.1540 C.2     1  UNL1        0.0090
     30  C         16.7010  -22.6580   -4.1440 C.2     1  UNL1       -0.0350
     31  C         15.5520  -23.5300   -3.7250 C.3     1  UNL1        0.0500
@<TRIPOS>BOND
     1    19    17    1
     2    17    18    1
     3    17    15    2
     4    18    12    2
     5    16    15    1
     6    15    14    1
     7    10     9    1
     8    12     9    1
     9    12    13    1
    10     9     8   am
    11     2     3    1
    12     2     1    2
    13     3     4    2
    14    14    13    2
    15     8     1    1
    16     8    11    2
    17     1     7    1
    18     4     5    1
    19     4     6    1
    20     7     6    2
    21     6    20    1
    22    21    20    2
    23    20    22    2
    24    20    23    1
    25    23    24    1
    26    23    25    1
    27    26    25    2
    28    26    27    1
    29    25    30    1
    30    27    28    2
    31    30    31    1
    32    30    29    2
    33    28    29    1
