@<TRIPOS>MOLECULE
53062_out_ligand_01.pdbqt
 40 43 0 0 0
SMALL
GASTEIGER

@<TRIPOS>ATOM
      1  C         17.6260  -22.9090   -5.7790 C.2     1  UNL1        0.0860
      2  C         18.8440  -22.6800   -6.4400 C.2     1  UNL1        0.0420
      3  C         19.6460  -21.6010   -6.0660 C.2     1  UNL1        0.0330
      4  C         19.2510  -20.7550   -5.0290 C.2     1  UNL1        0.0170
      5  C         18.0460  -20.9900   -4.3640 C.2     1  UNL1        0.0090
      6  C         17.2190  -22.0710   -4.7200 C.2     1  UNL1       -0.0390
      7  C         15.9310  -22.2460   -3.9650 C.3     1  UNL1        0.0500
      8  C         20.9280  -21.3750   -6.7780 C.2     1  UNL1        0.2560
      9  O         21.6190  -20.4280   -6.4330 O.2     1  UNL1       -0.2670
     10  N         21.1980  -22.3110   -7.7580 N.am    1  UNL1       -0.3230
     11  H         20.5640  -23.0960   -7.8270 H       1  UNL1        0.1690
     12  C         22.3040  -22.3370   -8.6330 C.2     1  UNL1        0.0350
     13  C         22.7750  -21.2160   -9.3220 C.2     1  UNL1        0.0310
     14  C         23.8710  -21.3210  -10.1820 C.2     1  UNL1        0.0270
     15  C         24.4980  -22.5580  -10.3590 C.2     1  UNL1        0.0740
     16  C         24.0480  -23.6850   -9.6730 C.2     1  UNL1        0.0270
     17  C         22.9490  -23.5700   -8.8160 C.2     1  UNL1        0.0310
     18  S         25.9040  -22.6610  -11.4380 S.O2    1  UNL1        0.2430
     19  O         26.3600  -24.0350  -11.4750 O.2     1  UNL1       -0.2060
     20  O         26.7940  -21.5790  -11.0770 O.2     1  UNL1       -0.2060
     21  N         25.2150  -22.3110  -12.9670 N.3     1  UNL1       -0.2060
     22  C         23.7390  -22.4370  -13.0500 C.3     1  UNL1        0.1070
     23  C         23.1390  -21.3460  -13.9480 C.3     1  UNL1        0.0150
     24  C         24.1250  -20.5650  -14.8160 C.3     1  UNL1        0.0010
     25  C         24.8820  -21.3900  -15.8580 C.3     1  UNL1        0.0010
     26  C         25.2530  -22.8150  -15.4450 C.3     1  UNL1        0.0150
     27  C         25.9580  -22.9420  -14.0940 C.3     1  UNL1        0.1070
     28  S         16.5970  -24.2390   -6.3980 S.O2    1  UNL1        0.2630
     29  O         15.4470  -24.3600   -5.5280 O.2     1  UNL1       -0.2000
     30  O         17.4490  -25.3860   -6.6360 O.2     1  UNL1       -0.2000
     31  N         16.1080  -23.6850   -7.9070 N.pl3   1  UNL1       -0.2810
     32  H         15.2330  -24.0940   -8.2220 H       1  UNL1        0.1790
     33  C         17.0450  -23.2420   -8.8820 C.2     1  UNL1        0.0430
     34  C         18.2620  -23.8850   -9.0860 C.2     1  UNL1        0.0300
     35  C         19.1570  -23.4000  -10.0410 C.2     1  UNL1        0.0090
     36  C         18.8570  -22.2550  -10.7930 C.2     1  UNL1       -0.0560
     37  C         19.8600  -21.7550  -11.7990 C.3     1  UNL1        0.0490
     38  C         17.6400  -21.5850  -10.5700 C.2     1  UNL1       -0.0540
     39  C         16.7420  -22.0900   -9.6120 C.2     1  UNL1        0.0370
     40  C         17.2780  -20.3400  -11.3340 C.3     1  UNL1        0.0490
@<TRIPOS>BOND
     1    25    26    1
     2    25    24    1
     3    26    27    1
     4    24    23    1
     5    27    21    1
     6    23    22    1
     7    22    21    1
     8    21    18    1
     9    37    36    1
    10    19    18    2
    11    18    20    2
    12    18    15    1
    13    40    38    1
    14    36    38    2
    15    36    35    1
    16    38    39    1
    17    15    14    2
    18    15    16    1
    19    14    13    1
    20    35    34    2
    21    16    17    2
    22    39    33    2
    23    13    12    2
    24    34    33    1
    25    33    31    1
    26    17    12    1
    27    12    10    1
    28    32    31    1
    29    31    28    1
    30    11    10    1
    31    10     8   am
    32     8     9    2
    33     8     3    1
    34    30    28    2
    35     2     3    1
    36     2     1    2
    37    28     1    1
    38    28    29    2
    39     3     4    2
    40     1     6    1
    41     4     5    1
    42     6     5    2
    43     6     7    1
