@<TRIPOS>MOLECULE
53070_out_ligand_01.pdbqt
 34 36 0 0 0
SMALL
GASTEIGER

@<TRIPOS>ATOM
      1  C         17.4300  -22.9920   -9.1080 C.2     1  UNL1        0.0860
      2  C         18.8200  -22.9630   -9.3100 C.2     1  UNL1        0.0420
      3  C         19.3640  -22.1940  -10.3410 C.2     1  UNL1        0.0330
      4  C         18.5240  -21.4410  -11.1660 C.2     1  UNL1        0.0170
      5  C         17.1410  -21.4760  -10.9690 C.2     1  UNL1        0.0090
      6  C         16.5700  -22.2450   -9.9390 C.2     1  UNL1       -0.0390
      7  C         15.0730  -22.2400   -9.7980 C.3     1  UNL1        0.0500
      8  C         20.8430  -22.1710  -10.5100 C.2     1  UNL1        0.2560
      9  O         21.5420  -22.2110   -9.5070 O.2     1  UNL1       -0.2670
     10  N         21.2750  -22.1370  -11.8240 N.am    1  UNL1       -0.3230
     11  H         20.5670  -22.2480  -12.5390 H       1  UNL1        0.1690
     12  C         22.6060  -22.0690  -12.2830 C.2     1  UNL1        0.0350
     13  C         22.8400  -21.3530  -13.4600 C.2     1  UNL1        0.0310
     14  C         24.1320  -21.2370  -13.9750 C.2     1  UNL1        0.0270
     15  C         25.2100  -21.8340  -13.3170 C.2     1  UNL1        0.0490
     16 CL         26.7750  -21.6430  -14.0190 Cl      1  UNL1       -0.0830
     17  C         25.0040  -22.5520  -12.1350 C.2     1  UNL1        0.0710
     18  C         23.6900  -22.6600  -11.6280 C.2     1  UNL1        0.0470
     19  C         26.1480  -23.2000  -11.4020 C.3     1  UNL1        0.4190
     20  F         26.7630  -24.1730  -12.1320 F       1  UNL1       -0.1660
     21  F         25.7740  -23.8060  -10.2380 F       1  UNL1       -0.1660
     22  F         27.1190  -22.3150  -11.0480 F       1  UNL1       -0.1660
     23  S         16.8200  -24.0270   -7.7780 S.O2    1  UNL1        0.2630
     24  O         15.7330  -24.8320   -8.2970 O.2     1  UNL1       -0.2000
     25  O         17.9560  -24.6600   -7.1430 O.2     1  UNL1       -0.2000
     26  N         16.1310  -22.9210   -6.7070 N.pl3   1  UNL1       -0.2810
     27  H         15.4620  -22.3030   -7.1600 H       1  UNL1        0.1790
     28  C         16.9090  -22.4000   -5.6360 C.2     1  UNL1        0.0430
     29  C         16.6070  -22.6990   -4.3090 C.2     1  UNL1        0.0300
     30  C         17.4120  -22.2030   -3.2840 C.2     1  UNL1        0.0030
     31  C         18.5170  -21.4060   -3.5850 C.2     1  UNL1        0.0070
     32  C         18.8300  -21.1020   -4.9150 C.2     1  UNL1       -0.0600
     33  C         19.9990  -20.2170   -5.2360 C.3     1  UNL1        0.0480
     34  C         18.0080  -21.5920   -5.9380 C.2     1  UNL1        0.0370
@<TRIPOS>BOND
     1    16    15    1
     2    14    13    1
     3    14    15    2
     4    13    12    2
     5    15    17    1
     6    11    10    1
     7    12    10    1
     8    12    18    1
     9    17    18    2
    10    17    19    1
    11    20    19    1
    12    10     8   am
    13    19    22    1
    14    19    21    1
    15     4     5    2
    16     4     3    1
    17     5     6    1
    18     8     3    1
    19     8     9    2
    20     3     2    2
    21     6     7    1
    22     6     1    2
    23     2     1    1
    24     1    23    1
    25    24    23    2
    26    23    25    2
    27    23    26    1
    28    27    26    1
    29    26    28    1
    30    34    28    2
    31    34    32    1
    32    28    29    1
    33    33    32    1
    34    32    31    2
    35    29    30    2
    36    31    30    1
