@<TRIPOS>MOLECULE
5308_out_ligand_01.pdbqt
 36 38 0 0 0
SMALL
GASTEIGER

@<TRIPOS>ATOM
      1  N         23.0170  -22.2020  -10.5860 N.3     1  UNL1       -0.2940
      2  C         22.1100  -21.9030  -11.7270 C.3     1  UNL1        0.1740
      3  C         20.6300  -21.8200  -11.4350 C.2     1  UNL1       -0.0400
      4  C         19.9390  -22.9390  -10.9440 C.2     1  UNL1        0.0090
      5  C         18.5710  -22.8680  -10.6690 C.2     1  UNL1        0.0070
      6  C         17.8630  -21.6820  -10.8920 C.2     1  UNL1       -0.0620
      7  C         16.4020  -21.5970  -10.5620 C.3     1  UNL1        0.0480
      8  C         18.5490  -20.5640  -11.3720 C.2     1  UNL1        0.0070
      9  C         19.9180  -20.6340  -11.6490 C.2     1  UNL1        0.0090
     10  C         22.6430  -21.5960   -9.2700 C.3     1  UNL1        0.2380
     11  C         21.6920  -22.4950   -8.4810 C.2     1  UNL1        0.2400
     12  O         21.8860  -23.7030   -8.3900 O.2     1  UNL1       -0.2710
     13  N         20.7060  -21.7690   -7.8270 N.am    1  UNL1       -0.3260
     14  H         20.7450  -20.7700   -8.0000 H       1  UNL1        0.1690
     15  C         19.6670  -22.2480   -7.0130 C.2     1  UNL1        0.0340
     16  C         19.2820  -21.4440   -5.9300 C.2     1  UNL1        0.0310
     17  C         18.2540  -21.8460   -5.0740 C.2     1  UNL1        0.0270
     18  C         17.6070  -23.0620   -5.3010 C.2     1  UNL1        0.0740
     19  C         17.9670  -23.8640   -6.3840 C.2     1  UNL1        0.0270
     20  C         19.0010  -23.4570   -7.2330 C.2     1  UNL1        0.0310
     21  S         16.2950  -23.5710   -4.2220 S.O2    1  UNL1        0.2390
     22  O         16.8590  -24.3610   -3.1540 O.2     1  UNL1       -0.2060
     23  O         15.1920  -24.0300   -5.0300 O.2     1  UNL1       -0.2060
     24  N         15.8500  -22.1060   -3.5220 N.3     1  UNL1       -0.2250
     25  H         16.5670  -21.8350   -2.8470 H       1  UNL1        0.1360
     26  H         15.6770  -21.3700   -4.2040 H       1  UNL1        0.1360
     27  S         24.6920  -22.1700  -10.9140 S.O2    1  UNL1        0.2610
     28  O         25.1820  -20.8330  -10.6670 O.2     1  UNL1       -0.2000
     29  O         25.2990  -23.3240  -10.2900 O.2     1  UNL1       -0.2000
     30  C         24.7250  -22.4590  -12.6720 C.2     1  UNL1        0.0790
     31  C         24.4100  -21.4260  -13.5590 C.2     1  UNL1        0.0270
     32  C         24.4500  -21.6660  -14.9350 C.2     1  UNL1        0.0250
     33  C         24.8200  -22.9240  -15.4100 C.2     1  UNL1        0.0340
     34 CL         24.8630  -23.2170  -17.1050 Cl      1  UNL1       -0.0840
     35  C         25.1600  -23.9480  -14.5240 C.2     1  UNL1        0.0250
     36  C         25.1210  -23.7140  -13.1480 C.2     1  UNL1        0.0270
@<TRIPOS>BOND
     1    34    33    1
     2    33    32    2
     3    33    35    1
     4    32    31    1
     5    35    36    2
     6    31    30    2
     7    36    30    1
     8    30    27    1
     9     2     3    1
    10     2     1    1
    11     9     3    2
    12     9     8    1
    13     3     4    1
    14     8     6    2
    15     4     5    2
    16    27    28    2
    17    27     1    1
    18    27    29    2
    19     6     5    1
    20     6     7    1
    21     1    10    1
    22    10    11    1
    23    11    12    2
    24    11    13   am
    25    14    13    1
    26    13    15    1
    27    20    15    2
    28    20    19    1
    29    15    16    1
    30    19    18    2
    31    16    17    2
    32    18    17    1
    33    18    21    1
    34    23    21    2
    35    21    24    1
    36    21    22    2
    37    26    24    1
    38    24    25    1
