@<TRIPOS>MOLECULE
53098_out_ligand_01.pdbqt
 43 46 0 0 0
SMALL
GASTEIGER

@<TRIPOS>ATOM
      1  N         21.1120  -22.2950   -7.8510 N.am    1  UNL1       -0.3230
      2  C         20.8970  -21.4130   -6.8080 C.2     1  UNL1        0.2560
      3  O         21.6200  -20.4890   -6.4580 O.2     1  UNL1       -0.2670
      4  H         20.3560  -22.9230   -8.0900 H       1  UNL1        0.1690
      5  C         19.6170  -21.6100   -6.0710 C.2     1  UNL1        0.0340
      6  C         19.2460  -20.7810   -5.0060 C.2     1  UNL1        0.0190
      7  C         18.0260  -20.9880   -4.3550 C.2     1  UNL1        0.0260
      8  C         17.1600  -22.0120   -4.7630 C.2     1  UNL1        0.0570
      9 CL         15.6680  -22.1470   -3.9060 Cl      1  UNL1       -0.0830
     10  C         17.5250  -22.8270   -5.8370 C.2     1  UNL1        0.1020
     11  C         18.7510  -22.6250   -6.4920 C.2     1  UNL1        0.0440
     12  S         16.4730  -24.1350   -6.4130 S.O2    1  UNL1        0.2640
     13  O         15.2950  -24.1520   -5.5720 O.2     1  UNL1       -0.2000
     14  O         17.2820  -25.3290   -6.5520 O.2     1  UNL1       -0.2000
     15  N         15.9890  -23.6300   -7.9470 N.pl3   1  UNL1       -0.2810
     16  H         15.1040  -23.1260   -7.9150 H       1  UNL1        0.1790
     17  C         16.9600  -23.2110   -8.9030 C.2     1  UNL1        0.0430
     18  C         18.1400  -23.9140   -9.1160 C.2     1  UNL1        0.0300
     19  C         19.0760  -23.4430  -10.0380 C.2     1  UNL1        0.0090
     20  C         18.8390  -22.2720  -10.7730 C.2     1  UNL1       -0.0560
     21  C         19.8780  -21.7920  -11.7500 C.3     1  UNL1        0.0490
     22  C         17.6270  -21.5790  -10.5880 C.2     1  UNL1       -0.0540
     23  C         17.3150  -20.3250  -11.3570 C.3     1  UNL1        0.0490
     24  C         16.6970  -22.0610   -9.6510 C.2     1  UNL1        0.0370
     25  C         22.2430  -22.3570   -8.6940 C.2     1  UNL1        0.0350
     26  C         22.7630  -21.2570   -9.3830 C.2     1  UNL1        0.0310
     27  C         23.8900  -21.3970  -10.1990 C.2     1  UNL1        0.0270
     28  C         24.4940  -22.6480  -10.3390 C.2     1  UNL1        0.0800
     29  C         24.0040  -23.7490   -9.6360 C.2     1  UNL1        0.0270
     30  C         22.8780  -23.6000   -8.8200 C.2     1  UNL1        0.0310
     31  S         25.9380  -22.8240  -11.3630 S.O2    1  UNL1        0.2630
     32  O         26.5560  -21.5220  -11.4950 O.2     1  UNL1       -0.2000
     33  O         26.6880  -23.9560  -10.8560 O.2     1  UNL1       -0.2000
     34  N         25.3130  -23.3170  -12.8480 N.pl3   1  UNL1       -0.2800
     35  H         24.4440  -23.8360  -12.7520 H       1  UNL1        0.1790
     36  C         25.4980  -22.5120  -14.0100 C.2     1  UNL1        0.0480
     37  C         26.6930  -22.6000  -14.7280 C.2     1  UNL1        0.0310
     38  C         26.9060  -21.8000  -15.8510 C.2     1  UNL1        0.0090
     39  C         25.9190  -20.9120  -16.2800 C.2     1  UNL1       -0.0610
     40  C         26.1450  -20.0270  -17.4700 C.3     1  UNL1        0.0480
     41  C         24.7200  -20.8260  -15.5590 C.2     1  UNL1        0.0150
     42  C         24.4940  -21.6240  -14.4240 C.2     1  UNL1       -0.0340
     43  C         23.1840  -21.5010  -13.6960 C.3     1  UNL1        0.0500
@<TRIPOS>BOND
     1    40    39    1
     2    39    38    2
     3    39    41    1
     4    38    37    1
     5    41    42    2
     6    37    36    2
     7    42    36    1
     8    42    43    1
     9    36    34    1
    10    34    35    1
    11    34    31    1
    12    21    20    1
    13    32    31    2
    14    31    33    2
    15    31    28    1
    16    23    22    1
    17    20    22    2
    18    20    19    1
    19    22    24    1
    20    28    27    2
    21    28    29    1
    22    27    26    1
    23    19    18    2
    24    24    17    2
    25    29    30    2
    26    26    25    2
    27    18    17    1
    28    17    15    1
    29    30    25    1
    30    25     1    1
    31     4     1    1
    32    15    16    1
    33    15    12    1
    34     1     2   am
    35     2     3    2
    36     2     5    1
    37    14    12    2
    38    11     5    2
    39    11    10    1
    40    12    10    1
    41    12    13    2
    42     5     6    1
    43    10     8    2
    44     6     7    2
    45     8     7    1
    46     8     9    1
