@<TRIPOS>MOLECULE
53094_out_ligand_01.pdbqt
 31 34 0 0 0
SMALL
GASTEIGER

@<TRIPOS>ATOM
      1  C         18.9030  -22.3740  -10.0410 C.2     1  UNL1        0.0810
      2  C         20.2420  -22.7600   -9.8650 C.2     1  UNL1        0.0420
      3  C         21.2470  -22.2080  -10.6670 C.2     1  UNL1        0.0330
      4  C         20.9060  -21.2930  -11.6670 C.2     1  UNL1        0.0170
      5  C         19.5720  -20.9150  -11.8470 C.2     1  UNL1        0.0090
      6  C         18.5510  -21.4400  -11.0360 C.2     1  UNL1       -0.0390
      7  C         17.1350  -21.0060  -11.2980 C.3     1  UNL1        0.0500
      8  S         17.6770  -23.1240   -8.9710 S.O2    1  UNL1        0.2460
      9  O         18.3430  -24.1340   -8.1760 O.2     1  UNL1       -0.2060
     10  O         16.5190  -23.4340   -9.7780 O.2     1  UNL1       -0.2060
     11  N         17.3490  -21.8190   -7.9190 N.pl3   1  UNL1       -0.1810
     12  H         18.1200  -21.1580   -7.9990 H       1  UNL1        0.1460
     13  C         17.1130  -22.2020   -6.5540 C.2     1  UNL1        0.0290
     14  C         18.0360  -21.9120   -5.5370 C.2     1  UNL1       -0.0400
     15  C         17.7670  -22.3700   -4.2380 C.2     1  UNL1        0.0090
     16  C         19.3190  -21.1690   -5.7880 C.3     1  UNL1        0.0500
     17  C         16.6050  -23.0930   -3.9550 C.2     1  UNL1        0.0070
     18  C         15.6820  -23.3700   -4.9660 C.2     1  UNL1       -0.0600
     19  C         14.4560  -24.1840   -4.6860 C.3     1  UNL1        0.0480
     20  C         15.9520  -22.9300   -6.2670 C.2     1  UNL1        0.0310
     21  C         22.6530  -22.6500  -10.4470 C.2     1  UNL1        0.2520
     22  O         22.8860  -23.6280   -9.7470 O.2     1  UNL1       -0.2680
     23  N         23.6370  -21.8840  -11.0410 N.am    1  UNL1       -0.3520
     24  H         23.3950  -20.9650  -11.3840 H       1  UNL1        0.1630
     25  C         25.0380  -22.1970  -10.8540 C.3     1  UNL1        0.0890
     26  C         25.9570  -20.9620  -10.9710 C.3     1  UNL1        0.0300
     27  C         26.9740  -21.3870  -12.0470 C.3     1  UNL1       -0.0120
     28  C         26.2750  -21.3790  -13.4170 C.3     1  UNL1        0.0050
     29  C         27.1210  -22.8830  -11.7750 C.3     1  UNL1        0.0110
     30  C         25.3610  -22.6100  -13.3430 C.3     1  UNL1        0.0070
     31  C         25.6220  -23.1520  -11.9250 C.3     1  UNL1        0.0090
@<TRIPOS>BOND
     1    28    30    1
     2    28    27    1
     3    30    31    1
     4    27    29    1
     5    27    26    1
     6    31    29    1
     7    31    25    1
     8     5     4    2
     9     5     6    1
    10     4     3    1
    11    24    23    1
    12     7     6    1
    13    23    25    1
    14    23    21   am
    15     6     1    2
    16    26    25    1
    17     3    21    1
    18     3     2    2
    19    21    22    2
    20     1     2    1
    21     1     8    1
    22    10     8    2
    23     8     9    2
    24     8    11    1
    25    12    11    1
    26    11    13    1
    27    13    20    2
    28    13    14    1
    29    20    18    1
    30    16    14    1
    31    14    15    2
    32    18    19    1
    33    18    17    2
    34    15    17    1
