@<TRIPOS>MOLECULE
53091_out_ligand_01.pdbqt
 34 36 0 0 0
SMALL
GASTEIGER

@<TRIPOS>ATOM
      1  C         19.8020  -21.8460  -11.3500 C.2     1  UNL1        0.0330
      2  C         18.7080  -21.2460  -11.9800 C.2     1  UNL1        0.0170
      3  C         17.4270  -21.3850  -11.4380 C.2     1  UNL1        0.0090
      4  C         17.2100  -22.1180  -10.2590 C.2     1  UNL1       -0.0390
      5  C         15.8030  -22.2270   -9.7420 C.3     1  UNL1        0.0500
      6  C         18.3150  -22.7450   -9.6500 C.2     1  UNL1        0.0810
      7  C         19.6010  -22.6140  -10.1980 C.2     1  UNL1        0.0420
      8  C         21.1870  -21.7150  -11.8880 C.2     1  UNL1        0.2560
      9  N         22.1410  -22.4660  -11.2360 N.am    1  UNL1       -0.3200
     10  H         21.8370  -23.1220  -10.5230 H       1  UNL1        0.1690
     11  O         21.3690  -21.0050  -12.8660 O.2     1  UNL1       -0.2670
     12  C         23.5290  -22.5350  -11.4970 C.2     1  UNL1        0.0710
     13  C         24.0830  -23.2730  -12.5470 C.2     1  UNL1        0.0680
     14  C         25.4720  -23.2770  -12.7270 C.2     1  UNL1        0.1050
     15  C         26.3090  -22.5510  -11.8700 C.2     1  UNL1        0.0390
     16  C         25.7540  -21.8070  -10.8250 C.2     1  UNL1        0.0410
     17  C         24.3700  -21.7920  -10.6340 C.2     1  UNL1        0.0950
     18  N         26.0650  -24.0470  -13.8280 N.pl3   1  UNL1       -0.1160
     19  O         27.0420  -23.5540  -14.4090 O.2     1  UNL1       -0.5320
     20  O         25.5560  -25.1370  -14.1160 O.2     1  UNL1       -0.5320
     21  O         23.7210  -21.0930   -9.6410 O.2     1  UNL1       -0.3540
     22  C         23.0500  -21.8520   -8.6450 C.3     1  UNL1        0.2100
     23  S         18.1420  -23.7510   -8.1790 S.O2    1  UNL1        0.2460
     24  O         16.8630  -24.4190   -8.2370 O.2     1  UNL1       -0.2060
     25  O         19.3750  -24.4860   -7.9930 O.2     1  UNL1       -0.2060
     26  N         18.1360  -22.5390   -6.9710 N.pl3   1  UNL1       -0.1810
     27  H         19.0270  -22.6300   -6.4790 H       1  UNL1        0.1460
     28  C         17.0540  -22.6750   -6.0370 C.2     1  UNL1        0.0230
     29  C         17.2670  -23.3690   -4.8470 C.2     1  UNL1        0.0240
     30  C         16.2450  -23.4590   -3.9040 C.2     1  UNL1        0.0020
     31  C         15.0160  -22.8440   -4.1430 C.2     1  UNL1        0.0070
     32  C         14.7940  -22.1420   -5.3370 C.2     1  UNL1       -0.0600
     33  C         13.4870  -21.4380   -5.5700 C.3     1  UNL1        0.0480
     34  C         15.8290  -22.0470   -6.2780 C.2     1  UNL1        0.0310
@<TRIPOS>BOND
     1    19    18    2
     2    20    18    2
     3    18    14    1
     4    11     8    2
     5    14    13    1
     6    14    15    2
     7    13    12    2
     8     2     3    1
     9     2     1    2
    10     8     1    1
    11     8     9   am
    12    15    16    1
    13    12     9    1
    14    12    17    1
    15     3     4    2
    16     1     7    1
    17     9    10    1
    18    16    17    2
    19    17    21    1
    20     4     5    1
    21     4     6    1
    22     7     6    2
    23     6    23    1
    24    21    22    1
    25    24    23    2
    26    23    25    2
    27    23    26    1
    28    26    27    1
    29    26    28    1
    30    34    28    2
    31    34    32    1
    32    28    29    1
    33    33    32    1
    34    32    31    2
    35    29    30    2
    36    31    30    1
