@<TRIPOS>MOLECULE
53107_out_ligand_01.pdbqt
 31 33 0 0 0
SMALL
GASTEIGER

@<TRIPOS>ATOM
      1  C         17.6350  -23.6000   -8.5540 C.2     1  UNL1        0.0970
      2  C         19.0330  -23.7480   -8.4890 C.2     1  UNL1        0.0430
      3  C         19.8610  -23.1580   -9.4550 C.2     1  UNL1        0.0330
      4  C         19.2830  -22.3970  -10.4780 C.2     1  UNL1        0.0190
      5  C         17.8920  -22.2540  -10.5410 C.2     1  UNL1        0.0260
      6  C         17.0610  -22.8540   -9.5850 C.2     1  UNL1        0.0570
      7 CL         15.3690  -22.6150   -9.7980 Cl      1  UNL1       -0.0830
      8  S         16.6590  -24.3410   -7.2680 S.O2    1  UNL1        0.2470
      9  O         17.5410  -25.0880   -6.4000 O.2     1  UNL1       -0.2050
     10  O         15.5290  -24.9820   -7.9110 O.2     1  UNL1       -0.2050
     11  N         16.0280  -22.9640   -6.4730 N.pl3   1  UNL1       -0.1810
     12  H         15.1440  -23.2450   -6.0440 H       1  UNL1        0.1460
     13  C         16.9090  -22.4360   -5.4600 C.2     1  UNL1        0.0290
     14  C         16.6840  -22.7000   -4.1030 C.2     1  UNL1       -0.0400
     15  C         17.5340  -22.1140   -3.1530 C.2     1  UNL1        0.0090
     16  C         15.5520  -23.5640   -3.6340 C.3     1  UNL1        0.0500
     17  C         18.5940  -21.2940   -3.5490 C.2     1  UNL1        0.0070
     18  C         18.8140  -21.0260   -4.9030 C.2     1  UNL1       -0.0600
     19  C         19.9690  -20.1700   -5.3260 C.3     1  UNL1        0.0480
     20  C         17.9690  -21.6070   -5.8550 C.2     1  UNL1        0.0310
     21  C         21.3350  -23.3420   -9.3260 C.2     1  UNL1        0.2510
     22  O         21.7920  -24.4630   -9.1320 O.2     1  UNL1       -0.2680
     23  N         22.1240  -22.2180   -9.4670 N.am    1  UNL1       -0.3530
     24  H         21.7280  -21.3720   -9.8550 H       1  UNL1        0.1630
     25  C         23.5690  -22.3220   -9.4830 C.3     1  UNL1        0.1620
     26  C         24.1270  -21.8800  -10.8050 C.2     1  UNL1       -0.0230
     27  C         23.4340  -22.0860  -12.0020 C.2     1  UNL1        0.0120
     28  C         23.9970  -21.6670  -13.2070 C.2     1  UNL1        0.0200
     29  C         25.2420  -21.0610  -13.1740 C.2     1  UNL1        0.1160
     30  N         25.9460  -20.8580  -12.0400 N.2     1  UNL1       -0.2730
     31  C         25.3760  -21.2700  -10.8840 C.2     1  UNL1        0.1240
@<TRIPOS>BOND
     1    28    29    2
     2    28    27    1
     3    29    30    1
     4    30    31    2
     5    27    26    2
     6    31    26    1
     7    26    25    1
     8     5     4    2
     9     5     6    1
    10     4     3    1
    11    24    23    1
    12     7     6    1
    13     6     1    2
    14    25    23    1
    15    23    21   am
    16     3    21    1
    17     3     2    2
    18    21    22    2
    19     1     2    1
    20     1     8    1
    21    10     8    2
    22     8    11    1
    23     8     9    2
    24    11    12    1
    25    11    13    1
    26    20    13    2
    27    20    18    1
    28    13    14    1
    29    19    18    1
    30    18    17    2
    31    14    16    1
    32    14    15    2
    33    17    15    1
