@<TRIPOS>MOLECULE
53124_out_ligand_01.pdbqt
 43 46 0 0 0
SMALL
GASTEIGER

@<TRIPOS>ATOM
      1  C         20.9920  -21.4070   -6.8650 C.2     1  UNL1        0.2560
      2  O         21.7330  -20.5170   -6.4660 O.2     1  UNL1       -0.2670
      3  N         21.2190  -22.2820   -7.9120 N.am    1  UNL1       -0.3230
      4  H         20.4510  -22.8890   -8.1730 H       1  UNL1        0.1690
      5  C         19.6650  -21.5680   -6.2130 C.2     1  UNL1        0.0330
      6  C         19.3740  -20.9680   -4.9860 C.2     1  UNL1        0.0170
      7  C         18.1240  -21.1700   -4.3930 C.2     1  UNL1        0.0090
      8  C         17.1360  -21.9520   -5.0180 C.2     1  UNL1       -0.0390
      9  C         15.8390  -22.1590   -4.2890 C.3     1  UNL1        0.0500
     10  C         17.4390  -22.5360   -6.2650 C.2     1  UNL1        0.0860
     11  C         18.6990  -22.3440   -6.8550 C.2     1  UNL1        0.0420
     12  S         16.2860  -23.5860   -7.1450 S.O2    1  UNL1        0.2630
     13  O         15.1320  -22.7860   -7.5030 O.2     1  UNL1       -0.2000
     14  O         16.1100  -24.8020   -6.3810 O.2     1  UNL1       -0.2000
     15  N         17.0910  -23.9440   -8.5810 N.pl3   1  UNL1       -0.2800
     16  H         16.9200  -24.8950   -8.8980 H       1  UNL1        0.1790
     17  C         17.3850  -22.9320   -9.5470 C.2     1  UNL1        0.0490
     18  C         16.4410  -21.9400   -9.8300 C.2     1  UNL1        0.0310
     19  C         16.6870  -20.9850  -10.8100 C.2     1  UNL1        0.0030
     20  C         17.8980  -20.9930  -11.4940 C.2     1  UNL1        0.0070
     21  C         18.8870  -21.9460  -11.1960 C.2     1  UNL1       -0.0540
     22  C         20.1830  -21.8860  -11.9590 C.3     1  UNL1        0.0490
     23  C         18.6370  -22.9260  -10.2050 C.2     1  UNL1       -0.0290
     24  C         19.6750  -23.9680   -9.8710 C.3     1  UNL1        0.0510
     25  C         22.3580  -22.3450   -8.7410 C.2     1  UNL1        0.0350
     26  C         23.0590  -23.5570   -8.7640 C.2     1  UNL1        0.0310
     27  C         24.1890  -23.7140   -9.5720 C.2     1  UNL1        0.0270
     28  C         24.6180  -22.6490  -10.3670 C.2     1  UNL1        0.0750
     29  C         23.9440  -21.4280  -10.3370 C.2     1  UNL1        0.0270
     30  C         22.8120  -21.2790   -9.5280 C.2     1  UNL1        0.0310
     31  S         26.0570  -22.8330  -11.3910 S.O2    1  UNL1        0.2450
     32  O         26.3750  -21.5260  -11.9190 O.2     1  UNL1       -0.2060
     33  O         27.0350  -23.6120  -10.6650 O.2     1  UNL1       -0.2060
     34  N         25.4720  -23.7500  -12.6970 N.pl3   1  UNL1       -0.1800
     35  H         24.5130  -24.0310  -12.4870 H       1  UNL1        0.1460
     36  C         25.6810  -23.1980  -14.0020 C.2     1  UNL1        0.0440
     37  C         26.8540  -23.5240  -14.6900 C.2     1  UNL1        0.0280
     38  C         27.1210  -22.9330  -15.9300 C.2     1  UNL1        0.0260
     39  C         26.2210  -22.0150  -16.4750 C.2     1  UNL1        0.0350
     40 CL         26.5670  -21.2840  -17.9970 Cl      1  UNL1       -0.0840
     41  C         25.0500  -21.6790  -15.7960 C.2     1  UNL1        0.0490
     42  C         24.7830  -22.2690  -14.5580 C.2     1  UNL1        0.0570
     43 CL         23.3310  -21.8280  -13.7290 Cl      1  UNL1       -0.0820
@<TRIPOS>BOND
     1    40    39    1
     2    39    38    2
     3    39    41    1
     4    38    37    1
     5    41    42    2
     6    37    36    2
     7    42    36    1
     8    42    43    1
     9    36    34    1
    10    34    35    1
    11    34    31    1
    12    22    21    1
    13    32    31    2
    14    20    21    2
    15    20    19    1
    16    31    33    2
    17    31    28    1
    18    21    23    1
    19    19    18    2
    20    28    29    2
    21    28    27    1
    22    29    30    1
    23    23    24    1
    24    23    17    2
    25    18    17    1
    26    27    26    2
    27    17    15    1
    28    30    25    2
    29    16    15    1
    30    26    25    1
    31    25     3    1
    32    15    12    1
    33     4     3    1
    34     3     1   am
    35    13    12    2
    36    12    14    2
    37    12    10    1
    38     1     2    2
    39     1     5    1
    40    11    10    1
    41    11     5    2
    42    10     8    2
    43     5     6    1
    44     8     7    1
    45     8     9    1
    46     6     7    2
