@<TRIPOS>MOLECULE
53122_out_ligand_01.pdbqt
 31 33 0 0 0
SMALL
GASTEIGER

@<TRIPOS>ATOM
      1  C         17.3170  -23.0930   -8.9110 C.2     1  UNL1        0.0810
      2  C         18.7060  -23.2970   -8.9340 C.2     1  UNL1        0.0420
      3  C         19.4710  -22.8000   -9.9930 C.2     1  UNL1        0.0330
      4  C         18.8530  -22.0840  -11.0220 C.2     1  UNL1        0.0170
      5  C         17.4700  -21.8860  -11.0000 C.2     1  UNL1        0.0090
      6  C         16.6810  -22.3810   -9.9470 C.2     1  UNL1       -0.0390
      7  C         15.1960  -22.1410   -9.9950 C.3     1  UNL1        0.0500
      8  S         16.4030  -23.7880   -7.5370 S.O2    1  UNL1        0.2460
      9  O         15.7960  -25.0220   -7.9870 O.2     1  UNL1       -0.2060
     10  O         15.6150  -22.7260   -6.9510 O.2     1  UNL1       -0.2060
     11  N         17.6860  -24.2290   -6.5000 N.pl3   1  UNL1       -0.1810
     12  H         17.4540  -25.1420   -6.1070 H       1  UNL1        0.1460
     13  C         17.9330  -23.2780   -5.4540 C.2     1  UNL1        0.0230
     14  C         17.4430  -23.5110   -4.1690 C.2     1  UNL1        0.0240
     15  C         17.6590  -22.5660   -3.1660 C.2     1  UNL1        0.0020
     16  C         18.3470  -21.3850   -3.4520 C.2     1  UNL1        0.0070
     17  C         18.8090  -21.1290   -4.7490 C.2     1  UNL1       -0.0600
     18  C         19.5600  -19.8670   -5.0550 C.3     1  UNL1        0.0480
     19  C         18.6030  -22.0900   -5.7470 C.2     1  UNL1        0.0310
     20  C         20.9430  -23.0170   -9.9710 C.2     1  UNL1        0.2560
     21  O         21.3950  -23.8020   -9.1490 O.2     1  UNL1       -0.2670
     22  N         21.6470  -22.3110  -10.9290 N.am    1  UNL1       -0.3230
     23  H         21.1020  -21.8000  -11.6130 H       1  UNL1        0.1690
     24  C         23.0450  -22.2940  -11.1200 C.2     1  UNL1        0.0360
     25  C         23.9240  -21.5020  -10.3750 C.2     1  UNL1        0.0320
     26  C         25.3000  -21.5370  -10.6270 C.2     1  UNL1        0.0460
     27  C         25.8000  -22.3620  -11.6260 C.2     1  UNL1        0.1380
     28  F         27.1210  -22.3780  -11.8520 F       1  UNL1       -0.2040
     29  C         24.9370  -23.1520  -12.3790 C.2     1  UNL1        0.0740
     30 CL         25.5440  -24.1760  -13.6230 Cl      1  UNL1       -0.0810
     31  C         23.5630  -23.1200  -12.1280 C.2     1  UNL1        0.0560
@<TRIPOS>BOND
     1    30    29    1
     2    29    31    1
     3    29    27    2
     4    31    24    2
     5    28    27    1
     6    27    26    1
     7    23    22    1
     8    24    22    1
     9    24    25    1
    10     4     5    2
    11     4     3    1
    12     5     6    1
    13    22    20   am
    14    26    25    2
    15     7     6    1
    16     3    20    1
    17     3     2    2
    18    20    21    2
    19     6     1    2
    20     2     1    1
    21     1     8    1
    22     9     8    2
    23     8    10    2
    24     8    11    1
    25    11    12    1
    26    11    13    1
    27    19    13    2
    28    19    17    1
    29    13    14    1
    30    18    17    1
    31    17    16    2
    32    14    15    2
    33    16    15    1
