@<TRIPOS>MOLECULE
53169_out_ligand_01.pdbqt
 33 36 0 0 0
SMALL
GASTEIGER

@<TRIPOS>ATOM
      1  C         17.2470  -22.0260   -9.9760 C.3     1  UNL1        0.0500
      2  C         18.6530  -21.9500  -10.5040 C.2     1  UNL1       -0.0390
      3  C         18.8350  -21.5120  -11.8290 C.2     1  UNL1        0.0090
      4  C         20.1100  -21.4330  -12.3980 C.2     1  UNL1        0.0170
      5  C         21.2300  -21.8130  -11.6550 C.2     1  UNL1        0.0330
      6  C         21.0720  -22.2490  -10.3380 C.2     1  UNL1        0.0420
      7  C         19.7920  -22.3150   -9.7590 C.2     1  UNL1        0.0860
      8  C         22.6050  -21.7410  -12.2220 C.2     1  UNL1        0.2560
      9  O         23.5470  -21.9910  -11.4820 O.2     1  UNL1       -0.2670
     10  N         22.6610  -21.4200  -13.5660 N.am    1  UNL1       -0.3230
     11  H         21.7790  -21.3550  -14.0590 H       1  UNL1        0.1690
     12  C         23.8150  -21.2590  -14.3610 C.2     1  UNL1        0.0370
     13  C         24.6200  -20.1040  -14.3460 C.2     1  UNL1        0.0320
     14  C         25.7560  -20.0030  -15.1620 C.2     1  UNL1        0.0420
     15  C         26.0570  -21.0670  -15.9790 C.2     1  UNL1        0.1050
     16  C         25.2750  -22.1960  -16.0030 C.2     1  UNL1        0.1070
     17  O         27.1110  -21.1470  -16.8330 O.2     1  UNL1       -0.3230
     18  C         24.1530  -22.3230  -15.2100 C.2     1  UNL1        0.0690
     19  O         25.7390  -23.1300  -16.8780 O.2     1  UNL1       -0.3230
     20  C         26.9070  -22.4590  -17.3960 C.3     1  UNL1        0.3520
     21  S         19.6960  -22.9180   -8.0750 S.O2    1  UNL1        0.2630
     22  O         20.8970  -22.5020   -7.3820 O.2     1  UNL1       -0.2000
     23  O         19.3310  -24.3180   -8.1090 O.2     1  UNL1       -0.2000
     24  N         18.3660  -22.0970   -7.4400 N.pl3   1  UNL1       -0.2800
     25  H         18.1320  -21.2620   -7.9700 H       1  UNL1        0.1790
     26  C         18.0980  -22.1240   -6.0370 C.2     1  UNL1        0.0490
     27  C         18.8040  -21.2640   -5.1920 C.2     1  UNL1        0.0310
     28  C         18.5230  -21.2270   -3.8310 C.2     1  UNL1        0.0030
     29  C         17.5400  -22.0590   -3.3050 C.2     1  UNL1        0.0070
     30  C         16.8320  -22.9490   -4.1280 C.2     1  UNL1       -0.0540
     31  C         15.7820  -23.8210   -3.4930 C.3     1  UNL1        0.0490
     32  C         17.1230  -23.0020   -5.5120 C.2     1  UNL1       -0.0290
     33  C         16.3860  -23.9520   -6.4230 C.3     1  UNL1        0.0510
@<TRIPOS>BOND
     1    20    19    1
     2    20    17    1
     3    19    16    1
     4    17    15    1
     5    16    15    2
     6    16    18    1
     7    15    14    1
     8    18    12    2
     9    14    13    2
    10    12    13    1
    11    12    10    1
    12    11    10    1
    13    10     8   am
    14     4     3    1
    15     4     5    2
    16     8     5    1
    17     8     9    2
    18     3     2    2
    19     5     6    1
    20     2     1    1
    21     2     7    1
    22     6     7    2
    23     7    21    1
    24    23    21    2
    25    21    24    1
    26    21    22    2
    27    25    24    1
    28    24    26    1
    29    33    32    1
    30    26    32    2
    31    26    27    1
    32    32    30    1
    33    27    28    2
    34    30    31    1
    35    30    29    2
    36    28    29    1
