@<TRIPOS>MOLECULE
53179_out_ligand_01.pdbqt
 31 33 0 0 0
SMALL
GASTEIGER

@<TRIPOS>ATOM
      1  C         16.7770  -20.9570  -11.1800 C.3     1  UNL1        0.0500
      2  C         18.1590  -21.5100  -10.9750 C.2     1  UNL1       -0.0390
      3  C         19.1970  -21.0010  -11.7780 C.2     1  UNL1        0.0090
      4  C         20.5080  -21.4700  -11.6590 C.2     1  UNL1        0.0170
      5  C         20.8030  -22.4790  -10.7420 C.2     1  UNL1        0.0330
      6  C         19.7900  -22.9970   -9.9340 C.2     1  UNL1        0.0420
      7  C         18.4760  -22.5050  -10.0300 C.2     1  UNL1        0.0860
      8  S         17.2900  -23.2360   -8.9040 S.O2    1  UNL1        0.2630
      9  O         18.0290  -24.1600   -8.0660 O.2     1  UNL1       -0.2000
     10  O         16.1250  -23.6840   -9.6310 O.2     1  UNL1       -0.2000
     11  N         16.8550  -21.9480   -7.9060 N.pl3   1  UNL1       -0.2800
     12  H         16.3020  -21.2400   -8.3820 H       1  UNL1        0.1790
     13  C         16.6620  -22.1520   -6.5080 C.2     1  UNL1        0.0490
     14  C         15.4210  -22.6220   -6.0690 C.2     1  UNL1        0.0310
     15  C         15.1750  -22.8110   -4.7120 C.2     1  UNL1        0.0030
     16  C         16.1750  -22.5400   -3.7850 C.2     1  UNL1        0.0070
     17  C         17.4350  -22.0870   -4.2020 C.2     1  UNL1       -0.0540
     18  C         18.4860  -21.8160   -3.1550 C.3     1  UNL1        0.0490
     19  C         17.6900  -21.8780   -5.5810 C.2     1  UNL1       -0.0290
     20  C         19.0570  -21.4050   -6.0090 C.3     1  UNL1        0.0510
     21  C         22.1870  -22.9900  -10.5560 C.2     1  UNL1        0.2560
     22  O         22.4360  -23.5970   -9.5220 O.2     1  UNL1       -0.2670
     23  N         23.0460  -22.7380  -11.6100 N.am    1  UNL1       -0.3230
     24  H         22.6420  -22.3320  -12.4440 H       1  UNL1        0.1690
     25  C         24.4170  -23.0660  -11.6920 C.2     1  UNL1        0.0370
     26  C         25.3400  -22.8280  -10.6700 C.2     1  UNL1        0.0290
     27  C         26.6860  -23.1780  -10.8280 C.2     1  UNL1        0.0050
     28  C         27.1210  -23.7680  -12.0110 C.2     1  UNL1        0.0420
     29  C         26.2030  -24.0000  -13.0260 C.2     1  UNL1        0.1180
     30  F         26.6140  -24.5640  -14.1700 F       1  UNL1       -0.2060
     31  C         24.8620  -23.6560  -12.8800 C.2     1  UNL1        0.0710
@<TRIPOS>BOND
     1    30    29    1
     2    29    31    1
     3    29    28    2
     4    31    25    2
     5    24    23    1
     6    28    27    1
     7     3     4    1
     8     3     2    2
     9    25    23    1
    10    25    26    1
    11     4     5    2
    12    23    21   am
    13     1     2    1
    14     2     7    1
    15    27    26    2
    16     5    21    1
    17     5     6    1
    18    21    22    2
    19     7     6    2
    20     7     8    1
    21    10     8    2
    22     8     9    2
    23     8    11    1
    24    12    11    1
    25    11    13    1
    26    13    14    2
    27    13    19    1
    28    14    15    1
    29    20    19    1
    30    19    17    2
    31    15    16    2
    32    17    16    1
    33    17    18    1
