@<TRIPOS>MOLECULE
53175_out_ligand_01.pdbqt
 42 45 0 0 0
SMALL
GASTEIGER

@<TRIPOS>ATOM
      1  N         22.0530  -22.9600   -9.2520 N.am    1  UNL1       -0.3230
      2  C         22.1530  -22.2300  -10.4210 C.2     1  UNL1        0.2560
      3  O         21.3240  -21.4640  -10.8940 O.2     1  UNL1       -0.2670
      4  H         22.7920  -23.6260   -9.0650 H       1  UNL1        0.1690
      5  C         23.4130  -22.4480  -11.1780 C.2     1  UNL1        0.0330
      6  C         24.5530  -22.9580  -10.5530 C.2     1  UNL1        0.0170
      7  C         25.7270  -23.1370  -11.2880 C.2     1  UNL1        0.0090
      8  C         25.7900  -22.8020  -12.6540 C.2     1  UNL1       -0.0390
      9  C         27.0960  -23.0040  -13.3720 C.3     1  UNL1        0.0500
     10  C         24.6300  -22.2900  -13.2710 C.2     1  UNL1        0.0860
     11  C         23.4500  -22.1080  -12.5320 C.2     1  UNL1        0.0420
     12  S         24.5640  -21.8850  -15.0130 S.O2    1  UNL1        0.2630
     13  O         23.5320  -20.8860  -15.2050 O.2     1  UNL1       -0.2000
     14  O         24.5230  -23.1200  -15.7660 O.2     1  UNL1       -0.2000
     15  N         26.0680  -21.2130  -15.2860 N.pl3   1  UNL1       -0.2800
     16  H         26.8780  -21.8340  -15.1980 H       1  UNL1        0.1790
     17  C         26.2320  -19.8590  -15.6780 C.2     1  UNL1        0.0480
     18  C         26.1140  -19.5160  -17.0290 C.2     1  UNL1        0.0310
     19  C         26.3140  -18.1990  -17.4460 C.2     1  UNL1        0.0090
     20  C         26.6560  -17.2120  -16.5180 C.2     1  UNL1       -0.0610
     21  C         26.8470  -15.7910  -16.9670 C.3     1  UNL1        0.0480
     22  C         26.7730  -17.5610  -15.1650 C.2     1  UNL1        0.0150
     23  C         26.5940  -18.8880  -14.7340 C.2     1  UNL1       -0.0340
     24  C         26.7220  -19.2020  -13.2700 C.3     1  UNL1        0.0500
     25  C         20.9850  -22.9550   -8.3320 C.2     1  UNL1        0.0350
     26  C         20.1270  -24.0650   -8.3470 C.2     1  UNL1        0.0310
     27  C         19.0400  -24.1390   -7.4730 C.2     1  UNL1        0.0270
     28  C         18.8150  -23.1010   -6.5660 C.2     1  UNL1        0.0750
     29  C         19.6540  -21.9860   -6.5440 C.2     1  UNL1        0.0270
     30  C         20.7390  -21.9200   -7.4250 C.2     1  UNL1        0.0310
     31  S         17.4160  -23.1880   -5.4740 S.O2    1  UNL1        0.2450
     32  O         17.7710  -22.4860   -4.2610 O.2     1  UNL1       -0.2060
     33  O         16.9440  -24.5570   -5.4570 O.2     1  UNL1       -0.2060
     34  N         16.2670  -22.3120   -6.3810 N.pl3   1  UNL1       -0.1810
     35  H         16.4890  -21.3210   -6.2480 H       1  UNL1        0.1460
     36  C         16.1970  -22.6600   -7.7660 C.2     1  UNL1        0.0230
     37  C         15.5160  -23.8090   -8.1680 C.2     1  UNL1        0.0240
     38  C         15.4140  -24.1110   -9.5250 C.2     1  UNL1        0.0020
     39  C         15.9770  -23.2560  -10.4760 C.2     1  UNL1        0.0070
     40  C         16.6320  -22.0830  -10.0780 C.2     1  UNL1       -0.0600
     41  C         17.2460  -21.1680  -11.0960 C.3     1  UNL1        0.0480
     42  C         16.7440  -21.7940   -8.7130 C.2     1  UNL1        0.0310
@<TRIPOS>BOND
     1    19    18    1
     2    19    20    2
     3    18    17    2
     4    21    20    1
     5    20    22    1
     6    14    12    2
     7    17    15    1
     8    17    23    1
     9    15    16    1
    10    15    12    1
    11    13    12    2
    12    22    23    2
    13    12    10    1
    14    23    24    1
    15     9     8    1
    16    10     8    2
    17    10    11    1
    18     8     7    1
    19    11     5    2
    20     7     6    2
    21     5     6    1
    22     5     2    1
    23    41    40    1
    24     3     2    2
    25    39    40    2
    26    39    38    1
    27     2     1   am
    28    40    42    1
    29    38    37    2
    30     1     4    1
    31     1    25    1
    32    42    36    2
    33    26    25    2
    34    26    27    1
    35    25    30    1
    36    37    36    1
    37    36    34    1
    38    27    28    2
    39    30    29    2
    40    28    29    1
    41    28    31    1
    42    34    35    1
    43    34    31    1
    44    31    33    2
    45    31    32    2
