@<TRIPOS>MOLECULE
53174_out_ligand_01.pdbqt
 34 36 0 0 0
SMALL
GASTEIGER

@<TRIPOS>ATOM
      1  C         16.4010  -21.0430  -10.9940 C.3     1  UNL1        0.0500
      2  C         17.8120  -21.5550  -10.9070 C.2     1  UNL1       -0.0390
      3  C         18.7750  -20.9800  -11.7590 C.2     1  UNL1        0.0090
      4  C         20.1130  -21.3790  -11.7140 C.2     1  UNL1        0.0170
      5  C         20.5180  -22.3550  -10.8010 C.2     1  UNL1        0.0330
      6  C         19.5810  -22.9470   -9.9540 C.2     1  UNL1        0.0420
      7  C         18.2330  -22.5480   -9.9990 C.2     1  UNL1        0.0860
      8  C         21.9380  -22.7950  -10.7120 C.2     1  UNL1        0.2560
      9  O         22.2320  -23.6260   -9.8620 O.2     1  UNL1       -0.2670
     10  N         22.7900  -22.1550  -11.5970 N.am    1  UNL1       -0.3220
     11  H         22.3840  -21.3820  -12.1070 H       1  UNL1        0.1690
     12  C         24.1850  -22.3540  -11.7560 C.2     1  UNL1        0.0430
     13  C         25.0130  -22.6760  -10.6680 C.2     1  UNL1        0.0300
     14  C         26.3910  -22.8490  -10.8190 C.2     1  UNL1        0.0050
     15  C         26.9740  -22.6880  -12.0660 C.2     1  UNL1        0.0370
     16  C         26.1580  -22.3700  -13.1590 C.2     1  UNL1        0.1110
     17  C         24.7560  -22.2260  -13.0470 C.2     1  UNL1       -0.0020
     18  C         23.8920  -21.9330  -14.2500 C.3     1  UNL1        0.0530
     19  N         26.8340  -22.1710  -14.4320 N.pl3   1  UNL1       -0.1150
     20  O         27.1210  -21.0060  -14.7420 O.2     1  UNL1       -0.5320
     21  O         27.0560  -23.1780  -15.1190 O.2     1  UNL1       -0.5320
     22  S         17.1240  -23.3050   -8.8140 S.O2    1  UNL1        0.2630
     23  O         17.8950  -24.2100   -7.9890 O.2     1  UNL1       -0.2000
     24  O         15.9660  -23.7930   -9.5320 O.2     1  UNL1       -0.2000
     25  N         16.6730  -22.0220   -7.8230 N.pl3   1  UNL1       -0.2800
     26  H         16.1040  -21.3300   -8.3030 H       1  UNL1        0.1790
     27  C         16.5240  -22.1910   -6.4120 C.2     1  UNL1        0.0490
     28  C         15.2980  -22.6230   -5.8980 C.2     1  UNL1        0.0310
     29  C         15.1190  -22.7610   -4.5260 C.2     1  UNL1        0.0030
     30  C         16.1690  -22.4810   -3.6580 C.2     1  UNL1        0.0070
     31  C         17.4190  -22.0630   -4.1480 C.2     1  UNL1       -0.0540
     32  C         18.5100  -21.7670   -3.1540 C.3     1  UNL1        0.0490
     33  C         17.6120  -21.9320   -5.5450 C.2     1  UNL1       -0.0290
     34  C         18.9420  -21.4780   -6.0990 C.3     1  UNL1        0.0510
@<TRIPOS>BOND
     1    21    19    2
     2    20    19    2
     3    19    16    1
     4    18    17    1
     5    16    17    1
     6    16    15    2
     7    17    12    2
     8    11    10    1
     9    15    14    1
    10     3     4    1
    11     3     2    2
    12    12    10    1
    13    12    13    1
    14     4     5    2
    15    10     8   am
    16     1     2    1
    17     2     7    1
    18    14    13    2
    19     5     8    1
    20     5     6    1
    21     8     9    2
    22     7     6    2
    23     7    22    1
    24    24    22    2
    25    22    23    2
    26    22    25    1
    27    26    25    1
    28    25    27    1
    29    27    28    2
    30    27    33    1
    31    34    33    1
    32    28    29    1
    33    33    31    2
    34    29    30    2
    35    31    30    1
    36    31    32    1
