@<TRIPOS>MOLECULE
53183_out_ligand_01.pdbqt
 31 33 0 0 0
SMALL
GASTEIGER

@<TRIPOS>ATOM
      1  C         17.4660  -23.2190   -8.8370 C.2     1  UNL1        0.0860
      2  C         18.8710  -23.2240   -8.8710 C.2     1  UNL1        0.0420
      3  C         19.5600  -22.4840   -9.8350 C.2     1  UNL1        0.0330
      4  C         18.8470  -21.7350  -10.7720 C.2     1  UNL1        0.0170
      5  C         17.4490  -21.7480  -10.7540 C.2     1  UNL1        0.0090
      6  C         16.7340  -22.4900   -9.7940 C.2     1  UNL1       -0.0390
      7  C         15.2330  -22.4460   -9.8490 C.3     1  UNL1        0.0500
      8  S         16.7230  -24.1790   -7.5200 S.O2    1  UNL1        0.2630
      9  O         15.6430  -24.9880   -8.0400 O.2     1  UNL1       -0.2000
     10  O         17.8140  -24.7870   -6.7880 O.2     1  UNL1       -0.2000
     11  N         16.0770  -22.9910   -6.5060 N.pl3   1  UNL1       -0.2810
     12  H         15.1030  -23.1760   -6.2700 H       1  UNL1        0.1790
     13  C         16.9020  -22.4090   -5.5020 C.2     1  UNL1        0.0430
     14  C         16.6410  -22.6980   -4.1620 C.2     1  UNL1        0.0300
     15  C         17.4550  -22.1610   -3.1650 C.2     1  UNL1        0.0030
     16  C         18.5300  -21.3390   -3.5070 C.2     1  UNL1        0.0070
     17  C         18.8040  -21.0510   -4.8480 C.2     1  UNL1       -0.0600
     18  C         19.9340  -20.1370   -5.2180 C.3     1  UNL1        0.0480
     19  C         17.9720  -21.5820   -5.8440 C.2     1  UNL1        0.0370
     20  C         21.0470  -22.4780   -9.7930 C.2     1  UNL1        0.2560
     21  O         21.5820  -22.4570   -8.6910 O.2     1  UNL1       -0.2670
     22  N         21.6610  -22.5300  -11.0310 N.am    1  UNL1       -0.3220
     23  H         21.0480  -22.6840  -11.8200 H       1  UNL1        0.1690
     24  C         23.0500  -22.4900  -11.3170 C.2     1  UNL1        0.0420
     25  C         23.9990  -23.0130  -10.4280 C.2     1  UNL1        0.0300
     26  C         25.3620  -22.9610  -10.7150 C.2     1  UNL1        0.0040
     27  C         25.7980  -22.3800  -11.8980 C.2     1  UNL1        0.0240
     28  C         24.8710  -21.8490  -12.7980 C.2     1  UNL1        0.0420
     29 CL         25.5200  -21.1430  -14.2400 Cl      1  UNL1       -0.0840
     30  C         23.4870  -21.8910  -12.5290 C.2     1  UNL1       -0.0130
     31  C         22.4830  -21.3200  -13.5010 C.3     1  UNL1        0.0520
@<TRIPOS>BOND
     1    29    28    1
     2    31    30    1
     3    28    30    1
     4    28    27    2
     5    30    24    2
     6    27    26    1
     7    23    22    1
     8    24    22    1
     9    24    25    1
    10    22    20   am
    11     4     5    2
    12     4     3    1
    13     5     6    1
    14    26    25    2
    15     7     6    1
    16     3    20    1
    17     3     2    2
    18     6     1    2
    19    20    21    2
    20     2     1    1
    21     1     8    1
    22     9     8    2
    23     8    10    2
    24     8    11    1
    25    11    12    1
    26    11    13    1
    27    19    13    2
    28    19    17    1
    29    13    14    1
    30    18    17    1
    31    17    16    2
    32    14    15    2
    33    16    15    1
