@<TRIPOS>MOLECULE
53193_out_ligand_01.pdbqt
 43 46 0 0 0
SMALL
GASTEIGER

@<TRIPOS>ATOM
      1  C         21.8550  -21.9860  -11.1000 C.2     1  UNL1        0.2560
      2  O         21.1020  -21.0340  -11.2640 O.2     1  UNL1       -0.2670
      3  N         21.8450  -22.8950  -10.0590 N.am    1  UNL1       -0.3230
      4  H         22.6200  -23.5440  -10.0130 H       1  UNL1        0.1690
      5  C         20.9280  -22.9560   -8.9870 C.2     1  UNL1        0.0350
      6  C         20.8460  -21.9960   -7.9750 C.2     1  UNL1        0.0310
      7  C         19.9080  -22.1240   -6.9450 C.2     1  UNL1        0.0270
      8  C         19.0370  -23.2150   -6.9360 C.2     1  UNL1        0.0800
      9  C         19.1120  -24.1880   -7.9330 C.2     1  UNL1        0.0270
     10  C         20.0540  -24.0530   -8.9580 C.2     1  UNL1        0.0310
     11  S         17.8550  -23.3970   -5.6260 S.O2    1  UNL1        0.2630
     12  O         18.2810  -22.6110   -4.4880 O.2     1  UNL1       -0.2000
     13  O         17.5780  -24.8130   -5.4930 O.2     1  UNL1       -0.2000
     14  N         16.4560  -22.7130   -6.2910 N.pl3   1  UNL1       -0.2810
     15  H         16.2910  -21.7930   -5.8870 H       1  UNL1        0.1790
     16  C         16.2480  -22.8660   -7.6890 C.2     1  UNL1        0.0430
     17  C         15.5160  -23.9520   -8.1640 C.2     1  UNL1        0.0300
     18  C         15.3460  -24.1270   -9.5370 C.2     1  UNL1        0.0030
     19  C         15.9160  -23.2210  -10.4320 C.2     1  UNL1        0.0160
     20  C         16.6720  -22.1340   -9.9630 C.2     1  UNL1        0.0500
     21  C         16.8290  -21.9620   -8.5790 C.2     1  UNL1        0.0460
     22  C         17.2760  -21.1480  -10.9300 C.3     1  UNL1        0.4170
     23  F         16.6110  -19.9590  -10.9700 F       1  UNL1       -0.1660
     24  F         18.5650  -20.8420  -10.6100 F       1  UNL1       -0.1660
     25  F         17.3070  -21.6010  -12.2130 F       1  UNL1       -0.1660
     26  C         22.9400  -22.2000  -12.0960 C.2     1  UNL1        0.0320
     27  C         23.9080  -23.1950  -11.9150 C.2     1  UNL1        0.0190
     28  C         24.9100  -23.3690  -12.8730 C.2     1  UNL1        0.0250
     29  C         24.9380  -22.5650  -14.0160 C.2     1  UNL1        0.0250
     30  C         23.9780  -21.5630  -14.1890 C.2     1  UNL1        0.0250
     31  C         22.9690  -21.3930  -13.2380 C.2     1  UNL1        0.0190
     32  N         26.0280  -22.7480  -14.9420 N.pl3   1  UNL1       -0.1760
     33  C         26.8580  -23.9540  -14.7000 C.3     1  UNL1        0.1360
     34  S         25.5420  -22.5210  -16.5790 S.O2    1  UNL1        0.2470
     35  O         24.1030  -22.6640  -16.6740 O.2     1  UNL1       -0.2050
     36  O         26.4330  -23.2920  -17.4220 O.2     1  UNL1       -0.2050
     37  C         25.8940  -20.7950  -16.8400 C.2     1  UNL1        0.0750
     38  C         25.3150  -20.1450  -17.9350 C.2     1  UNL1        0.0260
     39  C         25.5830  -18.7920  -18.1530 C.2     1  UNL1        0.0250
     40  C         26.4280  -18.1050  -17.2800 C.2     1  UNL1        0.0340
     41 CL         26.7530  -16.4360  -17.5470 Cl      1  UNL1       -0.0840
     42  C         27.0140  -18.7580  -16.1940 C.2     1  UNL1        0.0250
     43  C         26.7510  -20.1120  -15.9710 C.2     1  UNL1        0.0260
@<TRIPOS>BOND
     1    39    38    1
     2    39    40    2
     3    38    37    2
     4    41    40    1
     5    36    34    2
     6    40    42    1
     7    37    34    1
     8    37    43    1
     9    35    34    2
    10    34    32    1
    11    42    43    2
    12    32    33    1
    13    32    29    1
    14    30    29    2
    15    30    31    1
    16    29    28    1
    17    31    26    2
    18    28    27    2
    19    25    22    1
    20    26    27    1
    21    26     1    1
    22     2     1    2
    23     1     3   am
    24    23    22    1
    25    22    24    1
    26    22    20    1
    27    19    20    2
    28    19    18    1
    29     3     4    1
    30     3     5    1
    31    20    21    1
    32    18    17    2
    33     5    10    2
    34     5     6    1
    35    10     9    1
    36    21    16    2
    37    17    16    1
    38     6     7    2
    39     9     8    2
    40    16    14    1
    41     7     8    1
    42     8    11    1
    43    14    15    1
    44    14    11    1
    45    11    13    2
    46    11    12    2
