@<TRIPOS>MOLECULE
53196_out_ligand_01.pdbqt
 33 35 0 0 0
SMALL
GASTEIGER

@<TRIPOS>ATOM
      1  C         19.6760  -22.9030   -9.9100 C.2     1  UNL1        0.0330
      2  C         19.0390  -22.0910  -10.8490 C.2     1  UNL1        0.0170
      3  C         17.6540  -21.9150  -10.7850 C.2     1  UNL1        0.0090
      4  C         16.8820  -22.5310   -9.7810 C.2     1  UNL1       -0.0390
      5  C         15.3970  -22.3030   -9.8040 C.3     1  UNL1        0.0500
      6  C         17.5410  -23.3350   -8.8310 C.2     1  UNL1        0.0860
      7  C         18.9320  -23.5220   -8.9040 C.2     1  UNL1        0.0420
      8  C         21.1480  -23.1000   -9.9270 C.2     1  UNL1        0.2560
      9  N         21.8070  -22.4280  -10.9400 N.am    1  UNL1       -0.3230
     10  H         21.2290  -21.9440  -11.6170 H       1  UNL1        0.1690
     11  O         21.6360  -23.8430   -9.0850 O.2     1  UNL1       -0.2670
     12  C         23.1930  -22.4210  -11.2020 C.2     1  UNL1        0.0350
     13  C         23.9740  -21.5160  -10.4730 C.2     1  UNL1        0.0290
     14  C         25.3520  -21.4400  -10.6750 C.2     1  UNL1        0.0030
     15  C         25.9640  -22.2750  -11.6090 C.2     1  UNL1        0.0150
     16  C         25.2010  -23.1930  -12.3390 C.2     1  UNL1        0.0110
     17  C         23.8140  -23.2620  -12.1320 C.2     1  UNL1        0.0440
     18  C         25.9030  -24.0750  -13.3200 C.2     1  UNL1        0.1550
     19  C         25.4850  -24.0420  -14.7680 C.3     1  UNL1        0.0960
     20  O         26.8050  -24.8170  -12.9360 O.2     1  UNL1       -0.2930
     21  S         16.7100  -24.2170   -7.5120 S.O2    1  UNL1        0.2630
     22  O         15.6140  -24.9890   -8.0500 O.2     1  UNL1       -0.2000
     23  O         17.7470  -24.8660   -6.7340 O.2     1  UNL1       -0.2000
     24  N         16.1110  -22.9740   -6.5430 N.pl3   1  UNL1       -0.2800
     25  H         15.1040  -23.0210   -6.4150 H       1  UNL1        0.1790
     26  C         16.9100  -22.4210   -5.5000 C.2     1  UNL1        0.0490
     27  C         17.9870  -21.5970   -5.8460 C.2     1  UNL1        0.0370
     28  C         18.8250  -21.0520   -4.8660 C.2     1  UNL1       -0.0600
     29  C         19.9580  -20.1490   -5.2550 C.3     1  UNL1        0.0480
     30  C         18.5540  -21.3170   -3.5230 C.2     1  UNL1        0.0070
     31  C         17.4720  -22.1280   -3.1700 C.2     1  UNL1        0.0090
     32  C         16.6280  -22.6810   -4.1490 C.2     1  UNL1       -0.0350
     33  C         15.5020  -23.5660   -3.6930 C.3     1  UNL1        0.0500
@<TRIPOS>BOND
     1    19    18    1
     2    18    20    2
     3    18    16    1
     4    16    17    1
     5    16    15    2
     6    17    12    2
     7    10     9    1
     8    15    14    1
     9    12     9    1
    10    12    13    1
    11     9     8   am
    12     2     3    1
    13     2     1    2
    14     3     4    2
    15    14    13    2
    16     8     1    1
    17     8    11    2
    18     1     7    1
    19     5     4    1
    20     4     6    1
    21     7     6    2
    22     6    21    1
    23    22    21    2
    24    21    23    2
    25    21    24    1
    26    24    25    1
    27    24    26    1
    28    27    26    2
    29    27    28    1
    30    26    32    1
    31    29    28    1
    32    28    30    2
    33    32    33    1
    34    32    31    2
    35    30    31    1
