@<TRIPOS>MOLECULE
53203_out_ligand_01.pdbqt
 30 32 0 0 0
SMALL
GASTEIGER

@<TRIPOS>ATOM
      1  C         21.3110  -22.1460  -10.3510 C.2     1  UNL1        0.0750
      2  C         21.0720  -21.3500  -11.4730 C.2     1  UNL1        0.0250
      3  C         19.7600  -21.0150  -11.8170 C.2     1  UNL1        0.0090
      4  C         18.6770  -21.4680  -11.0450 C.2     1  UNL1       -0.0460
      5  C         17.2870  -21.0400  -11.4260 C.3     1  UNL1        0.0490
      6  C         18.9390  -22.3000   -9.9370 C.2     1  UNL1        0.0390
      7  C         20.2540  -22.6150   -9.5720 C.2     1  UNL1        0.0420
      8  S         22.9880  -22.5240   -9.8990 S.O2    1  UNL1        0.2450
      9  O         22.9670  -23.6570   -8.9990 O.2     1  UNL1       -0.2060
     10  O         23.6320  -21.2760   -9.5570 O.2     1  UNL1       -0.2060
     11  N         23.5770  -23.1060  -11.3940 N.pl3   1  UNL1       -0.1810
     12  H         24.1920  -23.8910  -11.1710 H       1  UNL1        0.1460
     13  C         24.2980  -22.1210  -12.1480 C.2     1  UNL1        0.0230
     14  C         24.1010  -22.0050  -13.5250 C.2     1  UNL1        0.0310
     15  C         24.8400  -21.0740  -14.2640 C.2     1  UNL1       -0.0600
     16  C         25.7690  -20.2580  -13.6020 C.2     1  UNL1        0.0130
     17  C         24.6060  -20.9180  -15.7370 C.3     1  UNL1        0.0480
     18  C         25.9960  -20.3970  -12.2260 C.2     1  UNL1       -0.0600
     19  C         26.9890  -19.5170  -11.5290 C.3     1  UNL1        0.0480
     20  C         25.2510  -21.3350  -11.5020 C.2     1  UNL1        0.0310
     21  C         17.8620  -22.8650   -9.0880 C.2     1  UNL1        0.2520
     22  O         17.0000  -23.5750   -9.5870 O.2     1  UNL1       -0.2680
     23  N         17.9020  -22.4890   -7.7630 N.am    1  UNL1       -0.3520
     24  H         18.6680  -21.9150   -7.4390 H       1  UNL1        0.1630
     25  C         16.9830  -23.0480   -6.7810 C.3     1  UNL1        0.0840
     26  C         15.6270  -22.3240   -6.8370 C.3     1  UNL1        0.0250
     27  C         14.8490  -22.3740   -5.5190 C.3     1  UNL1        0.0020
     28  C         15.1910  -23.6120   -4.7020 C.3     1  UNL1        0.0000
     29  C         16.6760  -23.6600   -4.3400 C.3     1  UNL1        0.0020
     30  C         17.5830  -22.9890   -5.3740 C.3     1  UNL1        0.0250
@<TRIPOS>BOND
     1    17    15    1
     2    15    16    2
     3    15    14    1
     4    16    18    1
     5    14    13    2
     6    18    19    1
     7    18    20    2
     8    13    20    1
     9    13    11    1
    10     3     2    1
    11     3     4    2
    12     2     1    2
    13     5     4    1
    14    11    12    1
    15    11     8    1
    16     4     6    1
    17     1     8    1
    18     1     7    1
    19     6     7    2
    20     6    21    1
    21     8    10    2
    22     8     9    2
    23    22    21    2
    24    21    23   am
    25    23    24    1
    26    23    25    1
    27    26    25    1
    28    26    27    1
    29    25    30    1
    30    27    28    1
    31    30    29    1
    32    28    29    1
