@<TRIPOS>MOLECULE
53206_out_ligand_01.pdbqt
 42 45 0 0 0
SMALL
GASTEIGER

@<TRIPOS>ATOM
      1  C         22.1340  -22.5840  -11.2380 C.2     1  UNL1        0.2560
      2  O         22.8190  -22.7750  -10.2410 O.2     1  UNL1       -0.2670
      3  N         20.7560  -22.6570  -11.3260 N.am    1  UNL1       -0.3230
      4  H         20.3270  -22.3200  -12.1770 H       1  UNL1        0.1690
      5  C         22.8290  -22.1850  -12.4970 C.2     1  UNL1        0.0340
      6  C         23.7600  -23.0660  -13.0610 C.2     1  UNL1        0.0430
      7  C         24.4240  -22.7310  -14.2530 C.2     1  UNL1        0.0970
      8  C         24.1470  -21.5210  -14.8930 C.2     1  UNL1        0.0570
      9  C         23.2020  -20.6500  -14.3310 C.2     1  UNL1        0.0260
     10 CL         24.8940  -20.9940  -16.3550 Cl      1  UNL1       -0.0830
     11  C         22.5410  -20.9790  -13.1430 C.2     1  UNL1        0.0190
     12  S         25.5810  -23.8960  -14.9260 S.O2    1  UNL1        0.2470
     13  O         25.4270  -25.1370  -14.1930 O.2     1  UNL1       -0.2050
     14  O         25.4660  -23.8500  -16.3660 O.2     1  UNL1       -0.2050
     15  N         27.0750  -23.2560  -14.3970 N.pl3   1  UNL1       -0.1810
     16  H         27.3780  -22.6010  -15.1200 H       1  UNL1        0.1460
     17  C         26.9860  -22.5680  -13.1380 C.2     1  UNL1        0.0230
     18  C         26.8210  -23.3030  -11.9680 C.2     1  UNL1        0.0240
     19  C         26.6970  -22.6420  -10.7460 C.2     1  UNL1        0.0020
     20  C         26.7160  -21.2490  -10.6990 C.2     1  UNL1        0.0070
     21  C         26.8440  -20.5010  -11.8770 C.2     1  UNL1       -0.0600
     22  C         26.8690  -19.0020  -11.8170 C.3     1  UNL1        0.0480
     23  C         26.9850  -21.1710  -13.0990 C.2     1  UNL1        0.0310
     24  C         19.8590  -23.0740  -10.3190 C.2     1  UNL1        0.0350
     25  C         18.5220  -22.6700  -10.4500 C.2     1  UNL1        0.0310
     26  C         17.5670  -23.0450   -9.5020 C.2     1  UNL1        0.0270
     27  C         17.9520  -23.8290   -8.4130 C.2     1  UNL1        0.0800
     28  C         19.2750  -24.2530   -8.2770 C.2     1  UNL1        0.0270
     29  C         20.2250  -23.8690   -9.2300 C.2     1  UNL1        0.0310
     30  S         16.7470  -24.3270   -7.2090 S.O2    1  UNL1        0.2630
     31  O         17.4520  -25.0540   -6.1740 O.2     1  UNL1       -0.2000
     32  O         15.6210  -24.9190   -7.8980 O.2     1  UNL1       -0.2000
     33  N         16.2840  -22.8580   -6.5140 N.pl3   1  UNL1       -0.2800
     34  H         15.9080  -22.2210   -7.2150 H       1  UNL1        0.1790
     35  C         17.1060  -22.3060   -5.4900 C.2     1  UNL1        0.0490
     36  C         18.2020  -21.5240   -5.8680 C.2     1  UNL1        0.0370
     37  C         19.0120  -20.9140   -4.9030 C.2     1  UNL1       -0.0600
     38  C         20.2090  -20.1100   -5.3170 C.3     1  UNL1        0.0480
     39  C         18.7200  -21.1140   -3.5520 C.2     1  UNL1        0.0070
     40  C         17.6250  -21.8950   -3.1710 C.2     1  UNL1        0.0090
     41  C         16.8030  -22.5000   -4.1340 C.2     1  UNL1       -0.0350
     42  C         15.6230  -23.3170   -3.6890 C.3     1  UNL1        0.0500
@<TRIPOS>BOND
     1    14    12    2
     2    10     8    1
     3    16    15    1
     4    12    15    1
     5    12     7    1
     6    12    13    2
     7     8     9    2
     8     8     7    1
     9    15    17    1
    10     9    11    1
    11     7     6    2
    12    11     5    2
    13    17    23    2
    14    17    18    1
    15    23    21    1
    16     6     5    1
    17     5     1    1
    18     4     3    1
    19    18    19    2
    20    21    22    1
    21    21    20    2
    22     3     1   am
    23     3    24    1
    24     1     2    2
    25    19    20    1
    26    25    24    2
    27    25    26    1
    28    24    29    1
    29    26    27    2
    30    29    28    2
    31    27    28    1
    32    27    30    1
    33    32    30    2
    34    34    33    1
    35    30    33    1
    36    30    31    2
    37    33    35    1
    38    36    35    2
    39    36    37    1
    40    35    41    1
    41    38    37    1
    42    37    39    2
    43    41    42    1
    44    41    40    2
    45    39    40    1
