@<TRIPOS>MOLECULE
53204_out_ligand_01.pdbqt
 32 35 0 0 0
SMALL
GASTEIGER

@<TRIPOS>ATOM
      1  C         20.5890  -20.9230  -12.1950 C.3     1  UNL1        0.0490
      2  C         19.4940  -21.5100  -11.3440 C.2     1  UNL1       -0.0460
      3  C         18.2000  -20.9710  -11.4470 C.2     1  UNL1        0.0090
      4  C         17.1420  -21.5070  -10.7090 C.2     1  UNL1        0.0250
      5  C         17.3730  -22.5880   -9.8550 C.2     1  UNL1        0.0750
      6  C         18.6490  -23.1380   -9.7290 C.2     1  UNL1        0.0420
      7  C         19.7120  -22.5840  -10.4560 C.2     1  UNL1        0.0390
      8  S         16.0100  -23.2640   -8.9360 S.O2    1  UNL1        0.2450
      9  O         15.2880  -22.1470   -8.3700 O.2     1  UNL1       -0.2060
     10  O         15.3730  -24.2690   -9.7590 O.2     1  UNL1       -0.2060
     11  N         16.8640  -24.1080   -7.7230 N.pl3   1  UNL1       -0.1810
     12  H         16.5750  -25.0850   -7.7780 H       1  UNL1        0.1460
     13  C         16.6650  -23.5940   -6.3900 C.2     1  UNL1        0.0340
     14  C         15.5910  -24.1280   -5.6700 C.2     1  UNL1        0.0250
     15  C         15.3300  -23.6950   -4.3760 C.2     1  UNL1        0.0030
     16  C         16.1480  -22.7290   -3.7930 C.2     1  UNL1        0.0120
     17  C         17.2440  -22.1920   -4.4880 C.2     1  UNL1       -0.0240
     18  C         18.0600  -21.2260   -3.8750 C.2     1  UNL1        0.0120
     19  C         17.5310  -22.6300   -5.8070 C.2     1  UNL1       -0.0040
     20  C         19.1630  -20.6910   -4.5380 C.2     1  UNL1        0.0010
     21  C         19.4670  -21.1150   -5.8240 C.2     1  UNL1        0.0010
     22  C         18.6630  -22.0710   -6.4520 C.2     1  UNL1        0.0140
     23  C         21.0460  -23.2020  -10.2450 C.2     1  UNL1        0.2520
     24  O         21.2230  -23.9710   -9.3110 O.2     1  UNL1       -0.2680
     25  N         22.0340  -22.7870  -11.1140 N.am    1  UNL1       -0.3520
     26  H         21.8460  -21.9760  -11.6880 H       1  UNL1        0.1630
     27  C         23.4240  -23.1890  -10.9300 C.3     1  UNL1        0.0840
     28  C         24.1100  -23.3180  -12.3010 C.3     1  UNL1        0.0250
     29  C         25.6150  -23.1080  -12.2030 C.3     1  UNL1        0.0020
     30  C         25.9610  -21.7130  -11.6770 C.3     1  UNL1        0.0000
     31  C         24.8980  -21.1310  -10.7430 C.3     1  UNL1        0.0020
     32  C         24.1580  -22.2230   -9.9800 C.3     1  UNL1        0.0250
@<TRIPOS>BOND
     1    28    29    1
     2    28    27    1
     3    29    30    1
     4     1     2    1
     5    26    25    1
     6    30    31    1
     7     3     2    2
     8     3     4    1
     9     2     7    1
    10    25    27    1
    11    25    23   am
    12    27    32    1
    13    31    32    1
    14     4     5    2
    15     7    23    1
    16     7     6    2
    17    23    24    2
    18     5     6    1
    19     5     8    1
    20    10     8    2
    21     8     9    2
    22     8    11    1
    23    12    11    1
    24    11    13    1
    25    22    21    2
    26    22    19    1
    27    13    19    2
    28    13    14    1
    29    21    20    1
    30    19    17    1
    31    14    15    2
    32    20    18    2
    33    17    18    1
    34    17    16    2
    35    15    16    1
