@<TRIPOS>MOLECULE
53213_out_ligand_01.pdbqt
 44 47 0 0 0
SMALL
GASTEIGER

@<TRIPOS>ATOM
      1  C         22.4210  -22.3680  -10.7950 C.2     1  UNL1        0.2560
      2  O         21.7140  -21.4090  -11.0870 O.2     1  UNL1       -0.2670
      3  N         22.2190  -23.2620   -9.7580 N.am    1  UNL1       -0.3230
      4  H         22.8480  -24.0480   -9.6920 H       1  UNL1        0.1690
      5  C         21.1700  -23.2600   -8.8140 C.2     1  UNL1        0.0350
      6  C         20.2100  -24.2700   -8.7060 C.2     1  UNL1        0.0310
      7  C         19.2180  -24.2110   -7.7190 C.2     1  UNL1        0.0270
      8  C         19.1750  -23.1200   -6.8510 C.2     1  UNL1        0.0800
      9  C         20.1100  -22.0900   -6.9640 C.2     1  UNL1        0.0270
     10  C         21.1070  -22.1670   -7.9380 C.2     1  UNL1        0.0310
     11  S         17.9260  -23.0060   -5.5950 S.O2    1  UNL1        0.2630
     12  O         18.2780  -21.9170   -4.7090 O.2     1  UNL1       -0.2000
     13  O         17.7340  -24.3510   -5.0900 O.2     1  UNL1       -0.2000
     14  N         16.5240  -22.6120   -6.4190 N.pl3   1  UNL1       -0.2810
     15  H         15.9310  -21.9660   -5.9000 H       1  UNL1        0.1790
     16  C         16.2810  -22.8350   -7.8020 C.2     1  UNL1        0.0430
     17  C         15.4260  -23.8200   -8.3030 C.2     1  UNL1        0.0300
     18  C         15.2040  -23.9340   -9.6810 C.2     1  UNL1        0.0030
     19  C         15.8280  -23.0570  -10.5680 C.2     1  UNL1        0.0160
     20  C         16.6800  -22.0530  -10.0870 C.2     1  UNL1        0.0500
     21  C         16.8880  -21.9450   -8.7000 C.2     1  UNL1        0.0460
     22  C         17.3460  -21.0780  -11.0270 C.3     1  UNL1        0.4170
     23  F         17.2950  -21.4580  -12.3340 F       1  UNL1       -0.1660
     24  F         16.7760  -19.8410  -10.9740 F       1  UNL1       -0.1660
     25  F         18.6650  -20.8930  -10.7410 F       1  UNL1       -0.1660
     26  C         23.6140  -22.6480  -11.6520 C.2     1  UNL1        0.0340
     27  C         23.5900  -22.2170  -12.9860 C.2     1  UNL1        0.0440
     28  C         24.6690  -22.4980  -13.8420 C.2     1  UNL1        0.1020
     29  C         25.7810  -23.1980  -13.3680 C.2     1  UNL1        0.0570
     30  C         25.8200  -23.5870  -12.0230 C.2     1  UNL1        0.0260
     31 CL         27.1200  -23.6750  -14.3450 Cl      1  UNL1       -0.0830
     32  C         24.7470  -23.3100  -11.1660 C.2     1  UNL1        0.0190
     33  S         24.5670  -21.9450  -15.5280 S.O2    1  UNL1        0.2640
     34  O         24.3340  -23.1050  -16.3630 O.2     1  UNL1       -0.2000
     35  O         23.6600  -20.8200  -15.5790 O.2     1  UNL1       -0.2000
     36  N         26.1210  -21.3560  -15.8420 N.pl3   1  UNL1       -0.2810
     37  H         26.6730  -22.0170  -16.3900 H       1  UNL1        0.1790
     38  C         26.3060  -19.9660  -16.0860 C.2     1  UNL1        0.0420
     39  C         26.2800  -19.5090  -17.4030 C.2     1  UNL1        0.0300
     40  C         26.4110  -18.1440  -17.6720 C.2     1  UNL1        0.0090
     41  C         26.5620  -17.2270  -16.6280 C.2     1  UNL1       -0.0620
     42  C         26.7290  -15.7660  -16.9160 C.3     1  UNL1        0.0480
     43  C         26.6240  -17.6990  -15.3130 C.2     1  UNL1        0.0090
     44  C         26.4980  -19.0620  -15.0440 C.2     1  UNL1        0.0300
@<TRIPOS>BOND
     1    40    39    1
     2    40    41    2
     3    39    38    2
     4    42    41    1
     5    41    43    1
     6    37    36    1
     7    34    33    2
     8    38    36    1
     9    38    44    1
    10    36    33    1
    11    35    33    2
    12    33    28    1
    13    43    44    2
    14    31    29    1
    15    28    29    2
    16    28    27    1
    17    29    30    1
    18    27    26    2
    19    23    22    1
    20    30    32    2
    21    26    32    1
    22    26     1    1
    23     2     1    2
    24    22    24    1
    25    22    25    1
    26    22    20    1
    27     1     3   am
    28    19    20    2
    29    19    18    1
    30    20    21    1
    31     3     4    1
    32     3     5    1
    33    18    17    2
    34     5     6    2
    35     5    10    1
    36     6     7    1
    37    21    16    2
    38    17    16    1
    39    10     9    2
    40    16    14    1
    41     7     8    2
    42     9     8    1
    43     8    11    1
    44    14    15    1
    45    14    11    1
    46    11    13    2
    47    11    12    2
