@<TRIPOS>MOLECULE
53246_out_ligand_01.pdbqt
 35 37 0 0 0
SMALL
GASTEIGER

@<TRIPOS>ATOM
      1  C         22.1330  -23.2490   -8.6250 C.2     1  UNL1        0.0690
      2  C         21.4980  -22.2060   -7.9400 C.2     1  UNL1        0.0380
      3  C         20.1720  -22.3280   -7.5270 C.2     1  UNL1        0.0270
      4  C         19.4740  -23.5050   -7.8040 C.2     1  UNL1        0.0750
      5  C         20.0990  -24.5600   -8.4750 C.2     1  UNL1        0.0270
      6  C         21.4290  -24.4280   -8.8870 C.2     1  UNL1        0.0380
      7  S         17.7940  -23.6660   -7.2520 S.O2    1  UNL1        0.2450
      8  O         17.6720  -24.9270   -6.5480 O.2     1  UNL1       -0.2060
      9  O         17.4130  -22.4060   -6.6520 O.2     1  UNL1       -0.2060
     10  N         16.9950  -23.8680   -8.7490 N.pl3   1  UNL1       -0.1810
     11  H         15.9930  -23.9000   -8.5470 H       1  UNL1        0.1460
     12  C         17.2860  -22.8350   -9.7000 C.2     1  UNL1        0.0230
     13  C         16.3060  -21.9050  -10.0520 C.2     1  UNL1        0.0240
     14  C         16.6150  -20.8780  -10.9450 C.2     1  UNL1        0.0030
     15  C         17.9040  -20.7740  -11.4720 C.2     1  UNL1        0.0160
     16  C         18.9010  -21.6970  -11.1100 C.2     1  UNL1        0.0490
     17  C         18.5800  -22.7230  -10.2080 C.2     1  UNL1        0.0400
     18  C         20.2990  -21.5580  -11.6600 C.3     1  UNL1        0.4170
     19  F         20.3110  -21.0820  -12.9370 F       1  UNL1       -0.1660
     20  F         21.0650  -20.6960  -10.9340 F       1  UNL1       -0.1660
     21  F         20.9900  -22.7330  -11.6980 F       1  UNL1       -0.1660
     22  O         23.4410  -23.0000   -8.9440 O.2     1  UNL1       -0.3420
     23  C         23.7490  -21.7740   -9.6000 C.3     1  UNL1        0.2780
     24  C         24.7170  -21.8920  -10.7850 C.2     1  UNL1        0.2460
     25  N         24.2150  -22.6860  -11.8000 N.am    1  UNL1       -0.3250
     26  H         23.2700  -23.0170  -11.6390 H       1  UNL1        0.1690
     27  O         25.8060  -21.3270  -10.7530 O.2     1  UNL1       -0.2710
     28  C         24.8070  -23.0200  -13.0400 C.2     1  UNL1        0.0410
     29  C         25.7320  -24.0630  -13.1560 C.2     1  UNL1        0.0300
     30  C         26.3100  -24.3730  -14.3860 C.2     1  UNL1        0.0030
     31  C         25.9730  -23.6410  -15.5170 C.2     1  UNL1        0.0070
     32  C         25.0490  -22.5880  -15.4410 C.2     1  UNL1       -0.0540
     33  C         24.7230  -21.8380  -16.7070 C.3     1  UNL1        0.0490
     34  C         24.4510  -22.2720  -14.1940 C.2     1  UNL1       -0.0290
     35  C         23.4490  -21.1450  -14.0900 C.3     1  UNL1        0.0510
@<TRIPOS>BOND
     1    33    32    1
     2    31    32    2
     3    31    30    1
     4    32    34    1
     5    30    29    2
     6    34    35    1
     7    34    28    2
     8    29    28    1
     9    28    25    1
    10    19    18    1
    11    25    26    1
    12    25    24   am
    13    21    18    1
    14    18    16    1
    15    18    20    1
    16    15    16    2
    17    15    14    1
    18    16    17    1
    19    14    13    2
    20    24    27    2
    21    24    23    1
    22    17    12    2
    23    13    12    1
    24    12    10    1
    25    23    22    1
    26    22     1    1
    27     6     1    2
    28     6     5    1
    29    10    11    1
    30    10     7    1
    31     1     2    1
    32     5     4    2
    33     2     3    2
    34     4     3    1
    35     4     7    1
    36     7     9    2
    37     7     8    2
