@<TRIPOS>MOLECULE
53255_out_ligand_01.pdbqt
 34 36 0 0 0
SMALL
GASTEIGER

@<TRIPOS>ATOM
      1  C         22.1100  -23.1910   -8.5550 C.2     1  UNL1        0.0690
      2  C         21.4690  -22.1660   -7.8490 C.2     1  UNL1        0.0380
      3  C         20.1480  -22.3100   -7.4250 C.2     1  UNL1        0.0280
      4  C         19.4670  -23.4980   -7.7010 C.2     1  UNL1        0.0800
      5  C         20.0890  -24.5200   -8.4230 C.2     1  UNL1        0.0280
      6  C         21.4140  -24.3670   -8.8440 C.2     1  UNL1        0.0380
      7  S         17.7780  -23.6930   -7.1780 S.O2    1  UNL1        0.2630
      8  O         17.3910  -22.4730   -6.5010 O.2     1  UNL1       -0.2000
      9  O         17.6510  -24.9820   -6.5360 O.2     1  UNL1       -0.2000
     10  N         16.9300  -23.7060   -8.6390 N.pl3   1  UNL1       -0.2810
     11  H         15.9570  -23.9820   -8.5150 H       1  UNL1        0.1790
     12  C         17.2310  -22.7380   -9.6350 C.2     1  UNL1        0.0430
     13  C         16.2230  -21.8790  -10.0690 C.2     1  UNL1        0.0300
     14  C         16.5060  -20.8960  -11.0170 C.2     1  UNL1        0.0030
     15  C         17.7960  -20.7740  -11.5340 C.2     1  UNL1        0.0160
     16  C         18.8160  -21.6420  -11.1140 C.2     1  UNL1        0.0500
     17  C         18.5210  -22.6230  -10.1550 C.2     1  UNL1        0.0460
     18  C         20.2200  -21.5070  -11.6510 C.3     1  UNL1        0.4170
     19  F         20.2360  -21.0740  -12.9420 F       1  UNL1       -0.1660
     20  F         20.9130  -22.6800  -11.6410 F       1  UNL1       -0.1660
     21  F         20.9770  -20.6220  -10.9460 F       1  UNL1       -0.1660
     22  O         23.3960  -22.9010   -8.9240 O.2     1  UNL1       -0.3420
     23  C         23.6330  -21.7010   -9.6500 C.3     1  UNL1        0.2780
     24  C         24.6870  -21.8050  -10.7600 C.2     1  UNL1        0.2460
     25  O         25.7080  -21.1240  -10.7190 O.2     1  UNL1       -0.2710
     26  N         24.3300  -22.6980  -11.7510 N.am    1  UNL1       -0.3240
     27  H         23.4660  -23.2150  -11.5880 H       1  UNL1        0.1690
     28  C         25.0400  -23.0600  -12.9150 C.2     1  UNL1        0.0520
     29  C         26.0330  -24.0440  -12.9250 C.2     1  UNL1        0.0310
     30  C         26.7070  -24.3620  -14.1090 C.2     1  UNL1        0.0020
     31  C         26.3980  -23.7020  -15.2960 C.2     1  UNL1        0.0020
     32  C         25.4120  -22.7180  -15.3040 C.2     1  UNL1        0.0210
     33  C         24.7390  -22.4000  -14.1210 C.2     1  UNL1        0.0370
     34 BR         23.3960  -21.0520  -14.2020 Br      1  UNL1       -0.0490
@<TRIPOS>BOND
     1    32    31    2
     2    32    33    1
     3    31    30    1
     4    34    33    1
     5    33    28    2
     6    30    29    2
     7    19    18    1
     8    29    28    1
     9    28    26    1
    10    26    27    1
    11    26    24   am
    12    18    20    1
    13    18    16    1
    14    18    21    1
    15    15    16    2
    16    15    14    1
    17    16    17    1
    18    14    13    2
    19    24    25    2
    20    24    23    1
    21    17    12    2
    22    13    12    1
    23    23    22    1
    24    12    10    1
    25    22     1    1
    26     6     1    2
    27     6     5    1
    28    10    11    1
    29    10     7    1
    30     1     2    1
    31     5     4    2
    32     2     3    2
    33     4     3    1
    34     4     7    1
    35     7     9    2
    36     7     8    2
