@<TRIPOS>MOLECULE
53257_out_ligand_01.pdbqt
 39 41 0 0 0
SMALL
GASTEIGER

@<TRIPOS>ATOM
      1  C         22.0920  -23.3620   -8.6420 C.2     1  UNL1        0.0690
      2  C         21.3600  -24.5280   -8.8800 C.2     1  UNL1        0.0380
      3  C         20.0410  -24.6330   -8.4250 C.2     1  UNL1        0.0280
      4  C         19.4550  -23.5650   -7.7420 C.2     1  UNL1        0.0800
      5  C         20.1850  -22.4050   -7.4780 C.2     1  UNL1        0.0280
      6  C         21.5020  -22.3100   -7.9340 C.2     1  UNL1        0.0380
      7  O         23.3900  -23.1360   -9.0110 O.2     1  UNL1       -0.3420
      8  C         23.7910  -21.7910   -9.2540 C.3     1  UNL1        0.2780
      9  C         24.4090  -21.5400  -10.6350 C.2     1  UNL1        0.2460
     10  N         23.7860  -22.2630  -11.6370 N.am    1  UNL1       -0.3250
     11  H         22.9720  -22.7950  -11.3410 H       1  UNL1        0.1690
     12  O         25.3650  -20.7800  -10.7630 O.2     1  UNL1       -0.2710
     13  C         24.0910  -22.2830  -13.0100 C.2     1  UNL1        0.0340
     14  C         23.6280  -21.3350  -13.9250 C.2     1  UNL1        0.0310
     15  C         23.9750  -21.4250  -15.2780 C.2     1  UNL1        0.0270
     16  C         24.7820  -22.4750  -15.7180 C.2     1  UNL1        0.0740
     17  C         25.2650  -23.4220  -14.8140 C.2     1  UNL1        0.0270
     18  C         24.9160  -23.3240  -13.4640 C.2     1  UNL1        0.0310
     19  S         25.2410  -22.5720  -17.4230 S.O2    1  UNL1        0.2390
     20  O         24.5860  -23.7070  -18.0290 O.2     1  UNL1       -0.2060
     21  O         26.6610  -22.3390  -17.5470 O.2     1  UNL1       -0.2060
     22  N         24.4900  -21.2130  -18.0600 N.3     1  UNL1       -0.2250
     23  H         25.1550  -20.6800  -18.6220 H       1  UNL1        0.1360
     24  H         23.6470  -21.4860  -18.5670 H       1  UNL1        0.1360
     25  S         17.7740  -23.6910   -7.1680 S.O2    1  UNL1        0.2630
     26  O         17.6070  -24.9880   -6.5490 O.2     1  UNL1       -0.2000
     27  O         17.4690  -22.4700   -6.4520 O.2     1  UNL1       -0.2000
     28  N         16.8830  -23.6300   -8.6030 N.pl3   1  UNL1       -0.2810
     29  H         15.9010  -23.8550   -8.4520 H       1  UNL1        0.1790
     30  C         17.2050  -22.6450   -9.5760 C.2     1  UNL1        0.0430
     31  C         16.2200  -21.7970  -10.0820 C.2     1  UNL1        0.0300
     32  C         16.5410  -20.8680  -11.0710 C.2     1  UNL1        0.0030
     33  C         17.8450  -20.7940  -11.5620 C.2     1  UNL1        0.0160
     34  C         18.8450  -21.6440  -11.0630 C.2     1  UNL1        0.0500
     35  C         18.5120  -22.5700  -10.0600 C.2     1  UNL1        0.0460
     36  C         20.2470  -21.5650  -11.6130 C.3     1  UNL1        0.4170
     37  F         20.8680  -22.7770  -11.6250 F       1  UNL1       -0.1660
     38  F         20.2800  -21.1140  -12.8960 F       1  UNL1       -0.1660
     39  F         21.0600  -20.7360  -10.9030 F       1  UNL1       -0.1660
@<TRIPOS>BOND
     1    23    22    1
     2    24    22    1
     3    22    19    1
     4    20    19    2
     5    21    19    2
     6    19    16    1
     7    16    15    2
     8    16    17    1
     9    15    14    1
    10    17    18    2
    11    14    13    2
    12    18    13    1
    13    13    10    1
    14    38    36    1
    15    10    11    1
    16    10     9   am
    17    37    36    1
    18    36    34    1
    19    36    39    1
    20    33    32    2
    21    33    34    1
    22    32    31    1
    23    34    35    2
    24    12     9    2
    25     9     8    1
    26    31    30    2
    27    35    30    1
    28    30    28    1
    29     8     7    1
    30     7     1    1
    31     2     1    2
    32     2     3    1
    33     1     6    1
    34    28    29    1
    35    28    25    1
    36     3     4    2
    37     6     5    2
    38     4     5    1
    39     4    25    1
    40    25    26    2
    41    25    27    2
