@<TRIPOS>MOLECULE
53252_out_ligand_01.pdbqt
 42 45 0 0 0
SMALL
GASTEIGER

@<TRIPOS>ATOM
      1  C         20.9860  -21.5190   -6.9090 C.2     1  UNL1        0.2560
      2  O         21.7330  -20.6280   -6.5230 O.2     1  UNL1       -0.2670
      3  N         21.2220  -22.4160   -7.9380 N.am    1  UNL1       -0.3230
      4  H         20.4380  -22.9810   -8.2370 H       1  UNL1        0.1690
      5  C         19.6490  -21.6500   -6.2670 C.2     1  UNL1        0.0330
      6  C         19.3550  -21.0340   -5.0500 C.2     1  UNL1        0.0170
      7  C         18.0940  -21.2000   -4.4690 C.2     1  UNL1        0.0090
      8  C         17.0930  -21.9610   -5.1010 C.2     1  UNL1       -0.0390
      9  C         15.7810  -22.1300   -4.3850 C.3     1  UNL1        0.0500
     10  C         17.3950  -22.5570   -6.3420 C.2     1  UNL1        0.0860
     11  C         18.6670  -22.4020   -6.9170 C.2     1  UNL1        0.0420
     12  S         16.2150  -23.5650   -7.2380 S.O2    1  UNL1        0.2630
     13  O         15.9960  -24.7830   -6.4850 O.2     1  UNL1       -0.2000
     14  O         15.0900  -22.7280   -7.5990 O.2     1  UNL1       -0.2000
     15  N         17.0240  -23.9350   -8.6710 N.pl3   1  UNL1       -0.2800
     16  H         16.8020  -24.8650   -9.0170 H       1  UNL1        0.1790
     17  C         17.3730  -22.9080   -9.6030 C.2     1  UNL1        0.0490
     18  C         16.4430  -21.9050   -9.8950 C.2     1  UNL1        0.0310
     19  C         16.7260  -20.9300  -10.8460 C.2     1  UNL1        0.0030
     20  C         17.9510  -20.9430  -11.5040 C.2     1  UNL1        0.0070
     21  C         18.9150  -21.9230  -11.2120 C.2     1  UNL1       -0.0540
     22  C         20.2240  -21.8750  -11.9590 C.3     1  UNL1        0.0490
     23  C         18.6390  -22.9080  -10.2310 C.2     1  UNL1       -0.0290
     24  C         19.6560  -23.9780   -9.9260 C.3     1  UNL1        0.0510
     25  C         22.3900  -22.5190   -8.7220 C.2     1  UNL1        0.0350
     26  C         23.1860  -23.6650   -8.7890 C.2     1  UNL1        0.0310
     27  C         24.3420  -23.6850   -9.5770 C.2     1  UNL1        0.0270
     28  C         24.7040  -22.5490  -10.2980 C.2     1  UNL1        0.0800
     29  C         23.9030  -21.4070  -10.2710 C.2     1  UNL1        0.0270
     30  C         22.7490  -21.3950   -9.4820 C.2     1  UNL1        0.0310
     31  S         26.1900  -22.5530  -11.2760 S.O2    1  UNL1        0.2630
     32  O         27.1200  -23.4620  -10.6370 O.2     1  UNL1       -0.2000
     33  O         26.5560  -21.1790  -11.5550 O.2     1  UNL1       -0.2000
     34  N         25.6970  -23.3080  -12.7050 N.pl3   1  UNL1       -0.2810
     35  H         25.0790  -24.0960  -12.5230 H       1  UNL1        0.1790
     36  C         25.4550  -22.5210  -13.8650 C.2     1  UNL1        0.0420
     37  C         24.2590  -21.8020  -13.9520 C.2     1  UNL1        0.0330
     38  C         24.0080  -21.0020  -15.0710 C.2     1  UNL1        0.0440
     39  C         24.9540  -20.9290  -16.0890 C.2     1  UNL1        0.1160
     40  F         24.7100  -20.1660  -17.1640 F       1  UNL1       -0.2060
     41  C         26.1480  -21.6380  -16.0080 C.2     1  UNL1        0.0440
     42  C         26.4010  -22.4380  -14.8900 C.2     1  UNL1        0.0330
@<TRIPOS>BOND
     1    40    39    1
     2    39    41    2
     3    39    38    1
     4    41    42    1
     5    38    37    2
     6    42    36    2
     7    37    36    1
     8    36    34    1
     9    34    35    1
    10    34    31    1
    11    22    21    1
    12    33    31    2
    13    20    21    2
    14    20    19    1
    15    31    32    2
    16    31    28    1
    17    21    23    1
    18    19    18    2
    19    28    29    2
    20    28    27    1
    21    29    30    1
    22    23    24    1
    23    23    17    2
    24    18    17    1
    25    17    15    1
    26    27    26    2
    27    30    25    2
    28    16    15    1
    29    26    25    1
    30    25     3    1
    31    15    12    1
    32     4     3    1
    33     3     1   am
    34    14    12    2
    35    12    13    2
    36    12    10    1
    37    11    10    1
    38    11     5    2
    39     1     2    2
    40     1     5    1
    41    10     8    2
    42     5     6    1
    43     8     7    1
    44     8     9    1
    45     6     7    2
