@<TRIPOS>MOLECULE
53258_out_ligand_01.pdbqt
 38 40 0 0 0
SMALL
GASTEIGER

@<TRIPOS>ATOM
      1  C         16.3310  -23.3180   -8.7940 C.2     1  UNL1        0.0690
      2  C         16.4790  -24.4920   -8.0520 C.2     1  UNL1        0.0380
      3  C         16.1660  -24.5060   -6.6900 C.2     1  UNL1        0.0280
      4  C         15.6920  -23.3440   -6.0770 C.2     1  UNL1        0.0800
      5  C         15.5510  -22.1630   -6.8040 C.2     1  UNL1        0.0280
      6  C         15.8730  -22.1590   -8.1630 C.2     1  UNL1        0.0380
      7  O         16.6250  -23.1620  -10.1210 O.2     1  UNL1       -0.3420
      8  C         16.6370  -21.8390  -10.6460 C.3     1  UNL1        0.2780
      9  C         17.9900  -21.3830  -11.2120 C.2     1  UNL1        0.2460
     10  N         18.9950  -22.3100  -10.9950 N.am    1  UNL1       -0.3250
     11  H         18.6910  -23.1840  -10.5760 H       1  UNL1        0.1690
     12  O         18.0980  -20.2970  -11.7720 O.2     1  UNL1       -0.2710
     13  C         20.3460  -22.2220  -11.3740 C.2     1  UNL1        0.0340
     14  C         20.8080  -21.4790  -12.4580 C.2     1  UNL1        0.0320
     15  C         22.1750  -21.4430  -12.7720 C.2     1  UNL1        0.0320
     16  C         23.1010  -22.1510  -12.0080 C.2     1  UNL1        0.0340
     17  C         22.6380  -22.8960  -10.9190 C.2     1  UNL1        0.0320
     18  C         21.2740  -22.9290  -10.6030 C.2     1  UNL1        0.0320
     19  N         24.4890  -22.1700  -12.2600 N.am    1  UNL1       -0.3280
     20  C         25.4790  -21.5000  -11.5650 C.2     1  UNL1        0.2180
     21  C         26.8500  -21.7520  -12.1380 C.3     1  UNL1        0.1170
     22  O         25.3320  -20.7530  -10.6050 O.2     1  UNL1       -0.2740
     23  H         24.7870  -22.7350  -13.0470 H       1  UNL1        0.1690
     24  S         15.2770  -23.3830   -4.3510 S.O2    1  UNL1        0.2630
     25  O         14.7510  -24.6880   -4.0220 O.2     1  UNL1       -0.2000
     26  O         14.5250  -22.1800   -4.0700 O.2     1  UNL1       -0.2000
     27  N         16.7800  -23.1820   -3.6040 N.pl3   1  UNL1       -0.2810
     28  H         17.1150  -24.0720   -3.2400 H       1  UNL1        0.1790
     29  C         17.7270  -22.3250   -4.2240 C.2     1  UNL1        0.0430
     30  C         18.0620  -21.1150   -3.6150 C.2     1  UNL1        0.0300
     31  C         19.0110  -20.2820   -4.2050 C.2     1  UNL1        0.0030
     32  C         19.6300  -20.6650   -5.3970 C.2     1  UNL1        0.0160
     33  C         19.3050  -21.8850   -6.0120 C.2     1  UNL1        0.0500
     34  C         18.3520  -22.7190   -5.4060 C.2     1  UNL1        0.0460
     35  C         19.9950  -22.3080   -7.2870 C.3     1  UNL1        0.4170
     36  F         19.9620  -23.6570   -7.4940 F       1  UNL1       -0.1660
     37  F         19.4420  -21.7480   -8.3990 F       1  UNL1       -0.1660
     38  F         21.3120  -21.9590   -7.3050 F       1  UNL1       -0.1660
@<TRIPOS>BOND
     1    23    19    1
     2    15    14    1
     3    15    16    2
     4    14    13    2
     5    19    16    1
     6    19    20   am
     7    21    20    1
     8    16    17    1
     9    12     9    2
    10    20    22    2
    11    13    10    1
    12    13    18    1
    13     9    10   am
    14     9     8    1
    15    10    11    1
    16    17    18    2
    17     8     7    1
    18     7     1    1
    19     1     6    2
    20     1     2    1
    21    37    35    1
    22     6     5    1
    23     2     3    2
    24    36    35    1
    25    38    35    1
    26    35    33    1
    27     5     4    2
    28     3     4    1
    29     4    24    1
    30    33    34    1
    31    33    32    2
    32    34    29    2
    33    32    31    1
    34    24    26    2
    35    24    25    2
    36    24    27    1
    37    29    30    1
    38    29    27    1
    39    31    30    2
    40    27    28    1
