@<TRIPOS>MOLECULE
53256_out_ligand_01.pdbqt
 38 40 0 0 0
SMALL
GASTEIGER

@<TRIPOS>ATOM
      1  C         22.0790  -23.3560   -8.5800 C.2     1  UNL1        0.0690
      2  C         21.4730  -22.2940   -7.8990 C.2     1  UNL1        0.0380
      3  C         20.1450  -22.3810   -7.4790 C.2     1  UNL1        0.0280
      4  C         19.4210  -23.5460   -7.7390 C.2     1  UNL1        0.0800
      5  C         20.0060  -24.6040   -8.4400 C.2     1  UNL1        0.0280
      6  C         21.3380  -24.5080   -8.8570 C.2     1  UNL1        0.0380
      7  O         23.3760  -23.1230   -8.9490 O.2     1  UNL1       -0.3420
      8  C         23.7480  -21.7860   -9.2690 C.3     1  UNL1        0.2780
      9  C         24.4240  -21.6120  -10.6350 C.2     1  UNL1        0.2460
     10  N         23.8590  -22.4090  -11.6150 N.am    1  UNL1       -0.3250
     11  H         23.1270  -23.0330  -11.2920 H       1  UNL1        0.1690
     12  O         25.3470  -20.8150  -10.7750 O.2     1  UNL1       -0.2710
     13  C         24.2210  -22.5020  -12.9710 C.2     1  UNL1        0.0340
     14  C         23.7000  -21.5320  -13.8380 C.2     1  UNL1        0.0300
     15  C         24.0100  -21.5490  -15.2040 C.2     1  UNL1        0.0190
     16  C         24.8560  -22.5380  -15.7170 C.2     1  UNL1        0.0320
     17  C         25.3660  -23.5140  -14.8550 C.2     1  UNL1        0.0190
     18  C         25.0540  -23.4930  -13.4900 C.2     1  UNL1        0.0300
     19  C         25.2170  -22.6060  -17.1580 C.2     1  UNL1        0.2490
     20  N         24.3260  -22.0870  -18.0570 N.am    1  UNL1       -0.3660
     21  H         24.6550  -22.0310  -19.0130 H       1  UNL1        0.1590
     22  H         23.5990  -21.4430  -17.7830 H       1  UNL1        0.1590
     23  O         26.2830  -23.0750  -17.5350 O.2     1  UNL1       -0.2680
     24  S         17.7200  -23.6660   -7.2270 S.O2    1  UNL1        0.2630
     25  O         17.3890  -22.4400   -6.5320 O.2     1  UNL1       -0.2000
     26  O         17.5310  -24.9580   -6.6020 O.2     1  UNL1       -0.2000
     27  N         16.8780  -23.6200   -8.6890 N.pl3   1  UNL1       -0.2810
     28  H         15.8920  -23.8420   -8.5700 H       1  UNL1        0.1790
     29  C         17.2410  -22.6690   -9.6810 C.2     1  UNL1        0.0430
     30  C         16.2760  -21.7700  -10.1370 C.2     1  UNL1        0.0300
     31  C         16.6170  -20.8040  -11.0830 C.2     1  UNL1        0.0030
     32  C         17.9200  -20.7390  -11.5780 C.2     1  UNL1        0.0160
     33  C         18.8950  -21.6470  -11.1380 C.2     1  UNL1        0.0500
     34  C         18.5420  -22.6110  -10.1810 C.2     1  UNL1        0.0460
     35  C         20.3120  -21.5750  -11.6500 C.3     1  UNL1        0.4170
     36  F         20.9220  -22.7920  -11.6460 F       1  UNL1       -0.1660
     37  F         21.1090  -20.7550  -10.9080 F       1  UNL1       -0.1660
     38  F         20.3930  -21.1140  -12.9280 F       1  UNL1       -0.1660
@<TRIPOS>BOND
     1    21    20    1
     2    20    22    1
     3    20    19   am
     4    23    19    2
     5    19    16    1
     6    16    15    2
     7    16    17    1
     8    15    14    1
     9    17    18    2
    10    14    13    2
    11    18    13    1
    12    13    10    1
    13    38    35    1
    14    35    36    1
    15    35    33    1
    16    35    37    1
    17    10    11    1
    18    10     9   am
    19    32    33    2
    20    32    31    1
    21    33    34    1
    22    31    30    2
    23    12     9    2
    24     9     8    1
    25    34    29    2
    26    30    29    1
    27    29    27    1
    28     8     7    1
    29     7     1    1
    30     6     1    2
    31     6     5    1
    32    27    28    1
    33    27    24    1
    34     1     2    1
    35     5     4    2
    36     2     3    2
    37     4     3    1
    38     4    24    1
    39    24    26    2
    40    24    25    2
