@<TRIPOS>MOLECULE
53254_out_ligand_01.pdbqt
 37 40 0 0 0
SMALL
GASTEIGER

@<TRIPOS>ATOM
      1  C         20.9580  -23.4430   -8.6540 C.2     1  UNL1        0.0690
      2  C         20.8900  -22.3120   -7.8350 C.2     1  UNL1        0.0380
      3  C         19.8830  -22.2040   -6.8690 C.2     1  UNL1        0.0280
      4  C         18.9410  -23.2270   -6.7310 C.2     1  UNL1        0.0800
      5  C         19.0110  -24.3690   -7.5310 C.2     1  UNL1        0.0280
      6  C         20.0230  -24.4720   -8.4880 C.2     1  UNL1        0.0380
      7  O         21.9000  -23.6810   -9.6170 O.2     1  UNL1       -0.3420
      8  C         23.2500  -23.3420   -9.3190 C.3     1  UNL1        0.2780
      9  C         23.7350  -22.0170   -9.9260 C.2     1  UNL1        0.2460
     10  O         23.2690  -20.9510   -9.5360 O.2     1  UNL1       -0.2710
     11  N         24.6810  -22.2080  -10.9180 N.am    1  UNL1       -0.3250
     12  H         24.9270  -23.1780  -11.0710 H       1  UNL1        0.1690
     13  C         25.3790  -21.2400  -11.6840 C.2     1  UNL1        0.0450
     14  C         26.2610  -20.3360  -11.0760 C.2     1  UNL1        0.0300
     15  C         26.9460  -19.3880  -11.8310 C.2     1  UNL1        0.0030
     16  C         26.7570  -19.3240  -13.2070 C.2     1  UNL1        0.0120
     17  C         25.8830  -20.2080  -13.8520 C.2     1  UNL1       -0.0240
     18  C         25.7140  -20.1120  -15.2440 C.2     1  UNL1        0.0120
     19  C         25.1780  -21.1890  -13.1040 C.2     1  UNL1        0.0010
     20  C         24.8590  -20.9730  -15.9270 C.2     1  UNL1        0.0010
     21  C         24.1640  -21.9450  -15.2240 C.2     1  UNL1        0.0010
     22  C         24.3210  -22.0530  -13.8380 C.2     1  UNL1        0.0140
     23  S         17.6610  -23.0710   -5.5120 S.O2    1  UNL1        0.2630
     24  O         17.2450  -24.3920   -5.0930 O.2     1  UNL1       -0.2000
     25  O         18.1050  -22.0850   -4.5500 O.2     1  UNL1       -0.2000
     26  N         16.4070  -22.3420   -6.3860 N.pl3   1  UNL1       -0.2810
     27  H         15.5430  -22.3390   -5.8440 H       1  UNL1        0.1790
     28  C         16.3150  -22.6230   -7.7760 C.2     1  UNL1        0.0430
     29  C         15.5800  -23.7240   -8.2150 C.2     1  UNL1        0.0300
     30  C         15.4550  -23.9760   -9.5810 C.2     1  UNL1        0.0030
     31  C         16.0630  -23.1250  -10.5040 C.2     1  UNL1        0.0160
     32  C         16.8010  -22.0090  -10.0720 C.2     1  UNL1        0.0500
     33  C         16.9140  -21.7600   -8.6950 C.2     1  UNL1        0.0460
     34  C         17.4480  -21.0940  -11.0820 C.3     1  UNL1        0.4170
     35  F         17.3370  -21.5600  -12.3570 F       1  UNL1       -0.1660
     36  F         16.9230  -19.8370  -11.0940 F       1  UNL1       -0.1660
     37  F         18.7840  -20.9360  -10.8560 F       1  UNL1       -0.1660
@<TRIPOS>BOND
     1    20    18    2
     2    20    21    1
     3    18    17    1
     4    21    22    2
     5    17    16    2
     6    17    19    1
     7    22    19    1
     8    16    15    1
     9    19    13    2
    10    35    34    1
    11    15    14    2
    12    13    14    1
    13    13    11    1
    14    36    34    1
    15    34    37    1
    16    34    32    1
    17    12    11    1
    18    11     9   am
    19    31    32    2
    20    31    30    1
    21    32    33    1
    22     9    10    2
    23     9     8    1
    24     7     8    1
    25     7     1    1
    26    30    29    2
    27    33    28    2
    28     1     6    2
    29     1     2    1
    30     6     5    1
    31    29    28    1
    32     2     3    2
    33    28    26    1
    34     5     4    2
    35     3     4    1
    36     4    23    1
    37    26    27    1
    38    26    23    1
    39    23    24    2
    40    23    25    2
