@<TRIPOS>MOLECULE
53281_out_ligand_01.pdbqt
 30 32 0 0 0
SMALL
GASTEIGER

@<TRIPOS>ATOM
      1  C         18.4720  -22.4720   -9.9850 C.2     1  UNL1        0.1020
      2  C         19.7760  -23.0020   -9.9360 C.2     1  UNL1        0.0440
      3  C         20.7830  -22.5020  -10.7670 C.2     1  UNL1        0.0340
      4  C         20.4940  -21.4660  -11.6560 C.2     1  UNL1        0.0190
      5  C         19.1960  -20.9510  -11.7180 C.2     1  UNL1        0.0260
      6  C         18.1750  -21.4500  -10.8900 C.2     1  UNL1        0.0570
      7 CL         16.6400  -20.6930  -11.0790 Cl      1  UNL1       -0.0830
      8  S         17.2870  -23.2010   -8.8780 S.O2    1  UNL1        0.2650
      9  O         18.0270  -24.1120   -8.0270 O.2     1  UNL1       -0.2000
     10  O         16.1360  -23.6800   -9.6060 O.2     1  UNL1       -0.2000
     11  N         16.8390  -21.9210   -7.8790 N.pl3   1  UNL1       -0.2800
     12  H         16.2830  -21.2140   -8.3550 H       1  UNL1        0.1790
     13  C         16.6480  -22.1230   -6.4820 C.2     1  UNL1        0.0490
     14  C         15.4080  -22.5820   -6.0310 C.2     1  UNL1        0.0310
     15  C         15.1800  -22.7760   -4.6730 C.2     1  UNL1        0.0030
     16  C         16.2000  -22.5290   -3.7580 C.2     1  UNL1        0.0070
     17  C         17.4620  -22.0920   -4.1890 C.2     1  UNL1       -0.0540
     18  C         18.5310  -21.8630   -3.1540 C.3     1  UNL1        0.0490
     19  C         17.6910  -21.8620   -5.5680 C.2     1  UNL1       -0.0290
     20  C         19.0520  -21.4190   -6.0460 C.3     1  UNL1        0.0510
     21  C         22.1560  -23.0540  -10.6280 C.2     1  UNL1        0.2560
     22  O         22.3930  -23.7640   -9.6590 O.2     1  UNL1       -0.2670
     23  N         23.0290  -22.7150  -11.6430 N.am    1  UNL1       -0.3220
     24  H         22.6550  -22.2150  -12.4380 H       1  UNL1        0.1690
     25  C         24.3930  -23.0720  -11.7270 C.2     1  UNL1        0.0520
     26  C         24.8320  -23.6880  -12.9020 C.2     1  UNL1        0.0320
     27  C         26.1690  -24.0550  -13.0400 C.2     1  UNL1        0.0210
     28  C         27.0350  -23.7900  -11.9940 C.2     1  UNL1        0.1160
     29  N         26.6540  -23.1950  -10.8450 N.2     1  UNL1       -0.2710
     30  C         25.3450  -22.8510  -10.7350 C.2     1  UNL1        0.1450
@<TRIPOS>BOND
     1    27    26    1
     2    27    28    2
     3    26    25    2
     4    24    23    1
     5    28    29    1
     6    25    23    1
     7    25    30    1
     8     5     4    2
     9     5     6    1
    10     4     3    1
    11    23    21   am
    12     7     6    1
    13     6     1    2
    14    29    30    2
    15     3    21    1
    16     3     2    2
    17    21    22    2
    18     1     2    1
    19     1     8    1
    20    10     8    2
    21     8     9    2
    22     8    11    1
    23    12    11    1
    24    11    13    1
    25    13    14    2
    26    13    19    1
    27    20    19    1
    28    14    15    1
    29    19    17    2
    30    15    16    2
    31    17    16    1
    32    17    18    1
