@<TRIPOS>MOLECULE
5331_out_ligand_01.pdbqt
 29 32 0 0 0
SMALL
GASTEIGER

@<TRIPOS>ATOM
      1  C         23.0360  -22.1420  -12.1970 C.2     1  UNL1        0.0800
      2  C         21.7970  -21.6270  -12.5890 C.2     1  UNL1        0.0270
      3  C         20.7090  -21.7290  -11.7200 C.2     1  UNL1        0.0330
      4  C         20.8530  -22.3350  -10.4690 C.2     1  UNL1        0.0560
      5  C         22.0910  -22.8730  -10.1020 C.2     1  UNL1        0.0330
      6  C         23.1870  -22.7790  -10.9620 C.2     1  UNL1        0.0270
      7  N         19.7600  -22.4460   -9.6010 N.2     1  UNL1       -0.2600
      8  C         19.9940  -22.9960   -8.4510 C.2     1  UNL1        0.1290
      9  C         18.9760  -23.2070   -7.3880 C.2     1  UNL1       -0.0080
     10  C         18.1680  -24.3400   -7.5910 C.2     1  UNL1        0.0140
     11  C         17.1690  -24.6700   -6.6830 C.2     1  UNL1        0.0020
     12  C         16.9680  -23.8710   -5.5630 C.2     1  UNL1        0.0120
     13  C         17.7570  -22.7350   -5.3310 C.2     1  UNL1       -0.0250
     14  C         17.5150  -21.9590   -4.1850 C.2     1  UNL1        0.0120
     15  C         18.7860  -22.3740   -6.2440 C.2     1  UNL1       -0.0140
     16  C         18.2710  -20.8230   -3.9100 C.2     1  UNL1        0.0010
     17  C         19.2810  -20.4480   -4.7820 C.2     1  UNL1        0.0010
     18  C         19.5320  -21.2100   -5.9280 C.2     1  UNL1        0.0130
     19  S         24.4310  -22.0170  -13.2860 S.O2    1  UNL1        0.2630
     20  O         25.0660  -23.3120  -13.3970 O.2     1  UNL1       -0.2000
     21  O         25.1840  -20.8470  -12.8900 O.2     1  UNL1       -0.2000
     22  N         23.7110  -21.6250  -14.7670 N.pl3   1  UNL1       -0.2790
     23  H         23.2000  -20.7460  -14.6880 H       1  UNL1        0.1790
     24  C         24.4790  -21.8370  -15.9470 C.2     1  UNL1        0.0600
     25  C         25.4120  -20.8890  -16.3550 C.2     1  UNL1        0.0330
     26  C         26.1950  -21.1450  -17.4790 C.2     1  UNL1        0.0210
     27  C         26.0180  -22.3470  -18.1480 C.2     1  UNL1        0.1160
     28  N         25.1280  -23.2920  -17.7730 N.2     1  UNL1       -0.2710
     29  C         24.3830  -23.0170  -16.6760 C.2     1  UNL1        0.1460
@<TRIPOS>BOND
     1    27    28    2
     2    27    26    1
     3    28    29    1
     4    26    25    2
     5    29    24    2
     6    25    24    1
     7    24    22    1
     8    22    23    1
     9    22    19    1
    10    20    19    2
    11    19    21    2
    12    19     1    1
    13     2     1    2
    14     2     3    1
    15     1     6    1
    16     3     4    2
    17     6     5    2
    18     4     5    1
    19     4     7    1
    20     7     8    2
    21     8     9    1
    22    10     9    2
    23    10    11    1
    24     9    15    1
    25    11    12    2
    26    15    18    1
    27    15    13    2
    28    18    17    2
    29    12    13    1
    30    13    14    1
    31    17    16    1
    32    14    16    2
