@<TRIPOS>MOLECULE
53313_out_ligand_01.pdbqt
 37 40 0 0 0
SMALL
GASTEIGER

@<TRIPOS>ATOM
      1  C         22.0540  -23.2430   -8.5510 C.2     1  UNL1        0.0690
      2  C         21.3530  -24.4150   -8.8470 C.2     1  UNL1        0.0380
      3  C         20.0250  -24.5630   -8.4310 C.2     1  UNL1        0.0280
      4  C         19.4040  -23.5360   -7.7150 C.2     1  UNL1        0.0800
      5  C         20.0880  -22.3530   -7.4330 C.2     1  UNL1        0.0280
      6  C         21.4130  -22.2140   -7.8510 C.2     1  UNL1        0.0380
      7  O         23.3440  -22.9620   -8.9100 O.2     1  UNL1       -0.3420
      8  C         23.6300  -21.6560   -9.3980 C.3     1  UNL1        0.2780
      9  C         24.4420  -21.6170  -10.6990 C.2     1  UNL1        0.2460
     10  O         25.4080  -20.8680  -10.8090 O.2     1  UNL1       -0.2710
     11  N         23.9380  -22.4690  -11.6650 N.am    1  UNL1       -0.3250
     12  H         23.1560  -23.0450  -11.3650 H       1  UNL1        0.1690
     13  C         24.4140  -22.6790  -12.9720 C.2     1  UNL1        0.0370
     14  C         25.1420  -23.8560  -13.2010 C.2     1  UNL1        0.0320
     15  C         25.6580  -24.1420  -14.4680 C.2     1  UNL1        0.0420
     16  C         25.4520  -23.2510  -15.5160 C.2     1  UNL1        0.1020
     17  C         24.7040  -22.0900  -15.3040 C.2     1  UNL1        0.1040
     18  O         26.0050  -23.5830  -16.7250 O.2     1  UNL1       -0.3460
     19  C         24.1990  -21.7970  -14.0340 C.2     1  UNL1        0.0690
     20  O         24.4320  -21.1840  -16.2980 O.2     1  UNL1       -0.3460
     21  C         24.6880  -21.7370  -17.5940 C.3     1  UNL1        0.2020
     22  C         26.0240  -22.4590  -17.6140 C.3     1  UNL1        0.2020
     23  S         17.7200  -23.7310   -7.1920 S.O2    1  UNL1        0.2630
     24  O         17.3390  -22.5180   -6.5010 O.2     1  UNL1       -0.2000
     25  O         17.5700  -25.0270   -6.5640 O.2     1  UNL1       -0.2000
     26  N         16.8750  -23.7160   -8.6600 N.pl3   1  UNL1       -0.2810
     27  H         16.7670  -24.6650   -9.0160 H       1  UNL1        0.1790
     28  C         17.1980  -22.6990   -9.5980 C.2     1  UNL1        0.0430
     29  C         16.2050  -21.8340  -10.0570 C.2     1  UNL1        0.0300
     30  C         16.5150  -20.8700  -11.0170 C.2     1  UNL1        0.0030
     31  C         17.8130  -20.7770  -11.5210 C.2     1  UNL1        0.0160
     32  C         18.8170  -21.6470  -11.0690 C.2     1  UNL1        0.0500
     33  C         18.4940  -22.6130  -10.1040 C.2     1  UNL1        0.0460
     34  C         20.2190  -21.5780  -11.6210 C.3     1  UNL1        0.4170
     35  F         20.2410  -21.1850  -12.9250 F       1  UNL1       -0.1660
     36  F         21.0260  -20.7070  -10.9530 F       1  UNL1       -0.1660
     37  F         20.8570  -22.7810  -11.5820 F       1  UNL1       -0.1660
@<TRIPOS>BOND
     1    22    21    1
     2    22    18    1
     3    21    20    1
     4    18    16    1
     5    20    17    1
     6    16    17    2
     7    16    15    1
     8    17    19    1
     9    15    14    2
    10    19    13    2
    11    14    13    1
    12    13    11    1
    13    35    34    1
    14    11    12    1
    15    11     9   am
    16    34    37    1
    17    34    32    1
    18    34    36    1
    19    31    32    2
    20    31    30    1
    21    32    33    1
    22    30    29    2
    23    10     9    2
    24     9     8    1
    25    33    28    2
    26    29    28    1
    27    28    26    1
    28     8     7    1
    29    27    26    1
    30     7     1    1
    31     2     1    2
    32     2     3    1
    33    26    23    1
    34     1     6    1
    35     3     4    2
    36     6     5    2
    37     4     5    1
    38     4    23    1
    39    23    25    2
    40    23    24    2
