@<TRIPOS>MOLECULE
53322_out_ligand_01.pdbqt
 45 48 0 0 0
SMALL
GASTEIGER

@<TRIPOS>ATOM
      1  C         23.1030  -22.0840   -9.9950 C.2     1  UNL1        0.2560
      2  O         23.1370  -20.9670   -9.4980 O.2     1  UNL1       -0.2670
      3  N         22.2490  -23.1220   -9.6650 N.am    1  UNL1       -0.3230
      4  H         22.4250  -24.0170  -10.1050 H       1  UNL1        0.1690
      5  C         21.2150  -23.1140   -8.7080 C.2     1  UNL1        0.0350
      6  C         20.3420  -24.2120   -8.7120 C.2     1  UNL1        0.0310
      7  C         19.2930  -24.2930   -7.7940 C.2     1  UNL1        0.0270
      8  C         19.1120  -23.2650   -6.8680 C.2     1  UNL1        0.0750
      9  C         19.9720  -22.1660   -6.8500 C.2     1  UNL1        0.0270
     10  C         21.0190  -22.0940   -7.7740 C.2     1  UNL1        0.0310
     11  S         17.7740  -23.3850   -5.7060 S.O2    1  UNL1        0.2450
     12  O         17.3200  -24.7580   -5.7150 O.2     1  UNL1       -0.2060
     13  O         18.1640  -22.7030   -4.4910 O.2     1  UNL1       -0.2060
     14  N         16.6190  -22.3790   -6.4670 N.pl3   1  UNL1       -0.1810
     15  H         15.7350  -22.5170   -5.9750 H       1  UNL1        0.1460
     16  C         16.4720  -22.6270   -7.8700 C.2     1  UNL1        0.0230
     17  C         15.6740  -23.6880   -8.2910 C.2     1  UNL1        0.0240
     18  C         15.4870  -23.9180   -9.6550 C.2     1  UNL1        0.0030
     19  C         16.0850  -23.0760  -10.5950 C.2     1  UNL1        0.0160
     20  C         16.8760  -21.9920  -10.1790 C.2     1  UNL1        0.0490
     21  C         17.0580  -21.7700   -8.8040 C.2     1  UNL1        0.0400
     22  C         17.5120  -21.0600  -11.1820 C.3     1  UNL1        0.4170
     23  F         17.0000  -19.8010  -11.1180 F       1  UNL1       -0.1660
     24  F         18.8570  -20.9310  -10.9850 F       1  UNL1       -0.1660
     25  F         17.3650  -21.4630  -12.4750 F       1  UNL1       -0.1660
     26  C         24.1020  -22.4220  -11.0470 C.2     1  UNL1        0.0330
     27  C         23.9230  -22.0310  -12.3770 C.2     1  UNL1        0.0420
     28  C         24.8640  -22.3960  -13.3570 C.2     1  UNL1        0.0860
     29  C         25.9900  -23.1710  -13.0140 C.2     1  UNL1       -0.0390
     30  C         26.1680  -23.5180  -11.6630 C.2     1  UNL1        0.0090
     31  C         27.0110  -23.6400  -14.0100 C.3     1  UNL1        0.0500
     32  C         25.2400  -23.1440  -10.6890 C.2     1  UNL1        0.0170
     33  S         24.5260  -21.8770  -15.0350 S.O2    1  UNL1        0.2630
     34  O         24.3180  -23.0710  -15.8290 O.2     1  UNL1       -0.2000
     35  O         23.4980  -20.8560  -14.9830 O.2     1  UNL1       -0.2000
     36  N         25.9560  -21.1890  -15.5640 N.pl3   1  UNL1       -0.2800
     37  H         26.7770  -21.7290  -15.2960 H       1  UNL1        0.1790
     38  C         26.1080  -19.8340  -15.9860 C.2     1  UNL1        0.0480
     39  C         26.0200  -19.4660  -17.3320 C.2     1  UNL1        0.0310
     40  C         26.2000  -18.1360  -17.7280 C.2     1  UNL1        0.0090
     41  C         26.4940  -17.1500  -16.7860 C.2     1  UNL1       -0.0610
     42  C         26.7310  -15.7310  -17.2140 C.3     1  UNL1        0.0480
     43  C         26.6430  -17.5230  -15.4460 C.2     1  UNL1        0.0150
     44  C         26.4520  -18.8560  -15.0300 C.2     1  UNL1       -0.0340
     45  C         26.6760  -19.1830  -13.5780 C.3     1  UNL1        0.0500
@<TRIPOS>BOND
     1    40    39    1
     2    40    41    2
     3    39    38    2
     4    42    41    1
     5    41    43    1
     6    38    36    1
     7    38    44    1
     8    34    33    2
     9    36    37    1
    10    36    33    1
    11    43    44    2
    12    33    35    2
    13    33    28    1
    14    44    45    1
    15    31    29    1
    16    28    29    2
    17    28    27    1
    18    29    30    1
    19    25    22    1
    20    27    26    2
    21    30    32    2
    22    22    23    1
    23    22    24    1
    24    22    20    1
    25    26    32    1
    26    26     1    1
    27    19    20    2
    28    19    18    1
    29    20    21    1
    30     4     3    1
    31     1     3   am
    32     1     2    2
    33     3     5    1
    34    18    17    2
    35    21    16    2
    36     6     5    2
    37     6     7    1
    38     5    10    1
    39    17    16    1
    40    16    14    1
    41     7     8    2
    42    10     9    2
    43     8     9    1
    44     8    11    1
    45    14    15    1
    46    14    11    1
    47    12    11    2
    48    11    13    2
