@<TRIPOS>MOLECULE
53344_out_ligand_01.pdbqt
 32 34 0 0 0
SMALL
GASTEIGER

@<TRIPOS>ATOM
      1  C         20.7960  -21.0590  -12.3670 C.3     1  UNL1        0.0490
      2  C         19.8650  -21.6570  -11.3490 C.2     1  UNL1       -0.0460
      3  C         18.4870  -21.4070  -11.4650 C.2     1  UNL1        0.0090
      4  C         17.5780  -21.9750  -10.5700 C.2     1  UNL1        0.0250
      5  C         18.0420  -22.8070   -9.5500 C.2     1  UNL1        0.0750
      6  C         19.4080  -23.0430   -9.3920 C.2     1  UNL1        0.0420
      7  C         20.3180  -22.4570  -10.2810 C.2     1  UNL1        0.0390
      8  S         16.8890  -23.5260   -8.4100 S.O2    1  UNL1        0.2450
      9  O         17.6170  -24.4300   -7.5460 O.2     1  UNL1       -0.2060
     10  O         15.7280  -23.9580   -9.1590 O.2     1  UNL1       -0.2060
     11  N         16.4080  -22.1400   -7.5280 N.pl3   1  UNL1       -0.1810
     12  H         15.3970  -22.2340   -7.3880 H       1  UNL1        0.1460
     13  C         17.0750  -21.9950   -6.2630 C.2     1  UNL1        0.0370
     14  C         18.3590  -21.4370   -6.2340 C.2     1  UNL1        0.0250
     15  C         19.0180  -21.2530   -5.0190 C.2     1  UNL1        0.0020
     16  C         18.3960  -21.6220   -3.8310 C.2     1  UNL1        0.0010
     17  C         17.1160  -22.1770   -3.8570 C.2     1  UNL1        0.0180
     18  C         16.4340  -22.3680   -5.0750 C.2     1  UNL1        0.0700
     19  C         15.0690  -23.0000   -5.0800 C.3     1  UNL1        0.4190
     20  F         14.9900  -24.1420   -5.8190 F       1  UNL1       -0.1660
     21  F         14.6370  -23.3310   -3.8300 F       1  UNL1       -0.1660
     22  F         14.1010  -22.1810   -5.5870 F       1  UNL1       -0.1660
     23  C         21.7520  -22.7490  -10.0400 C.2     1  UNL1        0.2520
     24  O         22.1590  -22.8970   -8.8960 O.2     1  UNL1       -0.2680
     25  N         22.5470  -22.7680  -11.1650 N.am    1  UNL1       -0.3520
     26  H         22.1550  -22.4020  -12.0250 H       1  UNL1        0.1630
     27  C         23.9990  -22.8750  -11.0710 C.3     1  UNL1        0.0840
     28  C         24.5940  -21.5520  -10.5580 C.3     1  UNL1        0.0250
     29  C         26.0150  -21.3350  -11.0590 C.3     1  UNL1        0.0020
     30  C         26.0710  -21.2680  -12.5860 C.3     1  UNL1        0.0000
     31  C         25.0020  -22.1180  -13.2750 C.3     1  UNL1        0.0020
     32  C         24.5900  -23.3130  -12.4220 C.3     1  UNL1        0.0250
@<TRIPOS>BOND
     1    31    30    1
     2    31    32    1
     3    30    29    1
     4    32    27    1
     5     1     2    1
     6    26    25    1
     7     3     2    2
     8     3     4    1
     9     2     7    1
    10    25    27    1
    11    25    23   am
    12    27    28    1
    13    29    28    1
    14     4     5    2
    15     7    23    1
    16     7     6    2
    17    23    24    2
    18     5     6    1
    19     5     8    1
    20    10     8    2
    21     8     9    2
    22     8    11    1
    23    11    12    1
    24    11    13    1
    25    13    14    2
    26    13    18    1
    27    14    15    1
    28    20    19    1
    29    22    19    1
    30    19    18    1
    31    19    21    1
    32    18    17    2
    33    15    16    2
    34    17    16    1
