@<TRIPOS>MOLECULE
53345_out_ligand_01.pdbqt
 32 34 0 0 0
SMALL
GASTEIGER

@<TRIPOS>ATOM
      1  C         17.3270  -21.0850  -11.3960 C.3     1  UNL1        0.0490
      2  C         18.7260  -21.4950  -11.0280 C.2     1  UNL1       -0.0460
      3  C         19.7970  -21.0130  -11.8000 C.2     1  UNL1        0.0090
      4  C         21.1170  -21.3330  -11.4710 C.2     1  UNL1        0.0250
      5  C         21.3760  -22.1390  -10.3610 C.2     1  UNL1        0.0750
      6  C         20.3290  -22.6570   -9.5980 C.2     1  UNL1        0.0420
      7  C         19.0070  -22.3450   -9.9400 C.2     1  UNL1        0.0390
      8  S         23.0530  -22.5490   -9.9470 S.O2    1  UNL1        0.2450
      9  O         23.0140  -23.5080   -8.8660 O.2     1  UNL1       -0.2060
     10  O         23.8010  -21.3140   -9.8520 O.2     1  UNL1       -0.2060
     11  N         23.5440  -23.3190  -11.3900 N.pl3   1  UNL1       -0.1810
     12  H         22.7440  -23.3070  -12.0260 H       1  UNL1        0.1460
     13  C         24.6910  -22.7170  -12.0020 C.2     1  UNL1        0.0230
     14  C         25.9750  -23.0550  -11.5730 C.2     1  UNL1        0.0240
     15  C         27.0850  -22.5040  -12.2110 C.2     1  UNL1        0.0030
     16  C         26.9110  -21.6260  -13.2830 C.2     1  UNL1        0.0160
     17  C         25.6230  -21.2910  -13.7310 C.2     1  UNL1        0.0490
     18  C         24.5130  -21.8580  -13.0860 C.2     1  UNL1        0.0400
     19  C         25.4370  -20.3710  -14.9110 C.3     1  UNL1        0.4170
     20  F         26.4150  -20.4980  -15.8500 F       1  UNL1       -0.1660
     21  F         25.4250  -19.0590  -14.5520 F       1  UNL1       -0.1660
     22  F         24.2630  -20.5890  -15.5700 F       1  UNL1       -0.1660
     23  C         17.9500  -22.9390   -9.0840 C.2     1  UNL1        0.2520
     24  O         16.9960  -23.5030   -9.6040 O.2     1  UNL1       -0.2680
     25  N         18.1100  -22.7450   -7.7290 N.am    1  UNL1       -0.3520
     26  H         18.8050  -22.0740   -7.4280 H       1  UNL1        0.1630
     27  C         17.0750  -23.1270   -6.7790 C.3     1  UNL1        0.0840
     28  C         17.6660  -23.2260   -5.3690 C.3     1  UNL1        0.0250
     29  C         16.5990  -23.5650   -4.3320 C.3     1  UNL1        0.0020
     30  C         15.4390  -22.5760   -4.3770 C.3     1  UNL1        0.0000
     31  C         14.8440  -22.4700   -5.7780 C.3     1  UNL1        0.0020
     32  C         15.9080  -22.1320   -6.8200 C.3     1  UNL1        0.0250
@<TRIPOS>BOND
     1    20    19    1
     2    22    19    1
     3    19    21    1
     4    19    17    1
     5    17    16    2
     6    17    18    1
     7    16    15    1
     8    18    13    2
     9    15    14    2
    10    12    11    1
    11    13    14    1
    12    13    11    1
    13     3     4    1
    14     3     2    2
    15     4     5    2
    16     1     2    1
    17    11     8    1
    18     2     7    1
    19     5     8    1
    20     5     6    1
    21     8    10    2
    22     8     9    2
    23     7     6    2
    24     7    23    1
    25    24    23    2
    26    23    25   am
    27    25    26    1
    28    25    27    1
    29    32    27    1
    30    32    31    1
    31    27    28    1
    32    31    30    1
    33    28    29    1
    34    30    29    1
