@<TRIPOS>MOLECULE
53352_out_ligand_01.pdbqt
 31 33 0 0 0
SMALL
GASTEIGER

@<TRIPOS>ATOM
      1  C         18.4860  -22.3790   -9.8480 C.2     1  UNL1        0.0810
      2  C         19.7880  -22.8930   -9.7370 C.2     1  UNL1        0.0420
      3  C         20.7680  -22.5430  -10.6700 C.2     1  UNL1        0.0330
      4  C         20.4510  -21.6640  -11.7080 C.2     1  UNL1        0.0170
      5  C         19.1540  -21.1560  -11.8230 C.2     1  UNL1        0.0090
      6  C         18.1520  -21.5010  -10.8970 C.2     1  UNL1       -0.0390
      7  C         16.7820  -20.9100  -11.0820 C.3     1  UNL1        0.0500
      8  S         17.2860  -22.9080   -8.6250 S.O2    1  UNL1        0.2460
      9  O         16.5110  -23.9800   -9.2160 O.2     1  UNL1       -0.2060
     10  O         16.6470  -21.7310   -8.0810 O.2     1  UNL1       -0.2060
     11  N         18.3100  -23.6210   -7.4540 N.pl3   1  UNL1       -0.1810
     12  H         18.1470  -24.6310   -7.4800 H       1  UNL1        0.1460
     13  C         18.0990  -23.1190   -6.1210 C.2     1  UNL1        0.0290
     14  C         18.8210  -22.0130   -5.6510 C.2     1  UNL1       -0.0400
     15  C         18.5570  -21.5380   -4.3570 C.2     1  UNL1        0.0090
     16  C         19.8690  -21.3330   -6.4830 C.3     1  UNL1        0.0500
     17  C         17.5970  -22.1510   -3.5480 C.2     1  UNL1        0.0070
     18  C         16.8650  -23.2430   -4.0220 C.2     1  UNL1       -0.0600
     19  C         15.8380  -23.9050   -3.1530 C.3     1  UNL1        0.0480
     20  C         17.1330  -23.7300   -5.3080 C.2     1  UNL1        0.0310
     21  C         22.1400  -23.0920  -10.4980 C.2     1  UNL1        0.2520
     22  O         22.3950  -23.7900   -9.5240 O.2     1  UNL1       -0.2680
     23  N         23.0520  -22.7820  -11.4850 N.am    1  UNL1       -0.3520
     24  H         22.7650  -22.2200  -12.2730 H       1  UNL1        0.1630
     25  C         24.4590  -23.1750  -11.3970 C.3     1  UNL1        0.0840
     26  C         24.9740  -23.5130  -12.8010 C.3     1  UNL1        0.0250
     27  C         26.4910  -23.5240  -12.9580 C.3     1  UNL1        0.0020
     28  C         27.0580  -22.1430  -13.2850 C.3     1  UNL1        0.0000
     29  C         27.0660  -21.1510  -12.1270 C.3     1  UNL1        0.0000
     30  C         25.7160  -20.9200  -11.4540 C.3     1  UNL1        0.0020
     31  C         25.2570  -22.1170  -10.6220 C.3     1  UNL1        0.0250
@<TRIPOS>BOND
     1    28    27    1
     2    28    29    1
     3    27    26    1
     4    26    25    1
     5    24    23    1
     6    29    30    1
     7     5     4    2
     8     5     6    1
     9     4     3    1
    10    23    25    1
    11    23    21   am
    12    30    31    1
    13    25    31    1
    14     7     6    1
    15     6     1    2
    16     3    21    1
    17     3     2    2
    18    21    22    2
    19     1     2    1
    20     1     8    1
    21     9     8    2
    22     8    10    2
    23     8    11    1
    24    12    11    1
    25    11    13    1
    26    16    14    1
    27    13    14    2
    28    13    20    1
    29    14    15    1
    30    20    18    2
    31    15    17    2
    32    18    17    1
    33    18    19    1
