@<TRIPOS>MOLECULE
53357_out_ligand_01.pdbqt
 43 46 0 0 0
SMALL
GASTEIGER

@<TRIPOS>ATOM
      1  C         22.7940  -22.7750   -9.2210 C.2     1  UNL1        0.2560
      2  O         23.3140  -23.8670   -9.0300 O.2     1  UNL1       -0.2670
      3  N         22.9700  -21.9570  -10.3230 N.am    1  UNL1       -0.3230
      4  H         22.5800  -21.0250  -10.2710 H       1  UNL1        0.1690
      5  C         21.9030  -22.2250   -8.1590 C.2     1  UNL1        0.0330
      6  C         20.6310  -22.7830   -7.9950 C.2     1  UNL1        0.0420
      7  C         19.7580  -22.2960   -7.0040 C.2     1  UNL1        0.0860
      8  C         20.1480  -21.2250   -6.1770 C.2     1  UNL1       -0.0390
      9  C         21.4210  -20.6590   -6.3790 C.2     1  UNL1        0.0090
     10  C         19.2740  -20.6250   -5.1110 C.3     1  UNL1        0.0500
     11  C         22.2890  -21.1480   -7.3570 C.2     1  UNL1        0.0170
     12  S         18.1530  -23.0850   -6.9090 S.O2    1  UNL1        0.2630
     13  O         18.2220  -24.2430   -6.0470 O.2     1  UNL1       -0.2000
     14  O         17.1810  -22.0440   -6.6500 O.2     1  UNL1       -0.2000
     15  N         17.8970  -23.5580   -8.4940 N.pl3   1  UNL1       -0.2800
     16  H         18.0660  -24.5410   -8.7080 H       1  UNL1        0.1790
     17  C         17.7540  -22.6240   -9.5490 C.2     1  UNL1        0.0490
     18  C         16.4750  -22.3040  -10.0280 C.2     1  UNL1       -0.0350
     19  C         16.3640  -21.4160  -11.1080 C.2     1  UNL1        0.0090
     20  C         15.2270  -22.8420   -9.3880 C.3     1  UNL1        0.0500
     21  C         17.5030  -20.8910  -11.7240 C.2     1  UNL1        0.0070
     22  C         18.7780  -21.2370  -11.2660 C.2     1  UNL1       -0.0600
     23  C         20.0020  -20.7160  -11.9580 C.3     1  UNL1        0.0480
     24  C         18.8930  -22.1240  -10.1890 C.2     1  UNL1        0.0370
     25  C         23.6990  -22.2480  -11.4960 C.2     1  UNL1        0.0350
     26  C         24.8820  -22.9910  -11.5160 C.2     1  UNL1        0.0310
     27  C         25.5380  -23.2550  -12.7250 C.2     1  UNL1        0.0270
     28  C         24.9950  -22.7870  -13.9210 C.2     1  UNL1        0.0800
     29  C         23.8270  -22.0220  -13.9160 C.2     1  UNL1        0.0270
     30  C         23.1800  -21.7630  -12.7050 C.2     1  UNL1        0.0310
     31  S         25.8140  -23.1270  -15.4640 S.O2    1  UNL1        0.2630
     32  O         24.9130  -22.7730  -16.5390 O.2     1  UNL1       -0.2000
     33  O         26.3860  -24.4530  -15.3660 O.2     1  UNL1       -0.2000
     34  N         27.1210  -22.0480  -15.4510 N.pl3   1  UNL1       -0.2790
     35  H         27.6850  -22.1770  -14.6090 H       1  UNL1        0.1790
     36  C         26.8930  -20.6900  -15.8440 C.2     1  UNL1        0.0640
     37  C         26.7820  -20.3700  -17.1990 C.2     1  UNL1        0.0330
     38  C         26.5250  -19.0540  -17.5900 C.2     1  UNL1        0.0260
     39  C         26.3760  -18.0590  -16.6240 C.2     1  UNL1        0.0350
     40 CL         26.0560  -16.4410  -17.1110 Cl      1  UNL1       -0.0840
     41  C         26.4830  -18.3630  -15.2690 C.2     1  UNL1        0.0500
     42  C         26.7450  -19.6770  -14.8810 C.2     1  UNL1        0.0620
     43 CL         26.8850  -20.0300  -13.1950 Cl      1  UNL1       -0.0820
@<TRIPOS>BOND
     1    38    37    1
     2    38    39    2
     3    37    36    2
     4    40    39    1
     5    39    41    1
     6    32    31    2
     7    36    34    1
     8    36    42    1
     9    31    34    1
    10    31    33    2
    11    31    28    1
    12    34    35    1
    13    41    42    2
    14    42    43    1
    15    28    29    2
    16    28    27    1
    17    29    30    1
    18    27    26    2
    19    30    25    2
    20    23    22    1
    21    21    22    2
    22    21    19    1
    23    26    25    1
    24    25     3    1
    25    22    24    1
    26    19    18    2
    27     3     4    1
    28     3     1   am
    29    24    17    2
    30    18    17    1
    31    18    20    1
    32    17    15    1
    33     1     2    2
    34     1     5    1
    35    16    15    1
    36    15    12    1
    37     5     6    2
    38     5    11    1
    39     6     7    1
    40    11     9    2
    41     7    12    1
    42     7     8    2
    43    12    14    2
    44    12    13    2
    45     9     8    1
    46     8    10    1
