@<TRIPOS>MOLECULE
53382_out_ligand_01.pdbqt
 32 34 0 0 0
SMALL
GASTEIGER

@<TRIPOS>ATOM
      1  C         17.4220  -23.2850   -8.9320 C.2     1  UNL1        0.1020
      2  C         18.8200  -23.4340   -9.0100 C.2     1  UNL1        0.0440
      3  C         19.5590  -22.7620   -9.9880 C.2     1  UNL1        0.0340
      4  C         18.9040  -21.9340  -10.9000 C.2     1  UNL1        0.0190
      5  C         17.5140  -21.7990  -10.8340 C.2     1  UNL1        0.0260
      6  C         16.7620  -22.4730   -9.8570 C.2     1  UNL1        0.0570
      7 CL         15.0650  -22.1850   -9.9060 Cl      1  UNL1       -0.0830
      8  S         16.6120  -24.1950   -7.6390 S.O2    1  UNL1        0.2650
      9  O         15.5100  -24.9650   -8.1640 O.2     1  UNL1       -0.2000
     10  O         17.6590  -24.8590   -6.8870 O.2     1  UNL1       -0.2000
     11  N         16.0260  -22.9870   -6.6200 N.pl3   1  UNL1       -0.2800
     12  H         15.0250  -23.0630   -6.4510 H       1  UNL1        0.1790
     13  C         16.8520  -22.4320   -5.6000 C.2     1  UNL1        0.0490
     14  C         16.5710  -22.6900   -4.2470 C.2     1  UNL1       -0.0350
     15  C         17.4140  -22.1430   -3.2670 C.2     1  UNL1        0.0090
     16  C         15.3880  -23.5100   -3.8130 C.3     1  UNL1        0.0500
     17  C         18.5130  -21.3580   -3.6240 C.2     1  UNL1        0.0070
     18  C         18.7900  -21.1000   -4.9680 C.2     1  UNL1       -0.0600
     19  C         19.9420  -20.2220   -5.3580 C.3     1  UNL1        0.0480
     20  C         17.9400  -21.6260   -5.9480 C.2     1  UNL1        0.0370
     21  C         21.0400  -22.9090   -9.9860 C.2     1  UNL1        0.2560
     22  O         21.5490  -23.5130   -9.0500 O.2     1  UNL1       -0.2670
     23  N         21.6840  -22.3590  -11.0770 N.am    1  UNL1       -0.3230
     24  H         21.1020  -22.0040  -11.8250 H       1  UNL1        0.1690
     25  C         23.0750  -22.3190  -11.3110 C.2     1  UNL1        0.0380
     26  C         23.5950  -23.2440  -12.2320 C.2     1  UNL1        0.0320
     27  C         24.9610  -23.2690  -12.5270 C.2     1  UNL1        0.0480
     28  C         25.8100  -22.3660  -11.9020 C.2     1  UNL1        0.1540
     29  F         27.1190  -22.3890  -12.1870 F       1  UNL1       -0.2030
     30  C         25.3060  -21.4450  -10.9940 C.2     1  UNL1        0.1570
     31  F         26.1290  -20.5720  -10.3980 F       1  UNL1       -0.2030
     32  C         23.9450  -21.4150  -10.6950 C.2     1  UNL1        0.0750
@<TRIPOS>BOND
     1    27    26    1
     2    27    28    2
     3    26    25    2
     4    29    28    1
     5    28    30    1
     6    24    23    1
     7    25    23    1
     8    25    32    1
     9    23    21   am
    10    30    32    2
    11    30    31    1
    12     4     5    2
    13     4     3    1
    14     5     6    1
    15     3    21    1
    16     3     2    2
    17    21    22    2
    18     7     6    1
    19     6     1    2
    20     2     1    1
    21     1     8    1
    22     9     8    2
    23     8    10    2
    24     8    11    1
    25    11    12    1
    26    11    13    1
    27    20    13    2
    28    20    18    1
    29    13    14    1
    30    19    18    1
    31    18    17    2
    32    14    16    1
    33    14    15    2
    34    17    15    1
