@<TRIPOS>MOLECULE
53391_out_ligand_01.pdbqt
 37 39 0 0 0
SMALL
GASTEIGER

@<TRIPOS>ATOM
      1  C         16.2930  -23.3480   -8.7350 C.2     1  UNL1        0.0690
      2  C         15.8560  -22.1970   -8.0710 C.2     1  UNL1        0.0380
      3  C         15.5510  -22.2310   -6.7090 C.2     1  UNL1        0.0280
      4  C         15.6830  -23.4310   -6.0100 C.2     1  UNL1        0.0800
      5  C         16.1380  -24.5840   -6.6560 C.2     1  UNL1        0.0280
      6  C         16.4390  -24.5410   -8.0220 C.2     1  UNL1        0.0380
      7  O         16.5710  -23.1640  -10.0620 O.2     1  UNL1       -0.3420
      8  C         16.5740  -21.8320  -10.5640 C.3     1  UNL1        0.2780
      9  C         17.8920  -21.3870  -11.2110 C.2     1  UNL1        0.2460
     10  O         17.9540  -20.3330  -11.8370 O.2     1  UNL1       -0.2710
     11  N         18.9270  -22.2720  -10.9730 N.am    1  UNL1       -0.3250
     12  H         18.6660  -23.1150  -10.4700 H       1  UNL1        0.1690
     13  C         20.2650  -22.1760  -11.3970 C.2     1  UNL1        0.0340
     14  C         21.2230  -22.8720  -10.6510 C.2     1  UNL1        0.0300
     15  C         22.5760  -22.8280  -11.0060 C.2     1  UNL1        0.0180
     16  C         22.9980  -22.0790  -12.1110 C.2     1  UNL1        0.0480
     17  C         22.0350  -21.3900  -12.8600 C.2     1  UNL1        0.0180
     18  C         20.6810  -21.4350  -12.5040 C.2     1  UNL1        0.0300
     19  C         24.4530  -22.0470  -12.5110 C.3     1  UNL1        0.4170
     20  F         24.6390  -21.8960  -13.8520 F       1  UNL1       -0.1660
     21  F         25.1430  -21.0270  -11.9260 F       1  UNL1       -0.1660
     22  F         25.1100  -23.1880  -12.1670 F       1  UNL1       -0.1660
     23  S         15.3170  -23.4900   -4.2740 S.O2    1  UNL1        0.2630
     24  O         14.6100  -22.2710   -3.9420 O.2     1  UNL1       -0.2000
     25  O         14.7590  -24.7860   -3.9550 O.2     1  UNL1       -0.2000
     26  N         16.8490  -23.3470   -3.5690 N.pl3   1  UNL1       -0.2810
     27  H         17.1870  -24.2610   -3.2640 H       1  UNL1        0.1790
     28  C         17.7830  -22.4730   -4.1860 C.2     1  UNL1        0.0430
     29  C         18.0210  -21.2180   -3.6300 C.2     1  UNL1        0.0300
     30  C         18.9040  -20.3370   -4.2530 C.2     1  UNL1        0.0030
     31  C         19.5430  -20.7120   -5.4350 C.2     1  UNL1        0.0160
     32  C         19.3090  -21.9740   -6.0060 C.2     1  UNL1        0.0500
     33  C         18.4140  -22.8500   -5.3720 C.2     1  UNL1        0.0460
     34  C         19.9760  -22.3640   -7.3000 C.3     1  UNL1        0.4170
     35  F         19.4200  -21.7550   -8.3850 F       1  UNL1       -0.1660
     36  F         21.3010  -22.0470   -7.3360 F       1  UNL1       -0.1660
     37  F         19.9020  -23.7010   -7.5420 F       1  UNL1       -0.1660
@<TRIPOS>BOND
     1    20    19    1
     2    17    18    1
     3    17    16    2
     4    19    22    1
     5    19    16    1
     6    19    21    1
     7    18    13    2
     8    16    15    1
     9    10     9    2
    10    13    11    1
    11    13    14    1
    12     9    11   am
    13     9     8    1
    14    15    14    2
    15    11    12    1
    16     8     7    1
    17     7     1    1
    18     1     2    2
    19     1     6    1
    20    35    34    1
    21     2     3    1
    22     6     5    2
    23    37    34    1
    24    36    34    1
    25    34    32    1
    26     3     4    2
    27     5     4    1
    28     4    23    1
    29    32    31    2
    30    32    33    1
    31    31    30    1
    32    33    28    2
    33    23    25    2
    34    23    24    2
    35    23    26    1
    36    30    29    2
    37    28    29    1
    38    28    26    1
    39    26    27    1
