@<TRIPOS>MOLECULE
53390_out_ligand_01.pdbqt
 37 39 0 0 0
SMALL
GASTEIGER

@<TRIPOS>ATOM
      1  C         21.0800  -23.4670   -8.6480 C.2     1  UNL1        0.0690
      2  C         21.0130  -22.3280   -7.8410 C.2     1  UNL1        0.0380
      3  C         19.9830  -22.1910   -6.9040 C.2     1  UNL1        0.0280
      4  C         19.0180  -23.1950   -6.7800 C.2     1  UNL1        0.0800
      5  C         19.0810  -24.3400   -7.5760 C.2     1  UNL1        0.0280
      6  C         20.1080  -24.4650   -8.5130 C.2     1  UNL1        0.0380
      7  O         22.0530  -23.7470   -9.5710 O.2     1  UNL1       -0.3420
      8  C         23.3800  -23.3060   -9.3040 C.3     1  UNL1        0.2780
      9  C         23.7760  -21.9800   -9.9740 C.2     1  UNL1        0.2460
     10  O         23.2380  -20.9280   -9.6410 O.2     1  UNL1       -0.2710
     11  N         24.7420  -22.1510  -10.9580 N.am    1  UNL1       -0.3250
     12  H         25.0800  -23.1090  -11.0460 H       1  UNL1        0.1690
     13  C         25.4150  -21.1560  -11.7070 C.2     1  UNL1        0.0490
     14  C         26.3430  -20.2810  -11.1190 C.2     1  UNL1        0.0300
     15  C         27.0220  -19.3250  -11.8800 C.2     1  UNL1        0.0020
     16  C         26.7840  -19.2190  -13.2440 C.2     1  UNL1        0.0010
     17  C         25.8590  -20.0670  -13.8450 C.2     1  UNL1        0.0180
     18  C         25.1690  -21.0450  -13.0940 C.2     1  UNL1        0.0740
     19  C         24.1420  -21.8810  -13.8160 C.3     1  UNL1        0.4190
     20  F         24.0590  -21.6080  -15.1500 F       1  UNL1       -0.1660
     21  F         22.8810  -21.6960  -13.3210 F       1  UNL1       -0.1660
     22  F         24.3730  -23.2260  -13.7310 F       1  UNL1       -0.1660
     23  S         17.7350  -23.0500   -5.5580 S.O2    1  UNL1        0.2630
     24  O         18.1660  -22.0980   -4.5560 O.2     1  UNL1       -0.2000
     25  O         17.3350  -24.3930   -5.1950 O.2     1  UNL1       -0.2000
     26  N         16.4480  -22.4010   -6.4290 N.pl3   1  UNL1       -0.2810
     27  H         15.6220  -22.2470   -5.8520 H       1  UNL1        0.1790
     28  C         16.2910  -22.6660   -7.8170 C.2     1  UNL1        0.0430
     29  C         15.5800  -23.7700   -8.2830 C.2     1  UNL1        0.0300
     30  C         15.4520  -23.9910   -9.6550 C.2     1  UNL1        0.0030
     31  C         16.0480  -23.1170  -10.5650 C.2     1  UNL1        0.0160
     32  C         16.7780  -22.0070  -10.1110 C.2     1  UNL1        0.0500
     33  C         16.9010  -21.7960   -8.7270 C.2     1  UNL1        0.0460
     34  C         17.4520  -21.0770  -11.0900 C.3     1  UNL1        0.4170
     35  F         16.9260  -19.8150  -11.0830 F       1  UNL1       -0.1660
     36  F         18.7800  -20.9290  -10.8240 F       1  UNL1       -0.1660
     37  F         17.3660  -21.5080  -12.3810 F       1  UNL1       -0.1660
@<TRIPOS>BOND
     1    20    19    1
     2    17    16    2
     3    17    18    1
     4    19    22    1
     5    19    21    1
     6    19    18    1
     7    16    15    1
     8    18    13    2
     9    37    34    1
    10    15    14    2
    11    13    14    1
    12    13    11    1
    13    34    35    1
    14    34    36    1
    15    34    32    1
    16    12    11    1
    17    11     9   am
    18    31    32    2
    19    31    30    1
    20    32    33    1
    21     9    10    2
    22     9     8    1
    23    30    29    2
    24     7     8    1
    25     7     1    1
    26    33    28    2
    27     1     6    2
    28     1     2    1
    29     6     5    1
    30    29    28    1
    31     2     3    2
    32    28    26    1
    33     5     4    2
    34     3     4    1
    35     4    23    1
    36    26    27    1
    37    26    23    1
    38    23    25    2
    39    23    24    2
