@<TRIPOS>MOLECULE
53409_out_ligand_01.pdbqt
 33 35 0 0 0
SMALL
GASTEIGER

@<TRIPOS>ATOM
      1  C         16.4790  -21.0290  -10.9460 C.3     1  UNL1        0.0500
      2  C         17.8920  -21.5290  -10.8330 C.2     1  UNL1       -0.0390
      3  C         18.8490  -20.9890  -11.7140 C.2     1  UNL1        0.0090
      4  C         20.1820  -21.4090  -11.6910 C.2     1  UNL1        0.0170
      5  C         20.5900  -22.3850  -10.7800 C.2     1  UNL1        0.0330
      6  C         19.6470  -22.9590   -9.9210 C.2     1  UNL1        0.0420
      7  C         18.3080  -22.5240   -9.9290 C.2     1  UNL1        0.0860
      8  C         22.0030  -22.8590  -10.7000 C.2     1  UNL1        0.2560
      9  O         22.3140  -23.6020   -9.7780 O.2     1  UNL1       -0.2670
     10  N         22.8540  -22.3530  -11.6670 N.am    1  UNL1       -0.3230
     11  H         22.4890  -21.6230  -12.2650 H       1  UNL1        0.1690
     12  C         24.2170  -22.6680  -11.8540 C.2     1  UNL1        0.0370
     13  C         25.1240  -22.1400  -10.9220 C.2     1  UNL1        0.0290
     14  C         26.4940  -22.3930  -11.0260 C.2     1  UNL1        0.0050
     15  C         26.9790  -23.1760  -12.0710 C.2     1  UNL1        0.0360
     16  C         26.0800  -23.6990  -13.0100 C.2     1  UNL1        0.1050
     17  C         24.7030  -23.4500  -12.9060 C.2     1  UNL1        0.0650
     18  N         26.5930  -24.5130  -14.1180 N.pl3   1  UNL1       -0.1160
     19  O         27.0530  -25.6320  -13.8450 O.2     1  UNL1       -0.5320
     20  O         26.5470  -24.0350  -15.2610 O.2     1  UNL1       -0.5320
     21  S         17.2130  -23.3460   -8.7730 S.O2    1  UNL1        0.2630
     22  O         16.1070  -23.9470   -9.4830 O.2     1  UNL1       -0.2000
     23  O         18.0480  -24.1520   -7.9050 O.2     1  UNL1       -0.2000
     24  N         16.6450  -22.0800   -7.8170 N.pl3   1  UNL1       -0.2800
     25  H         16.0180  -21.4490   -8.3090 H       1  UNL1        0.1790
     26  C         16.5280  -22.2310   -6.4080 C.2     1  UNL1        0.0490
     27  C         15.3080  -22.6840   -5.8970 C.2     1  UNL1        0.0310
     28  C         15.1220  -22.8230   -4.5260 C.2     1  UNL1        0.0030
     29  C         16.1580  -22.4990   -3.6540 C.2     1  UNL1        0.0070
     30  C         17.3920  -22.0410   -4.1430 C.2     1  UNL1       -0.0540
     31  C         18.4760  -21.7020   -3.1530 C.3     1  UNL1        0.0490
     32  C         17.5970  -21.9250   -5.5410 C.2     1  UNL1       -0.0290
     33  C         18.9260  -21.4360   -6.0550 C.3     1  UNL1        0.0510
@<TRIPOS>BOND
     1    20    18    2
     2    18    19    2
     3    18    16    1
     4    16    17    1
     5    16    15    2
     6    17    12    2
     7    11    10    1
     8    15    14    1
     9    12    10    1
    10    12    13    1
    11     3     4    1
    12     3     2    2
    13     4     5    2
    14    10     8   am
    15    14    13    2
    16     1     2    1
    17     2     7    1
    18     5     8    1
    19     5     6    1
    20     8     9    2
    21     7     6    2
    22     7    21    1
    23    22    21    2
    24    21    23    2
    25    21    24    1
    26    25    24    1
    27    24    26    1
    28    26    27    2
    29    26    32    1
    30    33    32    1
    31    27    28    1
    32    32    30    2
    33    28    29    2
    34    30    29    1
    35    30    31    1
