@<TRIPOS>MOLECULE
53402_out_ligand_01.pdbqt
 38 41 0 0 0
SMALL
GASTEIGER

@<TRIPOS>ATOM
      1  C         20.2980  -22.2310   -9.3490 C.2     1  UNL1        0.0910
      2  C         20.5600  -23.0160   -8.2180 C.2     1  UNL1        0.0400
      3  C         19.5170  -23.6720   -7.5580 C.2     1  UNL1        0.0280
      4  C         18.2080  -23.5380   -8.0300 C.2     1  UNL1        0.0810
      5  C         17.9240  -22.7440   -9.1430 C.2     1  UNL1        0.0520
      6  C         18.9720  -22.0970   -9.7970 C.2     1  UNL1        0.0680
      7 CL         18.5990  -21.1690  -11.2100 Cl      1  UNL1       -0.0810
      8  O         21.2620  -21.5570  -10.0560 O.2     1  UNL1       -0.3400
      9  C         22.5990  -21.6200   -9.5730 C.3     1  UNL1        0.2780
     10  C         23.6720  -21.6300  -10.6710 C.2     1  UNL1        0.2460
     11  N         23.1630  -22.0230  -11.8990 N.am    1  UNL1       -0.3250
     12  H         22.1780  -22.2750  -11.9010 H       1  UNL1        0.1690
     13  O         24.8240  -21.2860  -10.4280 O.2     1  UNL1       -0.2710
     14  C         23.8550  -22.1780  -13.1130 C.2     1  UNL1        0.0340
     15  C         23.5510  -21.2710  -14.1390 C.2     1  UNL1        0.0310
     16  C         24.1910  -21.3540  -15.3790 C.2     1  UNL1        0.0270
     17  C         25.1460  -22.3480  -15.5920 C.2     1  UNL1        0.0740
     18  C         25.4490  -23.2680  -14.5860 C.2     1  UNL1        0.0270
     19  C         24.8060  -23.1750  -13.3470 C.2     1  UNL1        0.0310
     20  S         25.9540  -22.4690  -17.1660 S.O2    1  UNL1        0.2390
     21  O         26.0140  -21.1480  -17.7490 O.2     1  UNL1       -0.2060
     22  O         27.1200  -23.3070  -17.0190 O.2     1  UNL1       -0.2060
     23  N         24.8130  -23.3190  -18.0640 N.3     1  UNL1       -0.2250
     24  H         24.4120  -22.7770  -18.8280 H       1  UNL1        0.1360
     25  H         25.2320  -24.1910  -18.3910 H       1  UNL1        0.1360
     26  S         16.8630  -24.3730   -7.2110 S.O2    1  UNL1        0.2650
     27  O         17.4960  -25.3320   -6.3320 O.2     1  UNL1       -0.2000
     28  O         15.9310  -24.7980   -8.2360 O.2     1  UNL1       -0.2000
     29  N         16.1460  -23.0850   -6.3140 N.pl3   1  UNL1       -0.2710
     30  C         14.7850  -23.3670   -5.7700 C.3     1  UNL1        0.1420
     31  C         14.8660  -23.9790   -4.3820 C.3     1  UNL1        0.0260
     32  C         15.5590  -23.0250   -3.4240 C.3     1  UNL1        0.0420
     33  C         16.7930  -22.3980   -4.0140 C.2     1  UNL1       -0.0310
     34  C         17.6810  -21.7270   -3.1560 C.2     1  UNL1        0.0090
     35  C         17.0380  -22.3980   -5.3980 C.2     1  UNL1        0.0510
     36  C         18.7970  -21.0630   -3.6630 C.2     1  UNL1        0.0010
     37  C         19.0260  -21.0460   -5.0340 C.2     1  UNL1        0.0020
     38  C         18.1470  -21.7030   -5.8960 C.2     1  UNL1        0.0310
@<TRIPOS>BOND
     1    24    23    1
     2    25    23    1
     3    23    20    1
     4    21    20    2
     5    20    22    2
     6    20    17    1
     7    17    16    2
     8    17    18    1
     9    16    15    1
    10    18    19    2
    11    15    14    2
    12    19    14    1
    13    14    11    1
    14    12    11    1
    15    11    10   am
    16     7     6    1
    17    10    13    2
    18    10     9    1
    19     8     9    1
    20     8     1    1
    21     6     1    2
    22     6     5    1
    23     1     2    1
    24     5     4    2
    25    28    26    2
    26     2     3    2
    27     4     3    1
    28     4    26    1
    29    26    27    2
    30    26    29    1
    31    29    30    1
    32    29    35    1
    33    38    35    1
    34    38    37    2
    35    30    31    1
    36    35    33    2
    37    37    36    1
    38    31    32    1
    39    33    32    1
    40    33    34    1
    41    36    34    2
