@<TRIPOS>MOLECULE
53408_out_ligand_01.pdbqt
 38 41 0 0 0
SMALL
GASTEIGER

@<TRIPOS>ATOM
      1  C         18.3390  -22.8150   -6.5170 C.2     1  UNL1        0.0970
      2  C         19.5200  -22.7540   -7.2750 C.2     1  UNL1        0.0430
      3  C         20.4890  -21.7860   -6.9890 C.2     1  UNL1        0.0340
      4  C         20.2930  -20.8930   -5.9310 C.2     1  UNL1        0.0190
      5  C         19.1170  -20.9620   -5.1780 C.2     1  UNL1        0.0260
      6  C         18.1330  -21.9170   -5.4670 C.2     1  UNL1        0.0570
      7 CL         16.7360  -21.9060   -4.4540 Cl      1  UNL1       -0.0830
      8  C         21.7320  -21.7580   -7.8040 C.2     1  UNL1        0.2560
      9  O         22.6470  -21.0400   -7.4220 O.2     1  UNL1       -0.2670
     10  N         21.7170  -22.5900   -8.9080 N.am    1  UNL1       -0.3230
     11  H         20.9160  -23.2000   -9.0130 H       1  UNL1        0.1690
     12  C         22.7460  -22.7640   -9.8580 C.2     1  UNL1        0.0350
     13  C         24.0450  -23.1660   -9.5360 C.2     1  UNL1        0.0310
     14  C         25.0090  -23.3190  -10.5370 C.2     1  UNL1        0.0270
     15  C         24.6740  -23.0640  -11.8670 C.2     1  UNL1        0.0740
     16  C         23.3820  -22.6640  -12.2070 C.2     1  UNL1        0.0270
     17  C         22.4240  -22.5120  -11.2000 C.2     1  UNL1        0.0310
     18  S         25.9100  -23.2690  -13.1240 S.O2    1  UNL1        0.2430
     19  O         26.8920  -22.2230  -12.9300 O.2     1  UNL1       -0.2060
     20  O         26.2980  -24.6650  -13.1620 O.2     1  UNL1       -0.2060
     21  N         25.0470  -22.9420  -14.5640 N.3     1  UNL1       -0.2060
     22  C         25.1100  -24.0070  -15.6030 C.3     1  UNL1        0.1070
     23  C         24.4980  -23.5120  -16.9080 C.3     1  UNL1        0.0150
     24  C         25.2840  -22.3350  -17.4800 C.3     1  UNL1        0.0020
     25  C         25.9960  -21.5330  -16.3940 C.3     1  UNL1        0.0150
     26  C         25.2230  -21.5530  -15.0820 C.3     1  UNL1        0.1070
     27  S         17.1230  -24.0290   -6.9600 S.O2    1  UNL1        0.2470
     28  O         15.8360  -23.3660   -6.9860 O.2     1  UNL1       -0.2050
     29  O         17.3500  -25.1920   -6.1330 O.2     1  UNL1       -0.2050
     30  N         17.5110  -24.3330   -8.5940 N.pl3   1  UNL1       -0.1810
     31  H         18.4800  -24.6600   -8.6110 H       1  UNL1        0.1460
     32  C         17.3720  -23.1810   -9.4380 C.2     1  UNL1        0.0230
     33  C         16.1510  -22.5110   -9.5110 C.2     1  UNL1        0.0240
     34  C         16.0120  -21.4160  -10.3640 C.2     1  UNL1        0.0020
     35  C         17.0850  -21.0060  -11.1560 C.2     1  UNL1        0.0070
     36  C         18.3020  -21.6990  -11.1160 C.2     1  UNL1       -0.0600
     37  C         19.4610  -21.2530  -11.9580 C.3     1  UNL1        0.0480
     38  C         18.4380  -22.7870  -10.2450 C.2     1  UNL1        0.0310
@<TRIPOS>BOND
     1    24    23    1
     2    24    25    1
     3    23    22    1
     4    25    26    1
     5    22    21    1
     6    26    21    1
     7    21    18    1
     8    20    18    2
     9    18    19    2
    10    18    15    1
    11    16    15    2
    12    16    17    1
    13    37    36    1
    14    15    14    1
    15    17    12    2
    16    35    36    2
    17    35    34    1
    18    36    38    1
    19    14    13    2
    20    34    33    2
    21    38    32    2
    22    12    13    1
    23    12    10    1
    24    33    32    1
    25    32    30    1
    26    11    10    1
    27    10     8   am
    28    31    30    1
    29    30    27    1
    30     8     9    2
    31     8     3    1
    32     2     3    1
    33     2     1    2
    34     3     4    2
    35    28    27    2
    36    27     1    1
    37    27    29    2
    38     1     6    1
    39     4     5    1
    40     6     5    2
    41     6     7    1
