@<TRIPOS>MOLECULE
53427_out_ligand_01.pdbqt
 34 36 0 0 0
SMALL
GASTEIGER

@<TRIPOS>ATOM
      1  C         17.4430  -23.0680   -9.0990 C.2     1  UNL1        0.0860
      2  C         18.8310  -23.0200   -9.3260 C.2     1  UNL1        0.0420
      3  C         19.3500  -22.2230  -10.3500 C.2     1  UNL1        0.0330
      4  C         18.4800  -21.4580  -11.1320 C.2     1  UNL1        0.0170
      5  C         17.1000  -21.5170  -10.9160 C.2     1  UNL1        0.0090
      6  C         16.5560  -22.3300   -9.9080 C.2     1  UNL1       -0.0390
      7  C         15.0640  -22.3300   -9.7290 C.3     1  UNL1        0.0500
      8  C         20.8140  -22.1330  -10.6210 C.2     1  UNL1        0.2560
      9  O         21.5710  -22.0620   -9.6620 O.2     1  UNL1       -0.2670
     10  N         21.1630  -22.1060  -11.9580 N.am    1  UNL1       -0.3230
     11  H         20.4140  -22.0730  -12.6370 H       1  UNL1        0.1690
     12  C         22.4650  -22.0150  -12.5020 C.2     1  UNL1        0.0350
     13  C         23.5740  -22.6930  -11.9940 C.2     1  UNL1        0.0300
     14  C         24.8360  -22.5320  -12.5780 C.2     1  UNL1        0.0180
     15  C         25.0120  -21.6980  -13.6890 C.2     1  UNL1        0.0480
     16  C         23.8990  -21.0170  -14.1990 C.2     1  UNL1        0.0180
     17  C         22.6380  -21.1810  -13.6130 C.2     1  UNL1        0.0300
     18  C         26.3800  -21.5040  -14.2990 C.3     1  UNL1        0.4170
     19  F         27.1210  -20.5870  -13.6140 F       1  UNL1       -0.1660
     20  F         26.3420  -21.0630  -15.5920 F       1  UNL1       -0.1660
     21  F         27.1200  -22.6510  -14.3220 F       1  UNL1       -0.1660
     22  S         16.8740  -24.1120   -7.7600 S.O2    1  UNL1        0.2630
     23  O         15.7500  -24.8750   -8.2530 O.2     1  UNL1       -0.2000
     24  O         18.0300  -24.7950   -7.2110 O.2     1  UNL1       -0.2000
     25  N         16.2730  -23.0490   -6.6140 N.pl3   1  UNL1       -0.2800
     26  H         15.3920  -22.6290   -6.8960 H       1  UNL1        0.1790
     27  C         17.0460  -22.4310   -5.5870 C.2     1  UNL1        0.0490
     28  C         16.7660  -22.7480   -4.2430 C.2     1  UNL1       -0.0350
     29  C         17.5280  -22.1520   -3.2260 C.2     1  UNL1        0.0090
     30  C         15.6660  -23.6960   -3.8430 C.3     1  UNL1        0.0500
     31  C         18.5610  -21.2680   -3.5300 C.2     1  UNL1        0.0070
     32  C         18.8610  -20.9680   -4.8550 C.2     1  UNL1       -0.0600
     33  C         19.9890  -20.0360   -5.1960 C.3     1  UNL1        0.0480
     34  C         18.1240  -21.5850   -5.8750 C.2     1  UNL1        0.0370
@<TRIPOS>BOND
     1    20    18    1
     2    21    18    1
     3    18    15    1
     4    18    19    1
     5    16    15    2
     6    16    17    1
     7    15    14    1
     8    17    12    2
     9    11    10    1
    10    14    13    2
    11    12    13    1
    12    12    10    1
    13    10     8   am
    14     4     5    2
    15     4     3    1
    16     5     6    1
    17     8     3    1
    18     8     9    2
    19     3     2    2
    20     6     7    1
    21     6     1    2
    22     2     1    1
    23     1    22    1
    24    23    22    2
    25    22    24    2
    26    22    25    1
    27    26    25    1
    28    25    27    1
    29    34    27    2
    30    34    32    1
    31    27    28    1
    32    33    32    1
    33    32    31    2
    34    28    30    1
    35    28    29    2
    36    31    29    1
