@<TRIPOS>MOLECULE
53431_out_ligand_01.pdbqt
 32 34 0 0 0
SMALL
GASTEIGER

@<TRIPOS>ATOM
      1  C         18.2650  -23.1620   -9.1370 C.2     1  UNL1        0.1020
      2  C         19.0030  -22.4730  -10.1140 C.2     1  UNL1        0.0440
      3  C         20.3880  -22.6500  -10.2080 C.2     1  UNL1        0.0340
      4  C         21.0340  -23.5310   -9.3360 C.2     1  UNL1        0.0190
      5  C         20.2970  -24.2150   -8.3660 C.2     1  UNL1        0.0260
      6  C         18.9120  -24.0330   -8.2560 C.2     1  UNL1        0.0570
      7 CL         18.1120  -24.9640   -7.0420 Cl      1  UNL1       -0.0830
      8  S         16.5180  -22.8610   -9.0460 S.O2    1  UNL1        0.2650
      9  O         15.8700  -24.1140   -8.7190 O.2     1  UNL1       -0.2000
     10  O         16.1200  -22.1430  -10.2380 O.2     1  UNL1       -0.2000
     11  N         16.3590  -21.8000   -7.7470 N.pl3   1  UNL1       -0.2800
     12  H         16.8200  -20.9080   -7.9100 H       1  UNL1        0.1790
     13  C         16.2170  -22.2940   -6.4140 C.2     1  UNL1        0.0490
     14  C         15.0110  -22.9000   -6.0440 C.2     1  UNL1        0.0310
     15  C         14.8470  -23.4420   -4.7750 C.2     1  UNL1        0.0030
     16  C         15.8880  -23.3810   -3.8580 C.2     1  UNL1        0.0070
     17  C         17.1030  -22.7650   -4.1940 C.2     1  UNL1       -0.0540
     18  C         18.1930  -22.7220   -3.1540 C.3     1  UNL1        0.0490
     19  C         17.2670  -22.1810   -5.4760 C.2     1  UNL1       -0.0290
     20  C         18.5760  -21.5130   -5.8130 C.3     1  UNL1        0.0510
     21  C         21.1310  -21.9160  -11.2690 C.2     1  UNL1        0.2560
     22  O         20.6120  -20.9180  -11.7490 O.2     1  UNL1       -0.2670
     23  N         22.3720  -22.4440  -11.5800 N.am    1  UNL1       -0.3230
     24  H         22.7090  -23.2000  -10.9980 H       1  UNL1        0.1690
     25  C         23.2710  -21.9790  -12.5640 C.2     1  UNL1        0.0380
     26  C         22.8780  -21.3230  -13.7360 C.2     1  UNL1        0.0320
     27  C         23.8310  -20.8980  -14.6690 C.2     1  UNL1        0.0480
     28  C         25.1790  -21.1320  -14.4310 C.2     1  UNL1        0.1540
     29  F         26.0880  -20.7260  -15.3270 F       1  UNL1       -0.2030
     30  C         25.5780  -21.7840  -13.2740 C.2     1  UNL1        0.1570
     31  F         26.8780  -22.0150  -13.0430 F       1  UNL1       -0.2030
     32  C         24.6360  -22.2090  -12.3400 C.2     1  UNL1        0.0750
@<TRIPOS>BOND
     1    29    28    1
     2    27    28    2
     3    27    26    1
     4    28    30    1
     5    26    25    2
     6    30    31    1
     7    30    32    2
     8    25    32    1
     9    25    23    1
    10    22    21    2
    11    23    21   am
    12    23    24    1
    13    21     3    1
    14    10     8    2
    15     3     2    1
    16     3     4    2
    17     2     1    2
    18     4     5    1
    19     1     8    1
    20     1     6    1
    21     8     9    2
    22     8    11    1
    23     5     6    2
    24     6     7    1
    25    12    11    1
    26    11    13    1
    27    13    14    2
    28    13    19    1
    29    14    15    1
    30    20    19    1
    31    19    17    2
    32    15    16    2
    33    17    16    1
    34    17    18    1
