@<TRIPOS>MOLECULE
53430_out_ligand_01.pdbqt
 31 34 0 0 0
SMALL
GASTEIGER

@<TRIPOS>ATOM
      1  C         25.3830  -23.2790  -11.6240 C.2     1  UNL1        0.1790
      2  S         26.5880  -23.7500  -10.5690 S.2     1  UNL1       -0.0400
      3  N         24.0340  -23.1790  -11.3480 N.am    1  UNL1       -0.2990
      4  C         23.3880  -22.4040  -10.3900 C.2     1  UNL1        0.2580
      5  O         23.7550  -21.3190   -9.9600 O.2     1  UNL1       -0.2670
      6  H         23.5000  -23.9590  -11.7060 H       1  UNL1        0.1710
      7  C         22.0350  -22.9000  -10.0380 C.2     1  UNL1        0.0430
      8  C         21.9940  -23.9920   -9.1640 C.2     1  UNL1        0.0180
      9  C         20.7710  -24.4690   -8.7210 C.2     1  UNL1        0.0020
     10  C         19.5940  -23.8560   -9.1520 C.2     1  UNL1        0.0130
     11  C         19.5970  -22.7630  -10.0570 C.2     1  UNL1       -0.0070
     12  C         18.4140  -22.1310  -10.5250 C.2     1  UNL1        0.0220
     13  C         20.8500  -22.2840  -10.5250 C.2     1  UNL1       -0.0090
     14 BR         16.6710  -22.6610   -9.9580 Br      1  UNL1       -0.0500
     15  C         18.4620  -21.0750  -11.4400 C.2     1  UNL1        0.0200
     16  C         19.6850  -20.6290  -11.9180 C.2     1  UNL1        0.0020
     17  C         20.8600  -21.2290  -11.4710 C.2     1  UNL1        0.0130
     18  N         25.7470  -23.0560  -12.9290 N.am    1  UNL1       -0.3320
     19  H         26.2320  -23.8470  -13.3400 H       1  UNL1        0.1680
     20  C         25.6950  -21.8830  -13.7250 C.2     1  UNL1        0.0450
     21  C         26.0550  -20.6420  -13.1840 C.2     1  UNL1        0.0300
     22  C         26.0400  -19.4970  -13.9690 C.2     1  UNL1        0.0030
     23  C         25.6950  -19.5830  -15.3140 C.2     1  UNL1        0.0150
     24  C         25.3680  -20.8190  -15.9140 C.2     1  UNL1        0.0090
     25  C         25.0350  -20.9310  -17.2860 C.2     1  UNL1        0.0760
     26  C         25.3480  -21.9890  -15.1060 C.2     1  UNL1        0.0040
     27  C         24.6410  -22.1380  -17.8530 C.2     1  UNL1        0.0370
     28  C         24.5940  -23.2790  -17.0680 C.2     1  UNL1        0.0040
     29  C         24.9450  -23.2040  -15.7190 C.2     1  UNL1        0.0150
     30  O         25.0860  -19.8700  -18.1520 O.2     1  UNL1       -0.3600
     31  H         25.4550  -20.1830  -18.9930 H       1  UNL1        0.2170
@<TRIPOS>BOND
     1    31    30    1
     2    30    25    1
     3    27    25    2
     4    27    28    1
     5    25    24    1
     6    28    29    2
     7    24    23    2
     8    24    26    1
     9    29    26    1
    10    23    22    1
    11    26    20    2
    12    22    21    2
    13    20    21    1
    14    20    18    1
    15    19    18    1
    16    18     1    1
    17    16    17    2
    18    16    15    1
    19     6     3    1
    20     1     3    1
    21     1     2    2
    22    17    13    1
    23    15    12    2
    24     3     4   am
    25    13    11    1
    26    13     7    2
    27    12    11    1
    28    12    14    1
    29     4     7    1
    30     4     5    2
    31    11    10    2
    32     7     8    1
    33     8     9    2
    34    10     9    1
