@<TRIPOS>MOLECULE
53432_out_ligand_01.pdbqt
 33 35 0 0 0
SMALL
GASTEIGER

@<TRIPOS>ATOM
      1  C         20.9120  -22.3450  -11.0120 C.2     1  UNL1        0.0330
      2  C         20.4870  -21.3530  -11.9000 C.2     1  UNL1        0.0170
      3  C         19.1690  -20.8930  -11.8540 C.2     1  UNL1        0.0090
      4  C         18.2500  -21.4040  -10.9200 C.2     1  UNL1       -0.0390
      5  C         16.8460  -20.8650  -10.9460 C.3     1  UNL1        0.0500
      6  C         18.6840  -22.4170  -10.0420 C.2     1  UNL1        0.0860
      7  C         20.0040  -22.8940  -10.1030 C.2     1  UNL1        0.0420
      8  C         22.3100  -22.8570  -11.0250 C.2     1  UNL1        0.2560
      9  N         23.0820  -22.4030  -12.0810 N.am    1  UNL1       -0.3220
     10  H         22.6650  -21.6810  -12.6520 H       1  UNL1        0.1690
     11  O         22.6720  -23.5840  -10.1100 O.2     1  UNL1       -0.2670
     12  C         24.4220  -22.7450  -12.3860 C.2     1  UNL1        0.0430
     13  C         24.7490  -23.6970  -13.3600 C.2     1  UNL1        0.0660
     14  C         26.0900  -24.0000  -13.6290 C.2     1  UNL1        0.1050
     15  C         27.1210  -23.3580  -12.9370 C.2     1  UNL1        0.0370
     16  C         26.8030  -22.4050  -11.9730 C.2     1  UNL1        0.0110
     17  C         25.4620  -22.0860  -11.6880 C.2     1  UNL1       -0.0350
     18  C         25.1930  -21.0460  -10.6320 C.3     1  UNL1        0.0500
     19  N         26.4250  -24.9970  -14.6530 N.pl3   1  UNL1       -0.1160
     20  O         27.0620  -26.0000  -14.3030 O.2     1  UNL1       -0.5320
     21  O         26.0430  -24.7790  -15.8120 O.2     1  UNL1       -0.5320
     22  S         17.6020  -23.1720   -8.8290 S.O2    1  UNL1        0.2630
     23  O         18.3800  -24.1100   -8.0500 O.2     1  UNL1       -0.2000
     24  O         16.3940  -23.6050   -9.4980 O.2     1  UNL1       -0.2000
     25  N         17.1620  -21.8670   -7.8540 N.pl3   1  UNL1       -0.2800
     26  H         17.6060  -20.9970   -8.1360 H       1  UNL1        0.1790
     27  C         16.8290  -22.0610   -6.4800 C.2     1  UNL1        0.0480
     28  C         15.5430  -22.4790   -6.1260 C.2     1  UNL1        0.0300
     29  C         15.2120  -22.7040   -4.7900 C.2     1  UNL1        0.0020
     30  C         16.1630  -22.4970   -3.7960 C.2     1  UNL1        0.0010
     31  C         17.4420  -22.0590   -4.1380 C.2     1  UNL1        0.0090
     32  C         17.7900  -21.8280   -5.4800 C.2     1  UNL1       -0.0350
     33  C         19.1810  -21.3560   -5.7960 C.3     1  UNL1        0.0500
@<TRIPOS>BOND
     1    21    19    2
     2    19    20    2
     3    19    14    1
     4    14    13    1
     5    14    15    2
     6    13    12    2
     7    15    16    1
     8    10     9    1
     9    12     9    1
    10    12    17    1
    11     9     8   am
    12    16    17    2
    13     2     3    1
    14     2     1    2
    15     3     4    2
    16    17    18    1
    17     8     1    1
    18     8    11    2
    19     1     7    1
    20     5     4    1
    21     4     6    1
    22     7     6    2
    23     6    22    1
    24    24    22    2
    25    22    23    2
    26    22    25    1
    27    26    25    1
    28    25    27    1
    29    27    28    2
    30    27    32    1
    31    28    29    1
    32    33    32    1
    33    32    31    2
    34    29    30    2
    35    31    30    1
