@<TRIPOS>MOLECULE
53440_out_ligand_01.pdbqt
 30 32 0 0 0
SMALL
GASTEIGER

@<TRIPOS>ATOM
      1  C         18.4750  -22.2230  -10.0990 C.2     1  UNL1        0.0810
      2  C         19.7810  -22.7300  -10.0280 C.2     1  UNL1        0.0420
      3  C         20.7580  -22.2800  -10.9220 C.2     1  UNL1        0.0330
      4  C         20.4350  -21.3110  -11.8770 C.2     1  UNL1        0.0170
      5  C         19.1320  -20.8110  -11.9490 C.2     1  UNL1        0.0090
      6  C         18.1330  -21.2520  -11.0610 C.2     1  UNL1       -0.0390
      7  C         16.7510  -20.6780  -11.2050 C.3     1  UNL1        0.0500
      8  S         17.2750  -22.8700   -8.9390 S.O2    1  UNL1        0.2460
      9  O         16.5460  -21.7500   -8.3840 O.2     1  UNL1       -0.2060
     10  O         16.5910  -23.9740   -9.5780 O.2     1  UNL1       -0.2060
     11  N         18.3110  -23.5540   -7.7680 N.pl3   1  UNL1       -0.1810
     12  H         17.9540  -24.4890   -7.5600 H       1  UNL1        0.1460
     13  C         18.4150  -22.7760   -6.5660 C.2     1  UNL1        0.0230
     14  C         19.3120  -21.7110   -6.5140 C.2     1  UNL1        0.0240
     15  C         19.3950  -20.9310   -5.3610 C.2     1  UNL1        0.0020
     16  C         18.5670  -21.2050   -4.2710 C.2     1  UNL1        0.0070
     17  C         17.6360  -22.2480   -4.3310 C.2     1  UNL1       -0.0600
     18  C         16.7540  -22.5490   -3.1550 C.3     1  UNL1        0.0480
     19  C         17.5710  -23.0390   -5.4860 C.2     1  UNL1        0.0310
     20  C         22.1380  -22.8230  -10.8020 C.2     1  UNL1        0.2560
     21  O         22.3480  -23.6680   -9.9410 O.2     1  UNL1       -0.2670
     22  N         23.0410  -22.3170  -11.7190 N.am    1  UNL1       -0.3230
     23  H         22.6710  -21.7140  -12.4420 H       1  UNL1        0.1690
     24  C         24.4160  -22.6190  -11.8190 C.2     1  UNL1        0.0370
     25  C         25.4070  -22.0150  -11.0390 C.2     1  UNL1        0.0290
     26  C         26.7540  -22.3620  -11.2010 C.2     1  UNL1        0.0050
     27  C         27.1210  -23.3160  -12.1450 C.2     1  UNL1        0.0420
     28  C         26.1360  -23.9120  -12.9210 C.2     1  UNL1        0.1180
     29  F         26.4820  -24.8290  -13.8340 F       1  UNL1       -0.2060
     30  C         24.7940  -23.5740  -12.7690 C.2     1  UNL1        0.0710
@<TRIPOS>BOND
     1    29    28    1
     2    28    30    1
     3    28    27    2
     4    30    24    2
     5    23    22    1
     6    27    26    1
     7     5     4    2
     8     5     6    1
     9     4     3    1
    10    24    22    1
    11    24    25    1
    12    22    20   am
    13     7     6    1
    14    26    25    2
    15     6     1    2
    16     3    20    1
    17     3     2    2
    18    20    21    2
    19     1     2    1
    20     1     8    1
    21    10     8    2
    22     8     9    2
    23     8    11    1
    24    11    12    1
    25    11    13    1
    26    13    14    2
    27    13    19    1
    28    14    15    1
    29    19    17    2
    30    15    16    2
    31    17    16    1
    32    17    18    1
