@<TRIPOS>MOLECULE
53450_out_ligand_01.pdbqt
 39 42 0 0 0
SMALL
GASTEIGER

@<TRIPOS>ATOM
      1  C         21.9510  -23.4940   -9.8690 C.2     1  UNL1        0.2560
      2  O         21.9640  -24.4690   -9.1260 O.2     1  UNL1       -0.2670
      3  N         23.0360  -22.8930  -10.4680 N.am    1  UNL1       -0.3220
      4  H         22.8440  -22.1520  -11.1470 H       1  UNL1        0.1690
      5  C         20.6290  -22.8810  -10.1880 C.2     1  UNL1        0.0330
      6  C         19.5170  -23.2870   -9.4470 C.2     1  UNL1        0.0420
      7  C         18.2550  -22.7090   -9.6680 C.2     1  UNL1        0.0860
      8  C         18.0870  -21.7340  -10.6660 C.2     1  UNL1       -0.0390
      9  C         19.2190  -21.3380  -11.4050 C.2     1  UNL1        0.0090
     10  C         16.7720  -21.0880  -11.0010 C.3     1  UNL1        0.0500
     11  C         20.4780  -21.8970  -11.1650 C.2     1  UNL1        0.0170
     12  S         16.9310  -23.3230   -8.6300 S.O2    1  UNL1        0.2630
     13  O         17.5070  -24.3510   -7.7870 O.2     1  UNL1       -0.2000
     14  O         15.7580  -23.6040   -9.4270 O.2     1  UNL1       -0.2000
     15  N         16.6020  -22.0190   -7.6080 N.pl3   1  UNL1       -0.2800
     16  H         16.0180  -21.3170   -8.0560 H       1  UNL1        0.1790
     17  C         16.5110  -22.1900   -6.1960 C.2     1  UNL1        0.0480
     18  C         15.2980  -22.5650   -5.6120 C.2     1  UNL1        0.0300
     19  C         15.1930  -22.7270   -4.2290 C.2     1  UNL1        0.0020
     20  C         16.3060  -22.5260   -3.4220 C.2     1  UNL1        0.0010
     21  C         17.5280  -22.1780   -3.9970 C.2     1  UNL1        0.0090
     22  C         17.6510  -22.0190   -5.3880 C.2     1  UNL1       -0.0350
     23  C         18.9940  -21.6500   -5.9540 C.3     1  UNL1        0.0500
     24  C         24.4060  -23.2490  -10.3850 C.2     1  UNL1        0.0500
     25  C         24.9230  -23.9710   -9.3010 C.2     1  UNL1        0.0300
     26  C         26.2690  -24.3460   -9.2610 C.2     1  UNL1        0.0020
     27  C         27.1210  -24.0120  -10.3070 C.2     1  UNL1        0.0010
     28  C         26.6330  -23.2840  -11.3910 C.2     1  UNL1        0.0190
     29  C         25.2860  -22.8760  -11.4320 C.2     1  UNL1        0.0580
     30  C         24.7930  -22.0590  -12.5880 C.2     1  UNL1        0.2540
     31  O         23.6960  -21.5080  -12.5430 O.2     1  UNL1       -0.2680
     32  N         25.6400  -21.9240  -13.6650 N.am    1  UNL1       -0.3510
     33  H         26.6260  -22.1190  -13.5510 H       1  UNL1        0.1630
     34  C         25.2980  -21.0570  -14.7710 C.3     1  UNL1        0.1870
     35  C         24.9050  -21.9040  -15.9220 C.2     1  UNL1        0.0700
     36  C         24.7620  -23.2670  -16.0920 C.2     1  UNL1        0.0360
     37  C         24.3700  -23.4630  -17.4380 C.2     1  UNL1        0.0270
     38  C         24.2990  -22.2110  -18.0030 C.2     1  UNL1        0.1420
     39  O         24.6250  -21.2580  -17.0920 O.2     1  UNL1       -0.3250
@<TRIPOS>BOND
     1    38    37    2
     2    38    39    1
     3    37    36    1
     4    39    35    1
     5    36    35    2
     6    35    34    1
     7    34    32    1
     8    32    33    1
     9    32    30   am
    10    30    31    2
    11    30    29    1
    12    29    28    1
    13    29    24    2
    14     9    11    1
    15     9     8    2
    16    28    27    2
    17    11     5    2
    18     4     3    1
    19    10     8    1
    20     8     7    1
    21     3    24    1
    22     3     1   am
    23    24    25    1
    24    27    26    1
    25     5     1    1
    26     5     6    1
    27     1     2    2
    28     7     6    2
    29     7    12    1
    30    14    12    2
    31    25    26    2
    32    12    13    2
    33    12    15    1
    34    16    15    1
    35    15    17    1
    36    17    18    2
    37    17    22    1
    38    23    22    1
    39    18    19    1
    40    22    21    2
    41    19    20    2
    42    21    20    1
