@<TRIPOS>MOLECULE
53458_out_ligand_01.pdbqt
 31 36 0 0 0
SMALL
GASTEIGER

@<TRIPOS>ATOM
      1  C         21.1970  -22.4740  -10.4330 C.2     1  UNL1        0.0320
      2  C         22.5270  -22.8610  -10.6210 C.2     1  UNL1        0.0170
      3  C         23.2110  -22.4780  -11.7770 C.2     1  UNL1        0.0100
      4  C         22.5780  -21.6920  -12.7510 C.2     1  UNL1       -0.0300
      5  C         21.2490  -21.2930  -12.5470 C.2     1  UNL1        0.0100
      6  C         20.5610  -21.6800  -11.3930 C.2     1  UNL1        0.0170
      7  C         20.4990  -22.9040   -9.1900 C.2     1  UNL1        0.2520
      8  O         21.0550  -23.6770   -8.4220 O.2     1  UNL1       -0.2680
      9  N         19.2230  -22.4040   -9.0210 N.am    1  UNL1       -0.3480
     10  H         18.7930  -21.9700   -9.8280 H       1  UNL1        0.1630
     11  C         18.3270  -22.7820   -7.9220 C.3     1  UNL1        0.0340
     12  C         18.6740  -22.0340   -6.6100 C.3     1  UNL1        0.0350
     13  C         17.6860  -22.4140   -5.4920 C.3     1  UNL1       -0.0120
     14  C         16.2630  -22.0220   -5.9200 C.3     1  UNL1        0.0090
     15  C         17.7470  -23.9340   -5.2570 C.3     1  UNL1        0.0090
     16  C         15.8800  -22.7630   -7.2090 C.3     1  UNL1       -0.0120
     17  C         15.9440  -24.2790   -6.9650 C.3     1  UNL1        0.0090
     18  C         16.8760  -22.3900   -8.3190 C.3     1  UNL1        0.0350
     19  C         17.3660  -24.6840   -6.5450 C.3     1  UNL1       -0.0120
     20  C         18.3560  -24.3070   -7.6620 C.3     1  UNL1        0.0350
     21  C         23.3220  -21.2790  -14.0070 C.3     1  UNL1        0.3110
     22  N         24.7310  -21.7020  -14.0080 N.3     1  UNL1        0.0970
     23  C         25.0810  -22.4520  -15.2240 C.3     1  UNL1        0.2770
     24  C         25.0100  -21.6320  -16.5210 C.3     1  UNL1        0.0690
     25  C         25.5950  -20.2500  -16.3730 C.2     1  UNL1       -0.0490
     26  C         25.8250  -19.4620  -17.5090 C.2     1  UNL1        0.0070
     27  C         25.8600  -19.7270  -15.0940 C.2     1  UNL1       -0.0240
     28  C         26.3370  -18.1720  -17.3790 C.2     1  UNL1        0.0010
     29  C         26.6170  -17.6570  -16.1150 C.2     1  UNL1        0.0010
     30  C         26.3830  -18.4320  -14.9780 C.2     1  UNL1        0.0090
     31  C         25.6640  -20.5710  -13.8510 C.3     1  UNL1        0.3110
@<TRIPOS>BOND
     1    26    28    1
     2    26    25    2
     3    28    29    2
     4    24    25    1
     5    24    23    1
     6    25    27    1
     7    29    30    1
     8    23    22    1
     9    27    30    2
    10    27    31    1
    11    22    21    1
    12    22    31    1
    13    21     4    1
    14     4     5    2
    15     4     3    1
    16     5     6    1
    17     3     2    2
    18     6     1    2
    19     2     1    1
    20     1     7    1
    21    10     9    1
    22     7     9   am
    23     7     8    2
    24     9    11    1
    25    18    11    1
    26    18    16    1
    27    11    20    1
    28    11    12    1
    29    20    19    1
    30    16    17    1
    31    16    14    1
    32    17    19    1
    33    12    13    1
    34    19    15    1
    35    14    13    1
    36    13    15    1
