@<TRIPOS>MOLECULE
53468_out_ligand_01.pdbqt
 34 38 0 0 0
SMALL
GASTEIGER

@<TRIPOS>ATOM
      1  C         20.1500  -21.5830  -11.7800 C.2     1  UNL1        0.0320
      2  C         19.1240  -20.6310  -11.8450 C.2     1  UNL1        0.0170
      3  C         17.9010  -20.8740  -11.2160 C.2     1  UNL1        0.0100
      4  C         17.6810  -22.0780  -10.5290 C.2     1  UNL1       -0.0300
      5  C         18.7130  -23.0280  -10.4710 C.2     1  UNL1        0.0100
      6  C         19.9390  -22.7880  -11.0960 C.2     1  UNL1        0.0170
      7  C         21.4300  -21.3030  -12.4870 C.2     1  UNL1        0.2560
      8  O         21.4040  -20.5830  -13.4780 O.2     1  UNL1       -0.2670
      9  N         22.5440  -21.8810  -11.9140 N.am    1  UNL1       -0.3210
     10  H         22.4360  -22.3230  -11.0080 H       1  UNL1        0.1690
     11  C         23.8690  -21.8730  -12.4000 C.2     1  UNL1        0.0690
     12  C         24.2160  -22.1680  -13.7190 C.2     1  UNL1        0.0320
     13  C         25.5580  -22.1570  -14.1160 C.2     1  UNL1        0.0020
     14  C         26.5650  -21.8480  -13.2020 C.2     1  UNL1        0.0030
     15  C         26.2350  -21.5500  -11.8820 C.2     1  UNL1        0.0390
     16  C         24.8950  -21.5790  -11.4850 C.2     1  UNL1        0.1020
     17  O         24.5610  -21.2210  -10.1970 O.2     1  UNL1       -0.3090
     18  C         23.6370  -22.0020   -9.5340 C.2     1  UNL1        0.0760
     19  C         23.5650  -23.3970   -9.6080 C.2     1  UNL1        0.0370
     20  C         22.5540  -24.0810   -8.9210 C.2     1  UNL1        0.0030
     21  C         21.6190  -23.3740   -8.1660 C.2     1  UNL1        0.0000
     22  C         21.6840  -21.9800   -8.1010 C.2     1  UNL1        0.0030
     23  C         22.6910  -21.2960   -8.7870 C.2     1  UNL1        0.0370
     24  C         16.3480  -22.3590   -9.8640 C.3     1  UNL1        0.3110
     25  N         16.4620  -22.5290   -8.4080 N.3     1  UNL1        0.0970
     26  C         16.0180  -23.8730   -8.0010 C.3     1  UNL1        0.2770
     27  C         16.4200  -24.3400   -6.5790 C.3     1  UNL1        0.0690
     28  C         17.1450  -23.3080   -5.7580 C.2     1  UNL1       -0.0490
     29  C         17.1590  -23.3740   -4.3590 C.2     1  UNL1        0.0070
     30  C         17.8480  -22.2860   -6.4140 C.2     1  UNL1       -0.0240
     31  C         17.8580  -22.4170   -3.6180 C.2     1  UNL1        0.0010
     32  C         18.5600  -21.4070   -4.2680 C.2     1  UNL1        0.0010
     33  C         18.5660  -21.3460   -5.6640 C.2     1  UNL1        0.0090
     34  C         17.8170  -22.2430   -7.9210 C.3     1  UNL1        0.3110
@<TRIPOS>BOND
     1    13    12    1
     2    13    14    2
     3    12    11    2
     4     8     7    2
     5    14    15    1
     6     7     9   am
     7     7     1    1
     8    11     9    1
     9    11    16    1
    10     9    10    1
    11    15    16    2
    12     2     1    2
    13     2     3    1
    14     1     6    1
    15    16    17    1
    16     3     4    2
    17     6     5    2
    18     4     5    1
    19     4    24    1
    20    17    18    1
    21    24    25    1
    22    19    18    2
    23    19    20    1
    24    18    23    1
    25    20    21    2
    26    23    22    2
    27    25    26    1
    28    25    34    1
    29    21    22    1
    30    26    27    1
    31    34    30    1
    32    27    28    1
    33    30    28    2
    34    30    33    1
    35    28    29    1
    36    33    32    2
    37    29    31    2
    38    32    31    1
