@<TRIPOS>MOLECULE
53465_out_ligand_01.pdbqt
 36 39 0 0 0
SMALL
GASTEIGER

@<TRIPOS>ATOM
      1  N         18.5960  -22.9540   -6.5330 N.am    1  UNL1       -0.3220
      2  C         19.6110  -22.0260   -6.6590 C.2     1  UNL1        0.2560
      3  O         19.6820  -20.9460   -6.0810 O.2     1  UNL1       -0.2670
      4  H         18.7130  -23.8490   -7.0080 H       1  UNL1        0.1690
      5  C         20.7340  -22.4170   -7.5650 C.2     1  UNL1        0.0320
      6  C         21.8290  -21.5490   -7.6680 C.2     1  UNL1        0.0170
      7  C         22.9020  -21.8590   -8.5060 C.2     1  UNL1        0.0100
      8  C         22.9000  -23.0390   -9.2650 C.2     1  UNL1       -0.0300
      9  C         21.7960  -23.8970   -9.1680 C.2     1  UNL1        0.0100
     10  C         20.7170  -23.5880   -8.3310 C.2     1  UNL1        0.0170
     11  C         24.0730  -23.3720  -10.1630 C.3     1  UNL1        0.3110
     12  N         24.5160  -22.3390  -11.1020 N.3     1  UNL1        0.0970
     13  C         25.8550  -21.8120  -10.8310 C.3     1  UNL1        0.2770
     14  C         26.0740  -20.5030  -11.6020 C.3     1  UNL1        0.0690
     15  C         25.6750  -20.6060  -13.0520 C.2     1  UNL1       -0.0490
     16  C         26.0960  -19.6340  -13.9680 C.2     1  UNL1        0.0070
     17  C         24.8310  -21.6470  -13.4750 C.2     1  UNL1       -0.0240
     18  C         25.7040  -19.7090  -15.3030 C.2     1  UNL1        0.0010
     19  C         24.8870  -20.7520  -15.7320 C.2     1  UNL1        0.0010
     20  C         24.4530  -21.7170  -14.8230 C.2     1  UNL1        0.0090
     21  C         24.3930  -22.7340  -12.5120 C.3     1  UNL1        0.3110
     22  C         17.3740  -22.8360   -5.8230 C.2     1  UNL1        0.0500
     23  C         17.3330  -22.6750   -4.4320 C.2     1  UNL1        0.0300
     24  C         16.1170  -22.5260   -3.7600 C.2     1  UNL1        0.0020
     25  C         14.9200  -22.5230   -4.4670 C.2     1  UNL1        0.0010
     26  C         14.9330  -22.6860   -5.8510 C.2     1  UNL1        0.0190
     27  C         16.1500  -22.8650   -6.5360 C.2     1  UNL1        0.0580
     28  C         16.1380  -23.0660   -8.0190 C.2     1  UNL1        0.2530
     29  N         16.6330  -22.0310   -8.7910 N.am    1  UNL1       -0.3570
     30  H         16.7860  -21.1290   -8.3640 H       1  UNL1        0.1620
     31  O         15.6580  -24.0880   -8.5030 O.2     1  UNL1       -0.2680
     32  C         16.5850  -22.0730  -10.2410 C.3     1  UNL1        0.1250
     33  C         17.9470  -22.4210  -10.8360 C.3     1  UNL1        0.0460
     34  C         18.6870  -21.1770  -11.3090 C.3     1  UNL1        0.1680
     35  O         20.0610  -21.2820  -10.9430 O.3     1  UNL1       -0.3960
     36  C         20.8820  -21.5750  -12.0670 C.3     1  UNL1        0.2010
@<TRIPOS>BOND
     1    19    18    2
     2    19    20    1
     3    18    16    1
     4    20    17    2
     5    16    15    2
     6    17    15    1
     7    17    21    1
     8    15    14    1
     9    21    12    1
    10    36    35    1
    11    14    13    1
    12    34    35    1
    13    34    33    1
    14    12    13    1
    15    12    11    1
    16    33    32    1
    17    32    29    1
    18    11     8    1
    19     8     9    2
    20     8     7    1
    21     9    10    1
    22    29    30    1
    23    29    28   am
    24     7     6    2
    25    31    28    2
    26    10     5    2
    27    28    27    1
    28     6     5    1
    29     5     2    1
    30     4     1    1
    31     2     1   am
    32     2     3    2
    33    27    26    1
    34    27    22    2
    35     1    22    1
    36    26    25    2
    37    22    23    1
    38    25    24    1
    39    23    24    2
