@<TRIPOS>MOLECULE
53460_out_ligand_01.pdbqt
 36 39 0 0 0
SMALL
GASTEIGER

@<TRIPOS>ATOM
      1  C         19.5650  -21.9870   -6.4390 C.2     1  UNL1        0.2560
      2  O         19.6400  -20.8970   -5.8850 O.2     1  UNL1       -0.2670
      3  N         18.5760  -22.9350   -6.2650 N.am    1  UNL1       -0.3220
      4  H         18.7480  -23.8560   -6.6710 H       1  UNL1        0.1690
      5  C         17.3910  -22.8460   -5.4940 C.2     1  UNL1        0.0500
      6  C         17.3780  -22.3510   -4.1870 C.2     1  UNL1        0.0300
      7  C         16.1850  -22.2770   -3.4570 C.2     1  UNL1        0.0020
      8  C         14.9860  -22.7000   -4.0240 C.2     1  UNL1        0.0010
      9  C         14.9710  -23.1860   -5.3290 C.2     1  UNL1        0.0190
     10  C         16.1630  -23.2470   -6.0700 C.2     1  UNL1        0.0580
     11  C         16.1170  -23.7220   -7.4810 C.2     1  UNL1        0.2540
     12  O         16.4330  -24.8750   -7.7560 O.2     1  UNL1       -0.2680
     13  N         15.7960  -22.7750   -8.4330 N.am    1  UNL1       -0.3530
     14  H         15.8020  -21.8010   -8.1580 H       1  UNL1        0.1630
     15  C         15.9680  -23.0630   -9.8420 C.3     1  UNL1        0.1620
     16  C         17.0920  -22.2570  -10.4270 C.2     1  UNL1       -0.0230
     17  C         18.4070  -22.7350  -10.4560 C.2     1  UNL1        0.0120
     18  C         19.4060  -21.9700  -11.0500 C.2     1  UNL1        0.0200
     19  C         19.0570  -20.7480  -11.6060 C.2     1  UNL1        0.1160
     20  N         17.8000  -20.2530  -11.6030 N.2     1  UNL1       -0.2730
     21  C         16.8480  -21.0160  -11.0150 C.2     1  UNL1        0.1240
     22  C         20.6430  -22.3800   -7.3920 C.2     1  UNL1        0.0320
     23  C         20.5990  -23.5900   -8.0930 C.2     1  UNL1        0.0170
     24  C         21.6140  -23.9130   -8.9970 C.2     1  UNL1        0.0090
     25  C         22.6790  -23.0270   -9.2220 C.2     1  UNL1       -0.0490
     26  C         22.7110  -21.8120   -8.5230 C.2     1  UNL1        0.0090
     27  C         21.6970  -21.4880   -7.6180 C.2     1  UNL1        0.0170
     28  C         23.7490  -23.3610  -10.2360 C.3     1  UNL1        0.1170
     29  S         24.6230  -21.8890  -10.8750 S.3     1  UNL1       -0.1250
     30  C         24.6490  -22.2920  -12.6130 C.2     1  UNL1        0.0000
     31  C         25.2050  -23.5000  -13.0410 C.2     1  UNL1        0.0190
     32  C         25.2670  -23.8070  -14.4030 C.2     1  UNL1        0.0080
     33  C         24.7730  -22.9070  -15.3550 C.2     1  UNL1       -0.0620
     34  C         24.8130  -23.2420  -16.8160 C.3     1  UNL1        0.0480
     35  C         24.1900  -21.7080  -14.9190 C.2     1  UNL1        0.0080
     36  C         24.1320  -21.4020  -13.5560 C.2     1  UNL1        0.0190
@<TRIPOS>BOND
     1    34    33    1
     2    33    35    2
     3    33    32    1
     4    35    36    1
     5    32    31    2
     6    36    30    2
     7    31    30    1
     8    30    29    1
     9    19    20    2
    10    19    18    1
    11    20    21    1
    12    18    17    2
    13    21    16    2
    14    29    28    1
    15    17    16    1
    16    16    15    1
    17    28    25    1
    18    15    13    1
    19    25    24    2
    20    25    26    1
    21    24    23    1
    22    26    27    2
    23    13    14    1
    24    13    11   am
    25    23    22    2
    26    12    11    2
    27    27    22    1
    28    11    10    1
    29    22     1    1
    30     4     3    1
    31     1     3   am
    32     1     2    2
    33     3     5    1
    34    10     5    2
    35    10     9    1
    36     5     6    1
    37     9     8    2
    38     6     7    2
    39     8     7    1
