@<TRIPOS>MOLECULE
53467_out_ligand_01.pdbqt
 29 32 0 0 0
SMALL
GASTEIGER

@<TRIPOS>ATOM
      1  C         22.6610  -22.0750   -9.8840 C.2     1  UNL1        0.0320
      2  C         21.4470  -22.1340  -10.5820 C.2     1  UNL1        0.0170
      3  C         20.2360  -22.1940   -9.8890 C.2     1  UNL1        0.0100
      4  C         20.2170  -22.1980   -8.4860 C.2     1  UNL1       -0.0300
      5  C         21.4330  -22.1160   -7.7920 C.2     1  UNL1        0.0100
      6  C         22.6470  -22.0490   -8.4840 C.2     1  UNL1        0.0170
      7  C         23.9250  -22.0090  -10.6730 C.2     1  UNL1        0.2520
      8  O         24.7930  -21.1900  -10.3730 O.2     1  UNL1       -0.2680
      9  N         24.0340  -22.8820  -11.7470 N.am    1  UNL1       -0.3520
     10  H         23.1900  -23.3230  -12.0840 H       1  UNL1        0.1630
     11  C         25.1560  -22.7930  -12.6830 C.3     1  UNL1        0.0840
     12  C         25.0530  -21.4940  -13.5110 C.3     1  UNL1        0.0250
     13  C         24.0370  -21.5610  -14.6560 C.3     1  UNL1        0.0020
     14  C         24.6500  -21.4680  -16.0540 C.3     1  UNL1        0.0000
     15  C         25.9100  -22.2890  -16.3340 C.3     1  UNL1        0.0000
     16  C         25.8300  -23.7790  -15.9880 C.3     1  UNL1        0.0000
     17  C         26.3150  -24.1460  -14.5750 C.3     1  UNL1        0.0020
     18  C         25.2390  -24.1050  -13.4890 C.3     1  UNL1        0.0250
     19  C         18.9010  -22.2490   -7.7310 C.3     1  UNL1        0.3110
     20  N         18.2590  -23.5720   -7.7760 N.3     1  UNL1        0.0970
     21  C         17.0010  -23.5510   -8.5370 C.3     1  UNL1        0.2770
     22  C         15.8870  -22.7020   -7.9050 C.3     1  UNL1        0.0690
     23  C         15.7880  -22.8880   -6.4100 C.2     1  UNL1       -0.0490
     24  C         14.6880  -22.3720   -5.7130 C.2     1  UNL1        0.0070
     25  C         16.8240  -23.5250   -5.7040 C.2     1  UNL1       -0.0240
     26  C         14.6040  -22.5070   -4.3260 C.2     1  UNL1        0.0010
     27  C         15.6180  -23.1550   -3.6260 C.2     1  UNL1        0.0010
     28  C         16.7210  -23.6640   -4.3110 C.2     1  UNL1        0.0090
     29  C         18.0070  -24.1280   -6.4330 C.3     1  UNL1        0.3110
@<TRIPOS>BOND
     1    15    14    1
     2    15    16    1
     3    14    13    1
     4    16    17    1
     5    13    12    1
     6    17    18    1
     7    12    11    1
     8    18    11    1
     9    11     9    1
    10    10     9    1
    11     9     7   am
    12     7     8    2
    13     7     1    1
    14     2     3    1
    15     2     1    2
    16     3     4    2
    17     1     6    1
    18    21    22    1
    19    21    20    1
    20     4     5    1
    21     4    19    1
    22     6     5    2
    23    22    23    1
    24    20    19    1
    25    20    29    1
    26    29    25    1
    27    23    24    2
    28    23    25    1
    29    24    26    1
    30    25    28    2
    31    26    27    2
    32    28    27    1
