@<TRIPOS>MOLECULE
53470_out_ligand_01.pdbqt
 37 41 0 0 0
SMALL
GASTEIGER

@<TRIPOS>ATOM
      1  O         19.1700  -21.2520   -6.1860 O.2     1  UNL1       -0.2670
      2  C         19.3510  -22.3740   -6.6470 C.2     1  UNL1        0.2560
      3  N         18.5180  -23.4640   -6.4920 N.am    1  UNL1       -0.3220
      4  H         18.7550  -24.3150   -7.0040 H       1  UNL1        0.1690
      5  C         20.5570  -22.6020   -7.5010 C.2     1  UNL1        0.0320
      6  C         21.5930  -21.6680   -7.6140 C.2     1  UNL1        0.0170
      7  C         22.7070  -21.9450   -8.4150 C.2     1  UNL1        0.0100
      8  C         22.8000  -23.1530   -9.1220 C.2     1  UNL1       -0.0300
      9  C         21.7420  -24.0680   -9.0330 C.2     1  UNL1        0.0100
     10  C         20.6310  -23.7960   -8.2300 C.2     1  UNL1        0.0170
     11  C         24.0160  -23.4610   -9.9700 C.3     1  UNL1        0.3110
     12  N         24.4340  -22.4350  -10.9340 N.3     1  UNL1        0.0970
     13  C         25.7880  -21.9200  -10.7120 C.3     1  UNL1        0.2770
     14  C         26.0090  -20.6290  -11.5150 C.3     1  UNL1        0.0690
     15  C         25.5510  -20.7450  -12.9500 C.2     1  UNL1       -0.0490
     16  C         25.9480  -19.7900  -13.8950 C.2     1  UNL1        0.0070
     17  C         24.6760  -21.7800  -13.3260 C.2     1  UNL1       -0.0240
     18  C         25.4980  -19.8740  -15.2130 C.2     1  UNL1        0.0010
     19  C         24.6460  -20.9080  -15.5940 C.2     1  UNL1        0.0010
     20  C         24.2390  -21.8580  -14.6580 C.2     1  UNL1        0.0090
     21  C         24.2660  -22.8500  -12.3340 C.3     1  UNL1        0.3110
     22  C         17.3400  -23.5730   -5.7110 C.2     1  UNL1        0.0500
     23  C         17.3700  -23.5760   -4.3100 C.2     1  UNL1        0.0300
     24  C         16.1950  -23.7130   -3.5640 C.2     1  UNL1        0.0020
     25  C         14.9700  -23.8590   -4.2040 C.2     1  UNL1        0.0010
     26  C         14.9130  -23.8580   -5.5970 C.2     1  UNL1        0.0190
     27  C         16.0860  -23.6970   -6.3580 C.2     1  UNL1        0.0580
     28  C         15.9950  -23.6860   -7.8530 C.2     1  UNL1        0.2540
     29  O         15.7270  -24.7170   -8.4630 O.2     1  UNL1       -0.2680
     30  N         16.2630  -22.4840   -8.4800 N.am    1  UNL1       -0.3540
     31  H         16.7690  -21.7830   -7.9550 H       1  UNL1        0.1620
     32  C         16.3270  -22.3820   -9.9290 C.3     1  UNL1        0.1550
     33  C         17.3990  -21.3960  -10.3940 C.3     1  UNL1        0.1390
     34  C         17.5270  -21.3010  -11.9080 C.3     1  UNL1        0.0350
     35  C         18.9590  -20.8530  -12.0630 C.3     1  UNL1        0.0290
     36  C         19.6490  -21.6360  -10.9660 C.3     1  UNL1        0.1680
     37  O         18.6940  -21.7940   -9.9050 O.3     1  UNL1       -0.3840
@<TRIPOS>BOND
     1    19    18    2
     2    19    20    1
     3    18    16    1
     4    20    17    2
     5    16    15    2
     6    17    15    1
     7    17    21    1
     8    15    14    1
     9    21    12    1
    10    35    34    1
    11    35    36    1
    12    34    33    1
    13    14    13    1
    14    36    37    1
    15    12    13    1
    16    12    11    1
    17    33    32    1
    18    33    37    1
    19    11     8    1
    20    32    30    1
    21     8     9    2
    22     8     7    1
    23     9    10    1
    24    30    31    1
    25    30    28   am
    26    29    28    2
    27     7     6    2
    28    10     5    2
    29    28    27    1
    30     6     5    1
    31     5     2    1
    32     4     3    1
    33     2     3   am
    34     2     1    2
    35     3    22    1
    36    27    22    2
    37    27    26    1
    38    22    23    1
    39    26    25    2
    40    23    24    2
    41    25    24    1
