@<TRIPOS>MOLECULE
53473_out_ligand_01.pdbqt
 31 34 0 0 0
SMALL
GASTEIGER

@<TRIPOS>ATOM
      1  C         20.6320  -22.5300   -7.6660 C.2     1  UNL1        0.0320
      2  C         21.7320  -21.6640   -7.6810 C.2     1  UNL1        0.0170
      3  C         22.8800  -22.0030   -8.4040 C.2     1  UNL1        0.0100
      4  C         22.9390  -23.2030   -9.1270 C.2     1  UNL1       -0.0300
      5  C         21.8260  -24.0560   -9.1210 C.2     1  UNL1        0.0100
      6  C         20.6780  -23.7200   -8.4010 C.2     1  UNL1        0.0170
      7  C         19.3870  -22.2140   -6.9130 C.2     1  UNL1        0.2510
      8  N         18.2690  -22.9530   -7.2420 N.am    1  UNL1       -0.3530
      9  H         18.3230  -23.6310   -7.9890 H       1  UNL1        0.1630
     10  O         19.3890  -21.3230   -6.0720 O.2     1  UNL1       -0.2680
     11  C         16.9900  -22.7700   -6.5590 C.3     1  UNL1        0.0810
     12  C         16.7430  -23.9460   -5.6120 C.3     1  UNL1        0.0320
     13  C         15.8720  -22.6170   -7.6070 C.3     1  UNL1        0.0290
     14  C         16.1180  -23.3350   -8.9400 C.3     1  UNL1        0.0400
     15  C         16.9580  -22.5470   -9.9110 C.2     1  UNL1       -0.0580
     16  C         18.1290  -23.0970  -10.4510 C.2     1  UNL1        0.0070
     17  C         18.9000  -22.3690  -11.3600 C.2     1  UNL1        0.0010
     18  C         18.5090  -21.0850  -11.7360 C.2     1  UNL1        0.0000
     19  C         17.3490  -20.5280  -11.2040 C.2     1  UNL1        0.0010
     20  C         16.5770  -21.2540  -10.2960 C.2     1  UNL1        0.0070
     21  C         24.1850  -23.5700   -9.9090 C.3     1  UNL1        0.3110
     22  N         24.9160  -22.3970  -10.4120 N.3     1  UNL1        0.0970
     23  C         24.1070  -21.6060  -11.3560 C.3     1  UNL1        0.2770
     24  C         23.7600  -22.3350  -12.6640 C.3     1  UNL1        0.0690
     25  C         24.9230  -23.1130  -13.2290 C.2     1  UNL1       -0.0490
     26  C         24.8430  -23.6490  -14.5210 C.2     1  UNL1        0.0070
     27  C         26.0640  -23.3550  -12.4410 C.2     1  UNL1       -0.0240
     28  C         25.8960  -24.4030  -15.0370 C.2     1  UNL1        0.0010
     29  C         27.0340  -24.6300  -14.2650 C.2     1  UNL1        0.0010
     30  C         27.1200  -24.1060  -12.9760 C.2     1  UNL1        0.0090
     31  C         26.1940  -22.7540  -11.0560 C.3     1  UNL1        0.3110
@<TRIPOS>BOND
     1    28    26    1
     2    28    29    2
     3    26    25    2
     4    29    30    1
     5    25    24    1
     6    25    27    1
     7    30    27    2
     8    24    23    1
     9    27    31    1
    10    18    17    2
    11    18    19    1
    12    17    16    1
    13    23    22    1
    14    19    20    2
    15    31    22    1
    16    16    15    2
    17    22    21    1
    18    20    15    1
    19    15    14    1
    20    21     4    1
    21     4     5    2
    22     4     3    1
    23     5     6    1
    24    14    13    1
    25     3     2    2
    26     6     1    2
    27     9     8    1
    28     2     1    1
    29     1     7    1
    30    13    11    1
    31     8     7   am
    32     8    11    1
    33     7    10    2
    34    11    12    1
