@<TRIPOS>MOLECULE
53479_out_ligand_01.pdbqt
 41 44 0 0 0
SMALL
GASTEIGER

@<TRIPOS>ATOM
      1  C         21.4990  -21.6130   -7.6440 C.2     1  UNL1        0.2560
      2  O         22.3900  -20.9450   -7.1340 O.2     1  UNL1       -0.2670
      3  N         21.5280  -22.2360   -8.8780 N.am    1  UNL1       -0.3230
      4  H         20.6780  -22.6830   -9.1970 H       1  UNL1        0.1690
      5  C         20.2240  -21.7620   -6.8850 C.2     1  UNL1        0.0340
      6  C         19.2270  -22.6640   -7.2730 C.2     1  UNL1        0.0440
      7  C         18.0410  -22.7700   -6.5220 C.2     1  UNL1        0.1020
      8  C         17.8550  -21.9900   -5.3790 C.2     1  UNL1        0.0570
      9  C         18.8660  -21.1050   -4.9840 C.2     1  UNL1        0.0260
     10 CL         16.4570  -22.0620   -4.3710 Cl      1  UNL1       -0.0830
     11  C         20.0440  -20.9950   -5.7290 C.2     1  UNL1        0.0190
     12  S         16.8040  -23.9050   -7.0870 S.O2    1  UNL1        0.2640
     13  O         15.5230  -23.2310   -7.0370 O.2     1  UNL1       -0.2000
     14  O         16.9940  -25.1480   -6.3730 O.2     1  UNL1       -0.2000
     15  N         17.2170  -24.1780   -8.6990 N.pl3   1  UNL1       -0.2810
     16  H         16.8160  -25.0480   -9.0490 H       1  UNL1        0.1790
     17  C         17.2600  -23.0660   -9.5810 C.2     1  UNL1        0.0430
     18  C         16.1190  -22.2890   -9.7690 C.2     1  UNL1        0.0300
     19  C         16.1530  -21.2130  -10.6550 C.2     1  UNL1        0.0030
     20  C         17.3240  -20.9240  -11.3590 C.2     1  UNL1        0.0070
     21  C         18.4670  -21.7150  -11.1920 C.2     1  UNL1       -0.0600
     22  C         19.7330  -21.3920  -11.9300 C.3     1  UNL1        0.0480
     23  C         18.4290  -22.7850  -10.2880 C.2     1  UNL1        0.0370
     24  C         22.5990  -22.2620   -9.7980 C.2     1  UNL1        0.0350
     25  C         22.5190  -23.1960  -10.8420 C.2     1  UNL1        0.0310
     26  C         23.5370  -23.2930  -11.7940 C.2     1  UNL1        0.0270
     27  C         24.6470  -22.4530  -11.7010 C.2     1  UNL1        0.0800
     28  C         24.7330  -21.5070  -10.6790 C.2     1  UNL1        0.0270
     29  C         23.7130  -21.4200   -9.7260 C.2     1  UNL1        0.0310
     30  S         25.9360  -22.5660  -12.9150 S.O2    1  UNL1        0.2630
     31  O         25.9700  -23.9120  -13.4450 O.2     1  UNL1       -0.2000
     32  O         27.1210  -21.9580  -12.3450 O.2     1  UNL1       -0.2000
     33  N         25.4050  -21.5000  -14.1200 N.pl3   1  UNL1       -0.2810
     34  H         25.7190  -20.5510  -13.9140 H       1  UNL1        0.1790
     35  C         25.4790  -21.9380  -15.4720 C.2     1  UNL1        0.0440
     36  C         26.6320  -21.6800  -16.2140 C.2     1  UNL1        0.0300
     37  C         26.6980  -22.0640  -17.5550 C.2     1  UNL1        0.0040
     38  C         25.6080  -22.7000  -18.1490 C.2     1  UNL1        0.0240
     39  C         24.4580  -22.9470  -17.4010 C.2     1  UNL1        0.0360
     40 CL         23.1150  -23.7290  -18.1420 Cl      1  UNL1       -0.0840
     41  C         24.3840  -22.5660  -16.0620 C.2     1  UNL1        0.0540
@<TRIPOS>BOND
     1    38    37    2
     2    38    39    1
     3    40    39    1
     4    37    36    1
     5    39    41    2
     6    36    35    2
     7    41    35    1
     8    35    33    1
     9    33    34    1
    10    33    30    1
    11    31    30    2
    12    30    32    2
    13    30    27    1
    14    22    21    1
    15    26    27    2
    16    26    25    1
    17    27    28    1
    18    20    21    2
    19    20    19    1
    20    21    23    1
    21    25    24    2
    22    28    29    2
    23    19    18    2
    24    23    17    2
    25    24    29    1
    26    24     3    1
    27    18    17    1
    28    17    15    1
    29     4     3    1
    30    16    15    1
    31     3     1   am
    32    15    12    1
    33     1     2    2
    34     1     5    1
    35     6     5    2
    36     6     7    1
    37    12    13    2
    38    12     7    1
    39    12    14    2
    40     5    11    1
    41     7     8    2
    42    11     9    2
    43     8     9    1
    44     8    10    1
