@<TRIPOS>MOLECULE
53494_out_ligand_01.pdbqt
 32 34 0 0 0
SMALL
GASTEIGER

@<TRIPOS>ATOM
      1  C         19.7350  -22.9220   -9.9270 C.2     1  UNL1        0.0330
      2  C         19.0760  -22.1460  -10.8810 C.2     1  UNL1        0.0170
      3  C         17.6910  -21.9730  -10.8000 C.2     1  UNL1        0.0090
      4  C         16.9340  -22.5840   -9.7810 C.2     1  UNL1       -0.0390
      5  C         15.4530  -22.3270   -9.7610 C.3     1  UNL1        0.0500
      6  C         17.6070  -23.3930   -8.8460 C.2     1  UNL1        0.0860
      7  C         19.0030  -23.5420   -8.9140 C.2     1  UNL1        0.0420
      8  S         16.8010  -24.2650   -7.5060 S.O2    1  UNL1        0.2630
      9  O         17.7720  -25.0260   -6.7520 O.2     1  UNL1       -0.2000
     10  O         15.6410  -24.9200   -8.0770 O.2     1  UNL1       -0.2000
     11  N         16.1980  -23.0210   -6.5390 N.pl3   1  UNL1       -0.2800
     12  H         15.5400  -22.4270   -7.0380 H       1  UNL1        0.1790
     13  C         16.9970  -22.4360   -5.5100 C.2     1  UNL1        0.0490
     14  C         18.0620  -21.5930   -5.8460 C.2     1  UNL1        0.0370
     15  C         18.8520  -21.0000   -4.8540 C.2     1  UNL1       -0.0600
     16  C         19.9620  -20.0620   -5.2240 C.3     1  UNL1        0.0480
     17  C         18.5590  -21.2550   -3.5130 C.2     1  UNL1        0.0070
     18  C         17.5170  -22.1180   -3.1700 C.2     1  UNL1        0.0090
     19  C         16.7310  -22.7260   -4.1610 C.2     1  UNL1       -0.0350
     20  C         15.6400  -23.6720   -3.7390 C.3     1  UNL1        0.0500
     21  C         21.2030  -23.1540   -9.9860 C.2     1  UNL1        0.2560
     22  N         21.8840  -22.3430  -10.8730 N.am    1  UNL1       -0.3230
     23  H         21.3590  -21.5910  -11.3030 H       1  UNL1        0.1690
     24  O         21.6790  -24.0020   -9.2390 O.2     1  UNL1       -0.2670
     25  C         23.2610  -22.3770  -11.1770 C.2     1  UNL1        0.0360
     26  C         24.1030  -21.5580  -10.4160 C.2     1  UNL1        0.0290
     27  C         25.4760  -21.5270  -10.6640 C.2     1  UNL1        0.0040
     28  C         26.0170  -22.3180  -11.6750 C.2     1  UNL1        0.0180
     29  C         25.1940  -23.1480  -12.4410 C.2     1  UNL1        0.0020
     30  C         23.8140  -23.1590  -12.1970 C.2     1  UNL1        0.0480
     31  S         25.9540  -24.1180  -13.7370 S.3     1  UNL1       -0.1340
     32  C         25.2000  -23.3850  -15.2160 C.3     1  UNL1        0.0950
@<TRIPOS>BOND
     1    32    31    1
     2    31    29    1
     3    29    30    1
     4    29    28    2
     5    30    25    2
     6    28    27    1
     7    23    22    1
     8    25    22    1
     9    25    26    1
    10     2     3    1
    11     2     1    2
    12    22    21   am
    13     3     4    2
    14    27    26    2
    15    21     1    1
    16    21    24    2
    17     1     7    1
    18     4     5    1
    19     4     6    1
    20     7     6    2
    21     6     8    1
    22    10     8    2
    23     8     9    2
    24     8    11    1
    25    12    11    1
    26    11    13    1
    27    14    13    2
    28    14    15    1
    29    13    19    1
    30    16    15    1
    31    15    17    2
    32    19    20    1
    33    19    18    2
    34    17    18    1
