@<TRIPOS>MOLECULE
53495_out_ligand_01.pdbqt
 31 33 0 0 0
SMALL
GASTEIGER

@<TRIPOS>ATOM
      1  C         17.5600  -23.2120   -8.9450 C.2     1  UNL1        0.0810
      2  C         18.9510  -23.3270   -9.0970 C.2     1  UNL1        0.0420
      3  C         19.5920  -22.7160  -10.1790 C.2     1  UNL1        0.0330
      4  C         18.8440  -21.9830  -11.1050 C.2     1  UNL1        0.0170
      5  C         17.4600  -21.8720  -10.9550 C.2     1  UNL1        0.0090
      6  C         16.7960  -22.4760   -9.8730 C.2     1  UNL1       -0.0390
      7  C         15.3030  -22.3220   -9.7780 C.3     1  UNL1        0.0500
      8  S         16.8110  -24.0400   -7.5450 S.O2    1  UNL1        0.2460
      9  O         15.7290  -24.8600   -8.0430 O.2     1  UNL1       -0.2060
     10  O         17.8770  -24.6040   -6.7450 O.2     1  UNL1       -0.2060
     11  N         16.2010  -22.6950   -6.6900 N.pl3   1  UNL1       -0.1810
     12  H         16.0760  -21.9280   -7.3510 H       1  UNL1        0.1460
     13  C         16.9820  -22.3050   -5.5490 C.2     1  UNL1        0.0280
     14  C         18.1000  -21.4920   -5.7590 C.2     1  UNL1        0.0250
     15  C         18.8760  -21.0630   -4.6830 C.2     1  UNL1        0.0020
     16  C         18.5320  -21.4430   -3.3900 C.2     1  UNL1        0.0010
     17  C         17.4140  -22.2490   -3.1730 C.2     1  UNL1        0.0080
     18  C         16.6220  -22.6910   -4.2460 C.2     1  UNL1       -0.0400
     19  C         15.4180  -23.5430   -3.9590 C.3     1  UNL1        0.0500
     20  C         21.0730  -22.8340  -10.2930 C.2     1  UNL1        0.2560
     21  O         21.6270  -23.7410   -9.6850 O.2     1  UNL1       -0.2670
     22  N         21.6600  -21.9300  -11.1520 N.am    1  UNL1       -0.3180
     23  H         21.0520  -21.4600  -11.8160 H       1  UNL1        0.1690
     24  C         23.0440  -21.7650  -11.4010 C.2     1  UNL1        0.1130
     25  C         23.4410  -21.7470  -12.7450 C.2     1  UNL1        0.1460
     26  F         22.5110  -21.8810  -13.7050 F       1  UNL1       -0.2040
     27  C         24.7740  -21.6020  -13.1220 C.2     1  UNL1        0.0450
     28  C         25.7520  -21.4570  -12.1430 C.2     1  UNL1        0.0060
     29  C         25.3790  -21.4400  -10.8000 C.2     1  UNL1        0.0450
     30  C         24.0360  -21.5840  -10.4350 C.2     1  UNL1        0.1460
     31  F         23.7460  -21.4610   -9.1340 F       1  UNL1       -0.2040
@<TRIPOS>BOND
     1    26    25    1
     2    27    25    1
     3    27    28    2
     4    25    24    2
     5    28    29    1
     6    23    22    1
     7    24    22    1
     8    24    30    1
     9    22    20   am
    10     4     5    2
    11     4     3    1
    12     5     6    1
    13    29    30    2
    14    30    31    1
    15    20     3    1
    16    20    21    2
    17     3     2    2
    18     6     7    1
    19     6     1    2
    20     2     1    1
    21     1     8    1
    22     9     8    2
    23     8    10    2
    24     8    11    1
    25    12    11    1
    26    11    13    1
    27    14    13    2
    28    14    15    1
    29    13    18    1
    30    15    16    2
    31    18    19    1
    32    18    17    2
    33    16    17    1
