@<TRIPOS>MOLECULE
53497_out_ligand_01.pdbqt
 45 48 0 0 0
SMALL
GASTEIGER

@<TRIPOS>ATOM
      1  C         22.1340  -22.3310  -10.6330 C.2     1  UNL1        0.2560
      2  O         21.3800  -21.4150  -10.9390 O.2     1  UNL1       -0.2670
      3  N         22.0190  -23.1750   -9.5450 N.am    1  UNL1       -0.3230
      4  H         22.8080  -23.7730   -9.3380 H       1  UNL1        0.1690
      5  C         20.9640  -23.2220   -8.6110 C.2     1  UNL1        0.0350
      6  C         20.0450  -24.2700   -8.5260 C.2     1  UNL1        0.0310
      7  C         19.0220  -24.2450   -7.5720 C.2     1  UNL1        0.0270
      8  C         18.9160  -23.1580   -6.7030 C.2     1  UNL1        0.0750
      9  C         19.8400  -22.1130   -6.7590 C.2     1  UNL1        0.0270
     10  C         20.8620  -22.1510   -7.7100 C.2     1  UNL1        0.0310
     11  S         17.6170  -23.1060   -5.4920 S.O2    1  UNL1        0.2450
     12  O         18.1060  -22.3530   -4.3580 O.2     1  UNL1       -0.2060
     13  O         17.0690  -24.4400   -5.3550 O.2     1  UNL1       -0.2060
     14  N         16.4490  -22.1920   -6.3440 N.pl3   1  UNL1       -0.1810
     15  H         16.7220  -21.2090   -6.2460 H       1  UNL1        0.1460
     16  C         16.3450  -22.5430   -7.7300 C.2     1  UNL1        0.0230
     17  C         15.6450  -23.6860   -8.1220 C.2     1  UNL1        0.0240
     18  C         15.5090  -23.9820   -9.4790 C.2     1  UNL1        0.0030
     19  C         16.0670  -23.1320  -10.4380 C.2     1  UNL1        0.0160
     20  C         16.7630  -21.9760  -10.0510 C.2     1  UNL1        0.0490
     21  C         16.8780  -21.6780   -8.6840 C.2     1  UNL1        0.0400
     22  C         17.3450  -21.0450  -11.0860 C.3     1  UNL1        0.4170
     23  F         16.7670  -19.8120  -11.0720 F       1  UNL1       -0.1660
     24  F         18.6830  -20.8280  -10.9180 F       1  UNL1       -0.1660
     25  F         17.1970  -21.5170  -12.3560 F       1  UNL1       -0.1660
     26  C         23.3480  -22.5490  -11.4710 C.2     1  UNL1        0.0340
     27  C         23.4390  -22.0630  -12.7800 C.2     1  UNL1        0.0430
     28  C         24.6010  -22.2970  -13.5430 C.2     1  UNL1        0.0970
     29  C         25.6650  -23.0170  -12.9980 C.2     1  UNL1        0.0570
     30  C         25.5750  -23.4730  -11.6770 C.2     1  UNL1        0.0260
     31 CL         27.1210  -23.3880  -13.8370 Cl      1  UNL1       -0.0830
     32  C         24.4280  -23.2380  -10.9150 C.2     1  UNL1        0.0190
     33  S         24.6320  -21.6790  -15.2100 S.O2    1  UNL1        0.2470
     34  O         24.2960  -22.7800  -16.0820 O.2     1  UNL1       -0.2050
     35  O         23.8450  -20.4590  -15.2060 O.2     1  UNL1       -0.2050
     36  N         26.2550  -21.1900  -15.4160 N.pl3   1  UNL1       -0.1810
     37  H         26.8040  -21.5700  -14.6440 H       1  UNL1        0.1460
     38  C         26.4240  -19.7580  -15.4830 C.2     1  UNL1        0.0290
     39  C         26.8520  -19.0280  -14.3640 C.2     1  UNL1       -0.0400
     40  C         27.0650  -17.6470  -14.5000 C.2     1  UNL1        0.0090
     41  C         27.0930  -19.6750  -13.0330 C.3     1  UNL1        0.0500
     42  C         26.8420  -17.0040  -15.7210 C.2     1  UNL1        0.0070
     43  C         26.3970  -17.7280  -16.8320 C.2     1  UNL1       -0.0600
     44  C         26.1890  -17.0470  -18.1530 C.3     1  UNL1        0.0480
     45  C         26.2100  -19.1110  -16.7100 C.2     1  UNL1        0.0310
@<TRIPOS>BOND
     1    44    43    1
     2    43    45    1
     3    43    42    2
     4    45    38    2
     5    34    33    2
     6    42    40    1
     7    38    36    1
     8    38    39    1
     9    36    33    1
    10    36    37    1
    11    33    35    2
    12    33    28    1
    13    40    39    2
    14    39    41    1
    15    31    29    1
    16    28    29    2
    17    28    27    1
    18    29    30    1
    19    27    26    2
    20    25    22    1
    21    30    32    2
    22    26    32    1
    23    26     1    1
    24    22    23    1
    25    22    24    1
    26    22    20    1
    27     2     1    2
    28     1     3   am
    29    19    20    2
    30    19    18    1
    31    20    21    1
    32     3     4    1
    33     3     5    1
    34    18    17    2
    35    21    16    2
    36     5     6    2
    37     5    10    1
    38     6     7    1
    39    17    16    1
    40    16    14    1
    41    10     9    2
    42     7     8    2
    43     9     8    1
    44     8    11    1
    45    14    15    1
    46    14    11    1
    47    11    13    2
    48    11    12    2
