@<TRIPOS>MOLECULE
53498_out_ligand_01.pdbqt
 40 45 0 0 0
SMALL
GASTEIGER

@<TRIPOS>ATOM
      1  C         24.4080  -22.7040  -14.0000 C.2     1  UNL1        0.0860
      2  C         23.7370  -22.9250  -12.7860 C.2     1  UNL1        0.0420
      3  C         22.6780  -22.1000  -12.3990 C.2     1  UNL1        0.0330
      4  C         22.3010  -21.0350  -13.2230 C.2     1  UNL1        0.0170
      5  C         22.9490  -20.8310  -14.4440 C.2     1  UNL1        0.0090
      6  C         24.0070  -21.6610  -14.8580 C.2     1  UNL1       -0.0390
      7  C         24.6190  -21.4040  -16.2060 C.3     1  UNL1        0.0500
      8  C         22.0070  -22.3700  -11.0940 C.2     1  UNL1        0.2560
      9  O         22.6760  -22.2800  -10.0710 O.2     1  UNL1       -0.2670
     10  N         20.6680  -22.7100  -11.1840 N.am    1  UNL1       -0.3230
     11  H         20.2690  -22.7890  -12.1100 H       1  UNL1        0.1690
     12  C         19.7850  -22.9990  -10.1220 C.2     1  UNL1        0.0350
     13  C         18.4630  -22.5700  -10.0640 C.2     1  UNL1        0.0300
     14  C         17.6520  -22.9010   -8.9680 C.2     1  UNL1        0.0100
     15  C         18.1260  -23.6970   -7.9180 C.2     1  UNL1       -0.0530
     16  C         19.4710  -24.0970   -7.9760 C.2     1  UNL1        0.0100
     17  C         20.2860  -23.7580   -9.0630 C.2     1  UNL1        0.0300
     18  C         17.2880  -24.0650   -6.6940 C.3     1  UNL1        0.0270
     19  C         15.7890  -23.6410   -6.8080 C.3     1  UNL1       -0.0050
     20  C         14.9850  -24.3600   -5.7050 C.3     1  UNL1        0.0100
     21  C         15.6380  -22.1200   -6.6190 C.3     1  UNL1        0.0100
     22  C         15.5060  -23.9560   -4.3170 C.3     1  UNL1       -0.0130
     23  C         15.3440  -22.4370   -4.1450 C.3     1  UNL1        0.0090
     24  C         16.9970  -24.3240   -4.2070 C.3     1  UNL1        0.0100
     25  C         16.1450  -21.7000   -5.2300 C.3     1  UNL1       -0.0130
     26  C         17.6270  -22.0790   -5.1020 C.3     1  UNL1        0.0100
     27  C         17.8130  -23.5990   -5.2990 C.3     1  UNL1       -0.0050
     28  S         25.7630  -23.8050  -14.3960 S.O2    1  UNL1        0.2630
     29  O         25.5960  -25.0240  -13.6350 O.2     1  UNL1       -0.2000
     30  O         25.8900  -23.8620  -15.8380 O.2     1  UNL1       -0.2000
     31  N         27.1210  -22.9790  -13.8290 N.pl3   1  UNL1       -0.2800
     32  H         27.9580  -23.2040  -14.3600 H       1  UNL1        0.1790
     33  C         27.0120  -21.6860  -13.2280 C.2     1  UNL1        0.0490
     34  C         26.8310  -21.5750  -11.8380 C.2     1  UNL1       -0.0350
     35  C         26.7670  -20.2960  -11.2610 C.2     1  UNL1        0.0090
     36  C         26.7210  -22.7760  -10.9410 C.3     1  UNL1        0.0500
     37  C         26.8630  -19.1480  -12.0490 C.2     1  UNL1        0.0070
     38  C         26.9960  -19.2550  -13.4330 C.2     1  UNL1       -0.0600
     39  C         27.1210  -18.0320  -14.2920 C.3     1  UNL1        0.0480
     40  C         27.0620  -20.5290  -14.0140 C.2     1  UNL1        0.0370
@<TRIPOS>BOND
     1     7     6    1
     2    30    28    2
     3     6     5    1
     4     6     1    2
     5     5     4    2
     6    28     1    1
     7    28    31    1
     8    28    29    2
     9    32    31    1
    10    39    38    1
    11    40    38    1
    12    40    33    2
    13     1     2    1
    14    31    33    1
    15    38    37    2
    16    33    34    1
    17     4     3    1
    18     2     3    2
    19     3     8    1
    20    11    10    1
    21    37    35    1
    22    34    35    2
    23    34    36    1
    24    10     8   am
    25    10    12    1
    26     8     9    2
    27    12    13    2
    28    12    17    1
    29    13    14    1
    30    17    16    2
    31    14    15    2
    32    16    15    1
    33    15    18    1
    34    19    18    1
    35    19    21    1
    36    19    20    1
    37    18    27    1
    38    21    25    1
    39    20    22    1
    40    27    26    1
    41    27    24    1
    42    25    26    1
    43    25    23    1
    44    22    24    1
    45    22    23    1
