@<TRIPOS>MOLECULE
53507_out_ligand_01.pdbqt
 45 48 0 0 0
SMALL
GASTEIGER

@<TRIPOS>ATOM
      1  C         21.9960  -22.3930  -10.6830 C.2     1  UNL1        0.2560
      2  O         21.0500  -21.8550  -11.2400 O.2     1  UNL1       -0.2670
      3  N         22.0520  -22.8590   -9.3830 N.am    1  UNL1       -0.3230
      4  H         22.9450  -23.2020   -9.0540 H       1  UNL1        0.1690
      5  C         21.0190  -22.8360   -8.4210 C.2     1  UNL1        0.0350
      6  C         20.8260  -21.7950   -7.5080 C.2     1  UNL1        0.0310
      7  C         19.7780  -21.8460   -6.5820 C.2     1  UNL1        0.0270
      8  C         18.9070  -22.9370   -6.5820 C.2     1  UNL1        0.0800
      9  C         19.0950  -23.9920   -7.4760 C.2     1  UNL1        0.0270
     10  C         20.1470  -23.9350   -8.3940 C.2     1  UNL1        0.0310
     11  S         17.5710  -23.0080   -5.4090 S.O2    1  UNL1        0.2630
     12  O         17.8600  -22.0790   -4.3370 O.2     1  UNL1       -0.2000
     13  O         17.3060  -24.4060   -5.1400 O.2     1  UNL1       -0.2000
     14  N         16.2510  -22.4480   -6.3030 N.pl3   1  UNL1       -0.2810
     15  H         15.3870  -22.4650   -5.7640 H       1  UNL1        0.1790
     16  C         16.1870  -22.7270   -7.6940 C.2     1  UNL1        0.0430
     17  C         15.4960  -23.8420   -8.1670 C.2     1  UNL1        0.0300
     18  C         15.4020  -24.0730   -9.5390 C.2     1  UNL1        0.0030
     19  C         15.9930  -23.1860  -10.4390 C.2     1  UNL1        0.0160
     20  C         16.6840  -22.0570   -9.9750 C.2     1  UNL1        0.0500
     21  C         16.7840  -21.8410   -8.5910 C.2     1  UNL1        0.0460
     22  C         17.3320  -21.0960  -10.9410 C.3     1  UNL1        0.4170
     23  F         16.6710  -19.9080  -11.0250 F       1  UNL1       -0.1660
     24  F         17.4060  -21.5730  -12.2140 F       1  UNL1       -0.1660
     25  F         18.6080  -20.7850  -10.5800 F       1  UNL1       -0.1660
     26  C         23.2590  -22.5550  -11.4550 C.2     1  UNL1        0.0340
     27  C         23.2830  -22.1500  -12.7940 C.2     1  UNL1        0.0430
     28  C         24.4630  -22.2770  -13.5470 C.2     1  UNL1        0.0970
     29  C         25.6090  -22.8270  -12.9690 C.2     1  UNL1        0.0570
     30  C         25.5690  -23.2540  -11.6350 C.2     1  UNL1        0.0260
     31 CL         27.1190  -23.0010  -13.7880 Cl      1  UNL1       -0.0830
     32  C         24.3990  -23.1230  -10.8800 C.2     1  UNL1        0.0190
     33  S         24.4450  -21.7320  -15.2360 S.O2    1  UNL1        0.2470
     34  O         23.5550  -20.5920  -15.3090 O.2     1  UNL1       -0.2050
     35  O         24.2530  -22.8940  -16.0730 O.2     1  UNL1       -0.2050
     36  N         26.0570  -21.2050  -15.4280 N.pl3   1  UNL1       -0.1810
     37  H         26.5330  -21.9060  -15.9990 H       1  UNL1        0.1460
     38  C         26.1940  -19.8900  -15.9930 C.2     1  UNL1        0.0290
     39  C         26.0590  -19.7960  -17.3810 C.2     1  UNL1        0.0250
     40  C         26.2330  -18.5750  -18.0230 C.2     1  UNL1        0.0020
     41  C         26.5630  -17.4460  -17.2810 C.2     1  UNL1        0.0070
     42  C         26.7270  -17.5230  -15.8860 C.2     1  UNL1       -0.0540
     43  C         27.1200  -16.2730  -15.1430 C.3     1  UNL1        0.0490
     44  C         26.5230  -18.7570  -15.2200 C.2     1  UNL1       -0.0340
     45  C         26.7350  -18.8510  -13.7310 C.3     1  UNL1        0.0500
@<TRIPOS>BOND
     1    40    39    1
     2    40    41    2
     3    39    38    2
     4    41    42    1
     5    35    33    2
     6    37    36    1
     7    38    36    1
     8    38    44    1
     9    42    44    2
    10    42    43    1
    11    36    33    1
    12    34    33    2
    13    33    28    1
    14    44    45    1
    15    31    29    1
    16    28    29    2
    17    28    27    1
    18    29    30    1
    19    27    26    2
    20    24    22    1
    21    30    32    2
    22    26    32    1
    23    26     1    1
    24     2     1    2
    25    23    22    1
    26    22    25    1
    27    22    20    1
    28     1     3   am
    29    19    20    2
    30    19    18    1
    31    20    21    1
    32    18    17    2
    33     3     4    1
    34     3     5    1
    35    21    16    2
    36     5    10    2
    37     5     6    1
    38    10     9    1
    39    17    16    1
    40    16    14    1
    41     6     7    2
    42     9     8    2
    43     8     7    1
    44     8    11    1
    45    14    15    1
    46    14    11    1
    47    11    13    2
    48    11    12    2
