@<TRIPOS>MOLECULE
53505_out_ligand_01.pdbqt
 37 40 0 0 0
SMALL
GASTEIGER

@<TRIPOS>ATOM
      1  C         18.3430  -22.4530  -10.0280 C.2     1  UNL1        0.0860
      2  C         19.5490  -23.0830   -9.6830 C.2     1  UNL1        0.0420
      3  C         20.7360  -22.7390  -10.3370 C.2     1  UNL1        0.0330
      4  C         20.7080  -21.7920  -11.3670 C.2     1  UNL1        0.0170
      5  C         19.5030  -21.1760  -11.7180 C.2     1  UNL1        0.0090
      6  C         18.3060  -21.4840  -11.0490 C.2     1  UNL1       -0.0390
      7  C         17.0480  -20.7870  -11.4890 C.3     1  UNL1        0.0500
      8  C         22.0010  -23.4150   -9.9280 C.2     1  UNL1        0.2560
      9  O         21.9270  -24.4130   -9.2190 O.2     1  UNL1       -0.2670
     10  N         23.1540  -22.8030  -10.3690 N.am    1  UNL1       -0.3220
     11  H         23.0570  -21.9210  -10.8710 H       1  UNL1        0.1690
     12  C         24.4900  -23.2590  -10.2440 C.2     1  UNL1        0.0500
     13  C         24.9380  -23.9930   -9.1410 C.2     1  UNL1        0.0300
     14  C         26.2450  -24.4910   -9.0960 C.2     1  UNL1        0.0020
     15  C         27.1200  -24.2760  -10.1560 C.2     1  UNL1        0.0010
     16  C         26.6980  -23.5370  -11.2580 C.2     1  UNL1        0.0190
     17  C         25.4040  -23.0000  -11.2890 C.2     1  UNL1        0.0590
     18  C         24.9840  -22.1840  -12.4560 C.2     1  UNL1        0.2560
     19  O         24.8540  -20.9700  -12.2950 O.2     1  UNL1       -0.2670
     20  N         24.8280  -22.7970  -13.6880 N.am    1  UNL1       -0.3480
     21  C         25.3050  -24.1210  -14.0750 C.3     1  UNL1        0.1260
     22  C         24.4660  -22.0140  -14.8600 C.3     1  UNL1        0.1260
     23  C         24.9540  -24.2370  -15.5510 C.3     1  UNL1        0.0210
     24  C         25.0340  -22.7970  -16.0350 C.3     1  UNL1        0.0210
     25  S         16.8800  -22.9380   -9.1240 S.O2    1  UNL1        0.2630
     26  O         16.0510  -23.7690   -9.9710 O.2     1  UNL1       -0.2000
     27  O         16.3260  -21.7580   -8.4950 O.2     1  UNL1       -0.2000
     28  N         17.5190  -23.8870   -7.8730 N.pl3   1  UNL1       -0.2810
     29  H         18.3490  -24.3820   -8.1990 H       1  UNL1        0.1790
     30  C         17.5840  -23.3070   -6.5750 C.2     1  UNL1        0.0430
     31  C         16.8160  -23.8420   -5.5410 C.2     1  UNL1        0.0370
     32  C         16.8340  -23.2510   -4.2720 C.2     1  UNL1       -0.0590
     33  C         17.6420  -22.1250   -4.0530 C.2     1  UNL1        0.0130
     34  C         16.0310  -23.8460   -3.1530 C.3     1  UNL1        0.0480
     35  C         18.3950  -21.5680   -5.0960 C.2     1  UNL1       -0.0590
     36  C         19.2580  -20.3630   -4.8590 C.3     1  UNL1        0.0480
     37  C         18.3640  -22.1710   -6.3590 C.2     1  UNL1        0.0370
@<TRIPOS>BOND
     1    24    23    1
     2    24    22    1
     3    23    21    1
     4    22    20    1
     5    21    20    1
     6    20    18   am
     7    18    19    2
     8    18    17    1
     9     5     4    2
    10     5     6    1
    11     7     6    1
    12     4     3    1
    13    17    16    1
    14    17    12    2
    15    16    15    2
    16     6     1    2
    17    11    10    1
    18    10    12    1
    19    10     8   am
    20     3     8    1
    21     3     2    2
    22    12    13    1
    23    15    14    1
    24     1     2    1
    25     1    25    1
    26    26    25    2
    27     8     9    2
    28    13    14    2
    29    25    27    2
    30    25    28    1
    31    29    28    1
    32    28    30    1
    33    30    37    2
    34    30    31    1
    35    37    35    1
    36    31    32    2
    37    35    36    1
    38    35    33    2
    39    32    33    1
    40    32    34    1
