@<TRIPOS>MOLECULE
53517_out_ligand_01.pdbqt
 43 46 0 0 0
SMALL
GASTEIGER

@<TRIPOS>ATOM
      1  N         21.2480  -22.2620   -8.0160 N.am    1  UNL1       -0.3230
      2  C         21.0380  -21.4580   -6.9090 C.2     1  UNL1        0.2560
      3  O         21.8080  -20.6300   -6.4430 O.2     1  UNL1       -0.2670
      4  H         20.4650  -22.8090   -8.3470 H       1  UNL1        0.1690
      5  C         19.7030  -21.6140   -6.2630 C.2     1  UNL1        0.0340
      6  C         19.3880  -20.9750   -5.0620 C.2     1  UNL1        0.0190
      7  C         18.1230  -21.1520   -4.4930 C.2     1  UNL1        0.0260
      8  C         17.1550  -21.9570   -5.1140 C.2     1  UNL1        0.0570
      9 CL         15.6630  -22.1150   -4.2650 Cl      1  UNL1       -0.0830
     10  C         17.4640  -22.5820   -6.3250 C.2     1  UNL1        0.1020
     11  C         18.7360  -22.3990   -6.9020 C.2     1  UNL1        0.0440
     12  S         16.3070  -23.5780   -7.2290 S.O2    1  UNL1        0.2650
     13  O         15.2650  -22.6880   -7.7040 O.2     1  UNL1       -0.2000
     14  O         15.9430  -24.7570   -6.4790 O.2     1  UNL1       -0.2000
     15  N         17.1750  -24.0040   -8.6140 N.pl3   1  UNL1       -0.2800
     16  H         17.9060  -24.6820   -8.4020 H       1  UNL1        0.1790
     17  C         17.4640  -23.0060   -9.5870 C.2     1  UNL1        0.0490
     18  C         16.4600  -22.0680   -9.8420 C.2     1  UNL1        0.0310
     19  C         16.6730  -21.0450  -10.7600 C.2     1  UNL1        0.0030
     20  C         17.8940  -20.9560  -11.4210 C.2     1  UNL1        0.0070
     21  C         18.9130  -21.8930  -11.1820 C.2     1  UNL1       -0.0540
     22  C         20.2170  -21.7480  -11.9220 C.3     1  UNL1        0.0490
     23  C         18.6940  -22.9520  -10.2680 C.2     1  UNL1       -0.0290
     24  C         19.7860  -23.9590  -10.0140 C.3     1  UNL1        0.0510
     25  C         22.4190  -22.3450   -8.7990 C.2     1  UNL1        0.0350
     26  C         23.1050  -23.5690   -8.7930 C.2     1  UNL1        0.0310
     27  C         24.2780  -23.7350   -9.5340 C.2     1  UNL1        0.0270
     28  C         24.7790  -22.6630  -10.2750 C.2     1  UNL1        0.0800
     29  C         24.1000  -21.4450  -10.3050 C.2     1  UNL1        0.0270
     30  C         22.9250  -21.2880   -9.5610 C.2     1  UNL1        0.0310
     31  S         26.2800  -22.8540  -11.2100 S.O2    1  UNL1        0.2630
     32  O         26.7760  -21.5350  -11.5380 O.2     1  UNL1       -0.2000
     33  O         27.1080  -23.8170  -10.5140 O.2     1  UNL1       -0.2000
     34  N         25.7460  -23.6220  -12.6190 N.pl3   1  UNL1       -0.2810
     35  H         25.0940  -24.3770  -12.4140 H       1  UNL1        0.1790
     36  C         25.5180  -22.8380  -13.7860 C.2     1  UNL1        0.0440
     37  C         24.4600  -21.9340  -13.8340 C.2     1  UNL1        0.0310
     38  C         24.2180  -21.2030  -14.9990 C.2     1  UNL1        0.0110
     39  C         25.0270  -21.3730  -16.1330 C.2     1  UNL1       -0.0400
     40  C         24.7410  -20.5720  -17.3720 C.3     1  UNL1        0.0500
     41  C         26.0870  -22.2920  -16.0680 C.2     1  UNL1        0.0420
     42  C         26.3340  -23.0200  -14.9010 C.2     1  UNL1        0.0540
     43 CL         27.1210  -22.5700  -17.4250 Cl      1  UNL1       -0.0840
@<TRIPOS>BOND
     1    43    41    1
     2    40    39    1
     3    39    41    2
     4    39    38    1
     5    41    42    1
     6    38    37    2
     7    42    36    2
     8    37    36    1
     9    36    34    1
    10    34    35    1
    11    34    31    1
    12    22    21    1
    13    32    31    2
    14    20    21    2
    15    20    19    1
    16    31    33    2
    17    31    28    1
    18    21    23    1
    19    19    18    2
    20    29    28    2
    21    29    30    1
    22    28    27    1
    23    23    24    1
    24    23    17    2
    25    18    17    1
    26    17    15    1
    27    30    25    2
    28    27    26    2
    29    25    26    1
    30    25     1    1
    31    15    16    1
    32    15    12    1
    33     4     1    1
    34     1     2   am
    35    13    12    2
    36    12    14    2
    37    12    10    1
    38     2     3    2
    39     2     5    1
    40    11    10    1
    41    11     5    2
    42    10     8    2
    43     5     6    1
    44     8     7    1
    45     8     9    1
    46     6     7    2
