@<TRIPOS>MOLECULE
53523_out_ligand_01.pdbqt
 35 37 0 0 0
SMALL
GASTEIGER

@<TRIPOS>ATOM
      1  C         19.4030  -22.2540  -10.1880 C.2     1  UNL1        0.0330
      2  C         18.5710  -21.5640  -11.0710 C.2     1  UNL1        0.0170
      3  C         17.1840  -21.6170  -10.9050 C.2     1  UNL1        0.0090
      4  C         16.5970  -22.3670   -9.8670 C.2     1  UNL1       -0.0390
      5  C         15.1000  -22.3460   -9.7490 C.3     1  UNL1        0.0500
      6  C         17.4460  -23.0910   -9.0080 C.2     1  UNL1        0.0860
      7  C         18.8410  -23.0190   -9.1630 C.2     1  UNL1        0.0420
      8  C         20.8820  -22.2360  -10.3300 C.2     1  UNL1        0.2560
      9  N         21.3380  -22.2530  -11.6370 N.am    1  UNL1       -0.3230
     10  H         20.6440  -22.1230  -12.3640 H       1  UNL1        0.1690
     11  O         21.5610  -22.1550   -9.3140 O.2     1  UNL1       -0.2670
     12  C         22.6800  -22.2970  -12.0640 C.2     1  UNL1        0.0360
     13  C         23.0520  -21.4440  -13.1100 C.2     1  UNL1        0.0490
     14  C         24.3740  -21.4280  -13.5910 C.2     1  UNL1        0.0630
     15  C         25.3220  -22.3030  -13.0540 C.2     1  UNL1        0.0500
     16  C         24.9500  -23.1580  -12.0130 C.2     1  UNL1        0.0270
     17 CL         26.9350  -22.4430  -13.6570 Cl      1  UNL1       -0.0830
     18  C         23.6400  -23.1490  -11.5160 C.2     1  UNL1        0.0310
     19  C         24.6650  -20.4670  -14.6730 C.2     1  UNL1        0.2940
     20  O         25.3900  -19.4960  -14.5260 O.2     1  UNL1       -0.2590
     21  O         24.1200  -20.9030  -15.8330 O.3     1  UNL1       -0.3220
     22  C         25.0380  -21.5820  -16.6890 C.3     1  UNL1        0.2130
     23  S         16.8700  -24.1150   -7.6570 S.O2    1  UNL1        0.2630
     24  O         15.7410  -24.8670   -8.1670 O.2     1  UNL1       -0.2000
     25  O         17.9830  -24.7960   -7.0350 O.2     1  UNL1       -0.2000
     26  N         16.2260  -23.0010   -6.5690 N.pl3   1  UNL1       -0.2800
     27  H         15.4810  -22.4440   -6.9830 H       1  UNL1        0.1790
     28  C         17.0190  -22.4310   -5.5300 C.2     1  UNL1        0.0490
     29  C         18.0740  -21.5680   -5.8490 C.2     1  UNL1        0.0370
     30  C         18.8530  -20.9790   -4.8440 C.2     1  UNL1       -0.0600
     31  C         19.9670  -20.0340   -5.1880 C.3     1  UNL1        0.0480
     32  C         18.5710  -21.2730   -3.5080 C.2     1  UNL1        0.0070
     33  C         17.5400  -22.1570   -3.1850 C.2     1  UNL1        0.0090
     34  C         16.7630  -22.7580   -4.1870 C.2     1  UNL1       -0.0350
     35  C         15.6600  -23.6960   -3.7780 C.3     1  UNL1        0.0500
@<TRIPOS>BOND
     1    22    21    1
     2    21    19    1
     3    19    20    2
     4    19    14    1
     5    17    15    1
     6    14    13    1
     7    14    15    2
     8    13    12    2
     9    15    16    1
    10    10     9    1
    11    12     9    1
    12    12    18    1
    13    16    18    2
    14     9     8   am
    15     2     3    1
    16     2     1    2
    17     3     4    2
    18     8     1    1
    19     8    11    2
    20     1     7    1
    21     4     5    1
    22     4     6    1
    23     7     6    2
    24     6    23    1
    25    24    23    2
    26    23    25    2
    27    23    26    1
    28    27    26    1
    29    26    28    1
    30    29    28    2
    31    29    30    1
    32    28    34    1
    33    31    30    1
    34    30    32    2
    35    34    35    1
    36    34    33    2
    37    32    33    1
