@<TRIPOS>MOLECULE
53525_out_ligand_01.pdbqt
 31 33 0 0 0
SMALL
GASTEIGER

@<TRIPOS>ATOM
      1  C         20.2900  -22.6390  -10.0560 C.2     1  UNL1        0.0340
      2  C         20.9490  -23.5940   -9.2770 C.2     1  UNL1        0.0190
      3  C         20.2350  -24.3270   -8.3230 C.2     1  UNL1        0.0260
      4  C         18.8600  -24.1230   -8.1440 C.2     1  UNL1        0.0570
      5 CL         18.0870  -25.1050   -6.9560 Cl      1  UNL1       -0.0830
      6  C         18.2010  -23.1800   -8.9350 C.2     1  UNL1        0.1020
      7  C         18.9150  -22.4380   -9.8900 C.2     1  UNL1        0.0440
      8  C         21.0060  -21.8540  -11.0990 C.2     1  UNL1        0.2560
      9  N         22.2680  -22.3230  -11.4140 N.am    1  UNL1       -0.3230
     10  H         22.6340  -23.0770  -10.8470 H       1  UNL1        0.1690
     11  O         20.4430  -20.8700  -11.5590 O.2     1  UNL1       -0.2670
     12  C         23.1510  -21.8080  -12.3860 C.2     1  UNL1        0.0350
     13  C         24.5120  -21.7490  -12.0480 C.2     1  UNL1        0.0370
     14  C         25.4750  -21.2570  -12.9490 C.2     1  UNL1       -0.0430
     15  C         26.9170  -21.2140  -12.5320 C.3     1  UNL1        0.0490
     16  C         25.0460  -20.8210  -14.2110 C.2     1  UNL1        0.0170
     17  C         23.6940  -20.8790  -14.5550 C.2     1  UNL1        0.0220
     18 BR         26.2560  -20.1400  -15.5060 Br      1  UNL1       -0.0510
     19  C         22.7520  -21.3720  -13.6470 C.2     1  UNL1        0.0310
     20  S         16.4640  -22.8620   -8.7570 S.O2    1  UNL1        0.2650
     21  O         16.0410  -22.0720   -9.8930 O.2     1  UNL1       -0.2000
     22  O         15.8060  -24.1200   -8.4740 O.2     1  UNL1       -0.2000
     23  N         16.3660  -21.8740   -7.3990 N.pl3   1  UNL1       -0.2800
     24  H         16.8010  -20.9680   -7.5630 H       1  UNL1        0.1790
     25  C         16.3340  -22.3910   -6.0660 C.2     1  UNL1        0.0480
     26  C         15.1860  -23.0050   -5.5500 C.2     1  UNL1        0.0300
     27  C         15.1620  -23.5000   -4.2440 C.2     1  UNL1        0.0020
     28  C         16.2770  -23.3620   -3.4290 C.2     1  UNL1        0.0010
     29  C         17.4090  -22.7090   -3.9100 C.2     1  UNL1        0.0090
     30  C         17.4470  -22.2010   -5.2220 C.2     1  UNL1       -0.0350
     31  C         18.6900  -21.4850   -5.6730 C.3     1  UNL1        0.0500
@<TRIPOS>BOND
     1    18    16    1
     2    17    16    2
     3    17    19    1
     4    16    14    1
     5    19    12    2
     6    14    15    1
     7    14    13    2
     8    12    13    1
     9    12     9    1
    10    11     8    2
    11     9     8   am
    12     9    10    1
    13     8     1    1
    14     1     7    2
    15     1     2    1
    16    21    20    2
    17     7     6    1
    18     2     3    2
    19     6    20    1
    20     6     4    2
    21    20    22    2
    22    20    23    1
    23     3     4    1
    24     4     5    1
    25    24    23    1
    26    23    25    1
    27    25    26    2
    28    25    30    1
    29    31    30    1
    30    26    27    1
    31    30    29    2
    32    27    28    2
    33    29    28    1
