@<TRIPOS>MOLECULE
53520_out_ligand_01.pdbqt
 33 35 0 0 0
SMALL
GASTEIGER

@<TRIPOS>ATOM
      1  C         18.5560  -22.2830  -10.2090 C.2     1  UNL1        0.0810
      2  C         19.8430  -22.8400  -10.1590 C.2     1  UNL1        0.0420
      3  C         20.8520  -22.3490  -10.9910 C.2     1  UNL1        0.0330
      4  C         20.5830  -21.2910  -11.8640 C.2     1  UNL1        0.0170
      5  C         19.2990  -20.7390  -11.9140 C.2     1  UNL1        0.0090
      6  C         18.2680  -21.2190  -11.0880 C.2     1  UNL1       -0.0390
      7  C         16.9090  -20.5850  -11.2040 C.3     1  UNL1        0.0500
      8  S         17.3090  -22.9880   -9.1360 S.O2    1  UNL1        0.2460
      9  O         16.5850  -21.8970   -8.5230 O.2     1  UNL1       -0.2060
     10  O         16.6260  -24.0300   -9.8750 O.2     1  UNL1       -0.2060
     11  N         18.2970  -23.7780   -7.9880 N.pl3   1  UNL1       -0.1810
     12  H         17.9730  -24.7450   -7.9260 H       1  UNL1        0.1460
     13  C         18.2820  -23.1580   -6.6930 C.2     1  UNL1        0.0230
     14  C         18.9000  -21.9220   -6.5160 C.2     1  UNL1        0.0310
     15  C         18.8480  -21.2780   -5.2750 C.2     1  UNL1       -0.0600
     16  C         18.1800  -21.9010   -4.2120 C.2     1  UNL1        0.0130
     17  C         19.5360  -19.9610   -5.0750 C.3     1  UNL1        0.0480
     18  C         17.5500  -23.1410   -4.3840 C.2     1  UNL1       -0.0600
     19  C         16.7830  -23.7660   -3.2550 C.3     1  UNL1        0.0480
     20  C         17.5870  -23.7570   -5.6400 C.2     1  UNL1        0.0310
     21  C         22.2110  -22.9470  -10.8960 C.2     1  UNL1        0.2560
     22  O         22.4590  -23.6580   -9.9300 O.2     1  UNL1       -0.2670
     23  N         23.0510  -22.6550  -11.9540 N.am    1  UNL1       -0.3230
     24  H         22.6390  -22.1710  -12.7420 H       1  UNL1        0.1690
     25  C         24.3980  -23.0490  -12.1070 C.2     1  UNL1        0.0370
     26  C         25.2830  -22.6930  -11.0780 C.2     1  UNL1        0.0290
     27  C         26.6360  -23.0400  -11.1410 C.2     1  UNL1        0.0050
     28  C         27.1200  -23.7530  -12.2340 C.2     1  UNL1        0.0360
     29  C         26.2390  -24.1170  -13.2590 C.2     1  UNL1        0.1050
     30  C         24.8810  -23.7700  -13.2020 C.2     1  UNL1        0.0650
     31  N         26.7490  -24.8790  -14.4060 N.pl3   1  UNL1       -0.1160
     32  O         27.1210  -26.0440  -14.2130 O.2     1  UNL1       -0.5320
     33  O         26.7850  -24.3050  -15.5050 O.2     1  UNL1       -0.5320
@<TRIPOS>BOND
     1    33    31    2
     2    31    32    2
     3    31    29    1
     4    29    30    1
     5    29    28    2
     6    30    25    2
     7    24    23    1
     8    28    27    1
     9    25    23    1
    10    25    26    1
    11    23    21   am
    12     5     4    2
    13     5     6    1
    14     4     3    1
    15     7     6    1
    16    27    26    2
    17     6     1    2
    18     3    21    1
    19     3     2    2
    20    21    22    2
    21     1     2    1
    22     1     8    1
    23    10     8    2
    24     8     9    2
    25     8    11    1
    26    11    12    1
    27    11    13    1
    28    13    14    2
    29    13    20    1
    30    14    15    1
    31    20    18    2
    32    15    17    1
    33    15    16    2
    34    18    16    1
    35    18    19    1
