@<TRIPOS>MOLECULE
53526_out_ligand_01.pdbqt
 40 45 0 0 0
SMALL
GASTEIGER

@<TRIPOS>ATOM
      1  C         24.4990  -22.8640  -14.2690 C.2     1  UNL1        0.0860
      2  C         23.9440  -23.1710  -13.0160 C.2     1  UNL1        0.0420
      3  C         22.9730  -22.3380  -12.4560 C.2     1  UNL1        0.0330
      4  C         22.5620  -21.1910  -13.1400 C.2     1  UNL1        0.0170
      5  C         23.1080  -20.8900  -14.3910 C.2     1  UNL1        0.0090
      6  C         24.0870  -21.7140  -14.9730 C.2     1  UNL1       -0.0390
      7  C         24.6230  -21.3330  -16.3270 C.3     1  UNL1        0.0500
      8  C         22.4240  -22.6840  -11.1160 C.2     1  UNL1        0.2560
      9  O         23.0060  -23.5430  -10.4650 O.2     1  UNL1       -0.2670
     10  N         21.2780  -21.9970  -10.7620 N.am    1  UNL1       -0.3230
     11  H         20.8780  -21.3750  -11.4530 H       1  UNL1        0.1690
     12  C         20.5350  -22.1300   -9.5700 C.2     1  UNL1        0.0350
     13  C         19.1610  -22.3440   -9.6890 C.2     1  UNL1        0.0300
     14  C         18.3530  -22.5020   -8.5540 C.2     1  UNL1        0.0100
     15  C         18.8990  -22.4780   -7.2650 C.2     1  UNL1       -0.0530
     16  C         20.2770  -22.2220   -7.1620 C.2     1  UNL1        0.0100
     17  C         21.0860  -22.0580   -8.2950 C.2     1  UNL1        0.0300
     18  C         18.0700  -22.6340   -5.9890 C.3     1  UNL1        0.0270
     19  C         16.7040  -21.8830   -5.9250 C.3     1  UNL1       -0.0050
     20  C         15.6460  -22.5510   -6.8300 C.3     1  UNL1        0.0100
     21  C         16.1870  -21.9370   -4.4700 C.3     1  UNL1        0.0100
     22  C         15.4320  -24.0120   -6.4140 C.3     1  UNL1       -0.0130
     23  C         14.9320  -24.0530   -4.9610 C.3     1  UNL1        0.0090
     24  C         16.7680  -24.7650   -6.5180 C.3     1  UNL1        0.0100
     25  C         15.9650  -23.3960   -4.0330 C.3     1  UNL1       -0.0130
     26  C         17.2900  -24.1650   -4.1400 C.3     1  UNL1        0.0100
     27  C         17.8170  -24.1220   -5.5900 C.3     1  UNL1       -0.0050
     28  S         25.7270  -23.9870  -14.9180 S.O2    1  UNL1        0.2630
     29  O         25.9960  -23.6040  -16.2890 O.2     1  UNL1       -0.2000
     30  O         25.3360  -25.3460  -14.6090 O.2     1  UNL1       -0.2000
     31  N         27.1130  -23.5910  -14.0280 N.pl3   1  UNL1       -0.2810
     32  H         27.4490  -24.4070  -13.5190 H       1  UNL1        0.1790
     33  C         27.1190  -22.3490  -13.3340 C.2     1  UNL1        0.0430
     34  C         27.0440  -22.3330  -11.9460 C.2     1  UNL1        0.0300
     35  C         27.0030  -21.1130  -11.2680 C.2     1  UNL1        0.0090
     36  C         27.0220  -19.8990  -11.9730 C.2     1  UNL1       -0.0560
     37  C         26.9600  -18.6050  -11.2060 C.3     1  UNL1        0.0490
     38  C         27.0550  -19.9190  -13.3810 C.2     1  UNL1       -0.0540
     39  C         27.1210  -21.1530  -14.0490 C.2     1  UNL1        0.0370
     40  C         27.0390  -18.6520  -14.1920 C.3     1  UNL1        0.0490
@<TRIPOS>BOND
     1     7     6    1
     2    29    28    2
     3     6     5    1
     4     6     1    2
     5    28    30    2
     6    28     1    1
     7    28    31    1
     8     5     4    2
     9     1     2    1
    10    40    38    1
    11    39    38    1
    12    39    33    2
    13    31    32    1
    14    31    33    1
    15    38    36    2
    16    33    34    1
    17     4     3    1
    18     2     3    2
    19     3     8    1
    20    36    35    1
    21    36    37    1
    22    34    35    2
    23    11    10    1
    24     8    10   am
    25     8     9    2
    26    10    12    1
    27    13    12    2
    28    13    14    1
    29    12    17    1
    30    14    15    2
    31    17    16    2
    32    15    16    1
    33    15    18    1
    34    20    22    1
    35    20    19    1
    36    24    22    1
    37    24    27    1
    38    22    23    1
    39    18    19    1
    40    18    27    1
    41    19    21    1
    42    27    26    1
    43    23    25    1
    44    21    25    1
    45    26    25    1
