@<TRIPOS>MOLECULE
53521_out_ligand_01.pdbqt
 41 44 0 0 0
SMALL
GASTEIGER

@<TRIPOS>ATOM
      1  N         22.2880  -21.9700  -10.4580 N.am    1  UNL1       -0.3230
      2  C         22.4690  -22.6390   -9.2620 C.2     1  UNL1        0.2560
      3  O         23.2890  -23.5130   -9.0180 O.2     1  UNL1       -0.2670
      4  H         21.6440  -21.1900  -10.4530 H       1  UNL1        0.1690
      5  C         22.9740  -22.1910  -11.6710 C.2     1  UNL1        0.0350
      6  C         24.0440  -23.0790  -11.8120 C.2     1  UNL1        0.0310
      7  C         24.6830  -23.2350  -13.0470 C.2     1  UNL1        0.0270
      8  C         24.2520  -22.4910  -14.1470 C.2     1  UNL1        0.0800
      9  C         23.1610  -21.6280  -14.0320 C.2     1  UNL1        0.0270
     10  C         22.5330  -21.4750  -12.7930 C.2     1  UNL1        0.0310
     11  S         25.0650  -22.6840  -15.7170 S.O2    1  UNL1        0.2630
     12  O         24.2850  -21.9780  -16.7100 O.2     1  UNL1       -0.2000
     13  O         25.3840  -24.0880  -15.8750 O.2     1  UNL1       -0.2000
     14  N         26.5430  -21.8970  -15.4890 N.pl3   1  UNL1       -0.2800
     15  H         27.1650  -22.4200  -14.8740 H       1  UNL1        0.1790
     16  C         26.6020  -20.4730  -15.4690 C.2     1  UNL1        0.0500
     17  C         26.3840  -19.7590  -16.6510 C.2     1  UNL1        0.0540
     18  C         26.4030  -18.3670  -16.6360 C.2     1  UNL1        0.0360
     19  C         26.6440  -17.6780  -15.4520 C.2     1  UNL1        0.0240
     20 CL         26.1200  -17.4900  -18.0880 Cl      1  UNL1       -0.0840
     21  C         26.8760  -18.3870  -14.2730 C.2     1  UNL1        0.0110
     22  C         26.8580  -19.7910  -14.2650 C.2     1  UNL1       -0.0350
     23  C         27.1210  -20.5150  -12.9740 C.3     1  UNL1        0.0500
     24  C         21.5690  -22.1970   -8.1630 C.2     1  UNL1        0.0330
     25  C         21.9560  -21.1990   -7.2650 C.2     1  UNL1        0.0170
     26  C         21.0810  -20.7920   -6.2550 C.2     1  UNL1        0.0090
     27  C         19.8000  -21.3600   -6.1300 C.2     1  UNL1       -0.0390
     28  C         18.9170  -20.8800   -5.0130 C.3     1  UNL1        0.0500
     29  C         19.4220  -22.3650   -7.0450 C.2     1  UNL1        0.0860
     30  C         20.3020  -22.7760   -8.0580 C.2     1  UNL1        0.0420
     31  S         17.8360  -23.1840   -6.9590 S.O2    1  UNL1        0.2630
     32  O         17.9160  -24.2630   -5.9980 O.2     1  UNL1       -0.2000
     33  O         16.8190  -22.1630   -6.8170 O.2     1  UNL1       -0.2000
     34  N         17.6560  -23.8280   -8.5130 N.pl3   1  UNL1       -0.2810
     35  H         18.2180  -24.6720   -8.6140 H       1  UNL1        0.1790
     36  C         17.6620  -22.9180   -9.6070 C.2     1  UNL1        0.0420
     37  C         18.7380  -22.9120  -10.4960 C.2     1  UNL1        0.0300
     38  C         18.7690  -21.9880  -11.5400 C.2     1  UNL1        0.0020
     39  C         17.7310  -21.0670  -11.6870 C.2     1  UNL1        0.0000
     40  C         16.6610  -21.0700  -10.7910 C.2     1  UNL1        0.0020
     41  C         16.6270  -21.9950   -9.7480 C.2     1  UNL1        0.0300
@<TRIPOS>BOND
     1    20    18    1
     2    12    11    2
     3    17    18    1
     4    17    16    2
     5    18    19    2
     6    13    11    2
     7    11    14    1
     8    11     8    1
     9    14    16    1
    10    14    15    1
    11    16    22    1
    12    19    21    1
    13    21    22    2
    14    22    23    1
    15     8     9    2
    16     8     7    1
    17     9    10    1
    18     7     6    2
    19    10     5    2
    20     6     5    1
    21    39    38    2
    22    39    40    1
    23     5     1    1
    24    38    37    1
    25    40    41    2
    26    37    36    2
    27     1     4    1
    28     1     2   am
    29    41    36    1
    30    36    34    1
    31     2     3    2
    32     2    24    1
    33    35    34    1
    34    34    31    1
    35    24    30    2
    36    24    25    1
    37    30    29    1
    38    25    26    2
    39    29    31    1
    40    29    27    2
    41    31    33    2
    42    31    32    2
    43    26    27    1
    44    27    28    1
