@<TRIPOS>MOLECULE
53537_out_ligand_01.pdbqt
 36 39 0 0 0
SMALL
GASTEIGER

@<TRIPOS>ATOM
      1  C         25.1760  -22.1700  -12.0320 C.2     1  UNL1        0.0860
      2  C         23.8320  -21.7840  -12.1760 C.2     1  UNL1        0.0420
      3  C         22.8740  -22.1900  -11.2450 C.2     1  UNL1        0.0330
      4  C         23.2550  -22.9830  -10.1630 C.2     1  UNL1        0.0170
      5  C         24.5960  -23.3420  -10.0000 C.2     1  UNL1        0.0090
      6  C         25.5800  -22.9360  -10.9240 C.2     1  UNL1       -0.0390
      7  C         26.9980  -23.3630  -10.6680 C.3     1  UNL1        0.0500
      8  C         21.4550  -21.8120  -11.4800 C.2     1  UNL1        0.2560
      9  O         21.1900  -21.2100  -12.5140 O.2     1  UNL1       -0.2670
     10  N         20.5870  -22.1710  -10.4710 N.am    1  UNL1       -0.3220
     11  H         20.9870  -22.5680   -9.6250 H       1  UNL1        0.1690
     12  C         19.1820  -22.0000  -10.4240 C.2     1  UNL1        0.0520
     13  C         18.4840  -21.2170  -11.3510 C.2     1  UNL1        0.0310
     14  C         17.0950  -21.0710  -11.2640 C.2     1  UNL1        0.0020
     15  C         16.3860  -21.7040  -10.2480 C.2     1  UNL1        0.0020
     16  C         17.0640  -22.4920   -9.3190 C.2     1  UNL1        0.0210
     17  C         18.4570  -22.6550   -9.4030 C.2     1  UNL1        0.0320
     18  S         19.2330  -23.6870   -8.1550 S.3     1  UNL1       -0.0880
     19  C         18.7680  -22.9190   -6.6110 C.2     1  UNL1        0.0050
     20  C         19.2860  -21.6460   -6.3350 C.2     1  UNL1        0.0190
     21  C         18.9710  -20.9950   -5.1410 C.2     1  UNL1        0.0010
     22  C         18.1340  -21.6070   -4.2120 C.2     1  UNL1        0.0000
     23  C         17.6040  -22.8670   -4.4800 C.2     1  UNL1        0.0010
     24  C         17.9130  -23.5170   -5.6770 C.2     1  UNL1        0.0190
     25  S         26.2770  -21.6060  -13.3250 S.O2    1  UNL1        0.2630
     26  O         26.9650  -22.7300  -13.9200 O.2     1  UNL1       -0.2000
     27  O         27.0260  -20.4970  -12.7740 O.2     1  UNL1       -0.2000
     28  N         25.2210  -20.9390  -14.4610 N.pl3   1  UNL1       -0.2800
     29  H         24.4620  -20.4240  -14.0260 H       1  UNL1        0.1790
     30  C         24.9840  -21.5850  -15.7130 C.2     1  UNL1        0.0480
     31  C         24.3800  -22.8470  -15.7430 C.2     1  UNL1        0.0300
     32  C         24.1310  -23.4860  -16.9570 C.2     1  UNL1        0.0020
     33  C         24.4970  -22.8750  -18.1520 C.2     1  UNL1        0.0010
     34  C         25.1220  -21.6290  -18.1320 C.2     1  UNL1        0.0090
     35  C         25.3900  -20.9760  -16.9160 C.2     1  UNL1       -0.0350
     36  C         26.0720  -19.6350  -16.9570 C.3     1  UNL1        0.0500
@<TRIPOS>BOND
     1    33    34    2
     2    33    32    1
     3    34    35    1
     4    36    35    1
     5    32    31    2
     6    35    30    2
     7    31    30    1
     8    30    28    1
     9    28    29    1
    10    28    25    1
    11    26    25    2
    12    25    27    2
    13    25     1    1
    14     9     8    2
    15     2     1    2
    16     2     3    1
    17     1     6    1
    18     8     3    1
    19     8    10   am
    20    13    14    1
    21    13    12    2
    22    14    15    2
    23     3     4    2
    24     6     7    1
    25     6     5    2
    26    10    12    1
    27    10    11    1
    28    12    17    1
    29    15    16    1
    30     4     5    1
    31    17    16    2
    32    17    18    1
    33    18    19    1
    34    19    20    2
    35    19    24    1
    36    20    21    1
    37    24    23    2
    38    21    22    2
    39    23    22    1
