@<TRIPOS>MOLECULE
53531_out_ligand_01.pdbqt
 36 39 0 0 0
SMALL
GASTEIGER

@<TRIPOS>ATOM
      1  C         18.2750  -22.7440   -9.7260 C.2     1  UNL1        0.0860
      2  C         19.5120  -23.3340   -9.4170 C.2     1  UNL1        0.0420
      3  C         20.6610  -22.9750  -10.1240 C.2     1  UNL1        0.0330
      4  C         20.5800  -21.9930  -11.1110 C.2     1  UNL1        0.0170
      5  C         19.3550  -21.3870  -11.4030 C.2     1  UNL1        0.0090
      6  C         18.1840  -21.7560  -10.7250 C.2     1  UNL1       -0.0390
      7  C         16.9160  -21.0240  -11.0690 C.3     1  UNL1        0.0500
      8  C         21.9540  -23.6210   -9.7560 C.2     1  UNL1        0.2560
      9  O         21.9280  -24.5700   -8.9840 O.2     1  UNL1       -0.2670
     10  N         23.0720  -23.0610  -10.3410 N.am    1  UNL1       -0.3220
     11  H         22.9180  -22.3580  -11.0670 H       1  UNL1        0.1690
     12  C         24.4280  -23.4330  -10.1710 C.2     1  UNL1        0.0500
     13  C         24.8900  -24.1070   -9.0370 C.2     1  UNL1        0.0300
     14  C         26.2270  -24.5050   -8.9350 C.2     1  UNL1        0.0020
     15  C         27.1210  -24.2420   -9.9670 C.2     1  UNL1        0.0010
     16  C         26.6870  -23.5530  -11.0980 C.2     1  UNL1        0.0190
     17  C         25.3560  -23.1190  -11.1860 C.2     1  UNL1        0.0590
     18  C         24.9160  -22.3350  -12.3690 C.2     1  UNL1        0.2560
     19  O         24.7230  -21.1310  -12.2260 O.2     1  UNL1       -0.2670
     20  N         24.8320  -22.9610  -13.6010 N.am    1  UNL1       -0.3480
     21  C         24.5140  -22.1930  -14.7960 C.3     1  UNL1        0.1260
     22  C         25.3750  -24.2700  -13.9520 C.3     1  UNL1        0.1260
     23  C         25.1960  -22.9510  -15.9270 C.3     1  UNL1        0.0210
     24  C         25.1410  -24.3940  -15.4500 C.3     1  UNL1        0.0210
     25  S         16.8560  -23.2690   -8.7660 S.O2    1  UNL1        0.2630
     26  O         17.2660  -24.3700   -7.9270 O.2     1  UNL1       -0.2000
     27  O         15.7290  -23.4200   -9.6570 O.2     1  UNL1       -0.2000
     28  N         16.5700  -21.9740   -7.7290 N.pl3   1  UNL1       -0.2800
     29  H         16.0070  -21.2530   -8.1760 H       1  UNL1        0.1790
     30  C         16.4530  -22.1540   -6.3210 C.2     1  UNL1        0.0480
     31  C         15.2270  -22.5170   -5.7480 C.2     1  UNL1        0.0300
     32  C         15.1070  -22.6860   -4.3670 C.2     1  UNL1        0.0020
     33  C         16.2200  -22.5220   -3.5490 C.2     1  UNL1        0.0010
     34  C         17.4560  -22.1990   -4.1120 C.2     1  UNL1        0.0090
     35  C         17.5910  -22.0250   -5.5000 C.2     1  UNL1       -0.0350
     36  C         18.9540  -21.7070   -6.0530 C.3     1  UNL1        0.0500
@<TRIPOS>BOND
     1    23    24    1
     2    23    21    1
     3    24    22    1
     4    21    20    1
     5    22    20    1
     6    20    18   am
     7    18    19    2
     8    18    17    1
     9     5     4    2
    10     5     6    1
    11    17    16    1
    12    17    12    2
    13     4     3    1
    14    16    15    2
    15     7     6    1
    16    11    10    1
    17     6     1    2
    18    10    12    1
    19    10     8   am
    20    12    13    1
    21     3     8    1
    22     3     2    2
    23    15    14    1
    24     8     9    2
    25     1     2    1
    26     1    25    1
    27    27    25    2
    28    13    14    2
    29    25    26    2
    30    25    28    1
    31    29    28    1
    32    28    30    1
    33    30    31    2
    34    30    35    1
    35    36    35    1
    36    31    32    1
    37    35    34    2
    38    32    33    2
    39    34    33    1
