@<TRIPOS>MOLECULE
53534_out_ligand_01.pdbqt
 33 35 0 0 0
SMALL
GASTEIGER

@<TRIPOS>ATOM
      1  C         16.5480  -21.0440  -11.1040 C.3     1  UNL1        0.0500
      2  C         17.9490  -21.5260  -10.8530 C.2     1  UNL1       -0.0390
      3  C         18.9810  -20.9900  -11.6490 C.2     1  UNL1        0.0090
      4  C         20.3140  -21.3840  -11.4830 C.2     1  UNL1        0.0170
      5  C         20.6400  -22.3450  -10.5240 C.2     1  UNL1        0.0330
      6  C         19.6250  -22.8960   -9.7310 C.2     1  UNL1        0.0420
      7  C         18.2890  -22.4820   -9.8780 C.2     1  UNL1        0.0860
      8  C         22.0420  -22.7680  -10.2590 C.2     1  UNL1        0.2510
      9  O         22.2540  -23.8690   -9.7580 O.2     1  UNL1       -0.2680
     10  N         23.0420  -21.8880  -10.6100 N.am    1  UNL1       -0.3530
     11  H         22.8280  -21.0970  -11.2020 H       1  UNL1        0.1630
     12  C         24.4380  -22.2470  -10.4830 C.3     1  UNL1        0.1630
     13  C         25.0960  -22.3770  -11.8360 C.2     1  UNL1       -0.0190
     14  C         24.7670  -23.4850  -12.6410 C.2     1  UNL1        0.0120
     15  C         25.3410  -23.6520  -13.9040 C.2     1  UNL1        0.0240
     16  C         26.2430  -22.7050  -14.3790 C.2     1  UNL1        0.0350
     17 CL         26.9550  -22.9120  -15.9340 Cl      1  UNL1       -0.0840
     18  C         26.5670  -21.5880  -13.6100 C.2     1  UNL1        0.0480
     19  C         25.9910  -21.4220  -12.3450 C.2     1  UNL1        0.0430
     20 CL         26.4120  -19.9930  -11.4560 Cl      1  UNL1       -0.0840
     21  S         17.1110  -23.2730   -8.7900 S.O2    1  UNL1        0.2630
     22  O         15.9860  -23.7680   -9.5540 O.2     1  UNL1       -0.2000
     23  O         17.8680  -24.1720   -7.9410 O.2     1  UNL1       -0.2000
     24  N         16.6050  -22.0110   -7.7930 N.pl3   1  UNL1       -0.2800
     25  H         15.9560  -21.3650   -8.2480 H       1  UNL1        0.1790
     26  C         16.5220  -22.1940   -6.3820 C.2     1  UNL1        0.0490
     27  C         15.3070  -22.6630   -5.8580 C.2     1  UNL1        0.0310
     28  C         15.1510  -22.8450   -4.4880 C.2     1  UNL1        0.0030
     29  C         16.2030  -22.5350   -3.6310 C.2     1  UNL1        0.0070
     30  C         17.4270  -22.0500   -4.1320 C.2     1  UNL1       -0.0540
     31  C         18.5170  -21.7050   -3.1530 C.3     1  UNL1        0.0490
     32  C         17.6110  -21.9150   -5.5320 C.2     1  UNL1       -0.0290
     33  C         18.9380  -21.4460   -6.0760 C.3     1  UNL1        0.0510
@<TRIPOS>BOND
     1    17    16    1
     2    16    15    2
     3    16    18    1
     4    15    14    1
     5    18    19    2
     6    14    13    2
     7    19    13    1
     8    19    20    1
     9    13    12    1
    10     3     4    1
    11     3     2    2
    12     4     5    2
    13    11    10    1
    14     1     2    1
    15     2     7    1
    16    10    12    1
    17    10     8   am
    18     5     8    1
    19     5     6    1
    20     8     9    2
    21     7     6    2
    22     7    21    1
    23    22    21    2
    24    21    23    2
    25    21    24    1
    26    25    24    1
    27    24    26    1
    28    26    27    2
    29    26    32    1
    30    33    32    1
    31    27    28    1
    32    32    30    2
    33    28    29    2
    34    30    29    1
    35    30    31    1
