@<TRIPOS>MOLECULE
53533_out_ligand_01.pdbqt
 31 33 0 0 0
SMALL
GASTEIGER

@<TRIPOS>ATOM
      1  C         17.0230  -21.0440  -11.2630 C.3     1  UNL1        0.0500
      2  C         18.4010  -21.5590  -10.9550 C.2     1  UNL1       -0.0390
      3  C         19.4770  -21.0410  -11.6980 C.2     1  UNL1        0.0090
      4  C         20.7910  -21.4500  -11.4540 C.2     1  UNL1        0.0170
      5  C         21.0680  -22.3830  -10.4510 C.2     1  UNL1        0.0330
      6  C         20.0120  -22.9190   -9.7090 C.2     1  UNL1        0.0420
      7  C         18.6860  -22.5080   -9.9540 C.2     1  UNL1        0.0860
      8  S         17.4360  -23.2250   -8.8930 S.O2    1  UNL1        0.2630
      9  O         16.2990  -23.5310   -9.7420 O.2     1  UNL1       -0.2000
     10  O         18.0080  -24.2540   -8.0570 O.2     1  UNL1       -0.2000
     11  N         16.9490  -21.9110   -7.9500 N.pl3   1  UNL1       -0.2800
     12  H         16.2720  -21.3310   -8.4430 H       1  UNL1        0.1790
     13  C         16.7450  -22.1120   -6.5550 C.2     1  UNL1        0.0490
     14  C         15.4820  -22.5600   -6.1570 C.2     1  UNL1        0.0310
     15  C         15.1960  -22.7450   -4.8090 C.2     1  UNL1        0.0030
     16  C         16.1700  -22.4720   -3.8500 C.2     1  UNL1        0.0070
     17  C         17.4440  -22.0140   -4.2290 C.2     1  UNL1       -0.0540
     18  C         18.4560  -21.7190   -3.1530 C.3     1  UNL1        0.0490
     19  C         17.7520  -21.8530   -5.6030 C.2     1  UNL1       -0.0290
     20  C         19.1160  -21.3570   -6.0130 C.3     1  UNL1        0.0510
     21  C         22.4840  -22.7910  -10.2290 C.2     1  UNL1        0.2510
     22  O         22.7450  -23.6780   -9.4260 O.2     1  UNL1       -0.2680
     23  N         23.4380  -22.1420  -10.9820 N.am    1  UNL1       -0.3530
     24  H         23.1480  -21.6000  -11.7850 H       1  UNL1        0.1630
     25  C         24.8330  -22.5200  -10.9230 C.3     1  UNL1        0.1620
     26  C         25.2760  -23.1630  -12.2040 C.2     1  UNL1       -0.0230
     27  C         24.6720  -22.8500  -13.4240 C.2     1  UNL1        0.0120
     28  C         25.1340  -23.4430  -14.5960 C.2     1  UNL1        0.0200
     29  C         26.1950  -24.3300  -14.5070 C.2     1  UNL1        0.1160
     30  N         26.8030  -24.6620  -13.3480 N.2     1  UNL1       -0.2730
     31  C         26.3340  -24.0680  -12.2270 C.2     1  UNL1        0.1240
@<TRIPOS>BOND
     1    28    29    2
     2    28    27    1
     3    29    30    1
     4    27    26    2
     5    30    31    2
     6    31    26    1
     7    26    25    1
     8    24    23    1
     9     3     4    1
    10     3     2    2
    11     4     5    2
    12     1     2    1
    13    23    25    1
    14    23    21   am
    15     2     7    1
    16     5    21    1
    17     5     6    1
    18    21    22    2
    19     7     6    2
    20     7     8    1
    21     9     8    2
    22     8    10    2
    23     8    11    1
    24    12    11    1
    25    11    13    1
    26    13    14    2
    27    13    19    1
    28    14    15    1
    29    20    19    1
    30    19    17    2
    31    15    16    2
    32    17    16    1
    33    17    18    1
