@<TRIPOS>MOLECULE
53536_out_ligand_01.pdbqt
 45 48 0 0 0
SMALL
GASTEIGER

@<TRIPOS>ATOM
      1  C         22.0860  -22.6570  -10.8330 C.2     1  UNL1        0.2560
      2  O         21.0850  -22.3220  -11.4550 O.2     1  UNL1       -0.2670
      3  N         22.1280  -22.9650   -9.4840 N.am    1  UNL1       -0.3230
      4  H         23.0340  -23.0840   -9.0570 H       1  UNL1        0.1690
      5  C         21.0310  -23.0800   -8.6000 C.2     1  UNL1        0.0350
      6  C         20.8370  -22.0310   -7.6870 C.2     1  UNL1        0.0310
      7  C         19.7980  -22.0750   -6.7540 C.2     1  UNL1        0.0270
      8  C         18.9400  -23.1750   -6.7350 C.2     1  UNL1        0.0750
      9  C         19.1200  -24.2280   -7.6350 C.2     1  UNL1        0.0270
     10  C         20.1620  -24.1740   -8.5660 C.2     1  UNL1        0.0310
     11  S         17.6530  -23.2830   -5.5190 S.O2    1  UNL1        0.2450
     12  O         18.0450  -22.5130   -4.3590 O.2     1  UNL1       -0.2060
     13  O         17.2930  -24.6800   -5.4010 O.2     1  UNL1       -0.2060
     14  N         16.3440  -22.5280   -6.2870 N.pl3   1  UNL1       -0.1810
     15  H         16.2620  -21.5670   -5.9580 H       1  UNL1        0.1460
     16  C         16.1830  -22.7520   -7.6820 C.2     1  UNL1        0.0230
     17  C         15.5080  -23.8820   -8.1440 C.2     1  UNL1        0.0240
     18  C         15.4220  -24.1260   -9.5150 C.2     1  UNL1        0.0030
     19  C         16.0200  -23.2480  -10.4220 C.2     1  UNL1        0.0160
     20  C         16.7020  -22.1060   -9.9670 C.2     1  UNL1        0.0490
     21  C         16.7870  -21.8730   -8.5860 C.2     1  UNL1        0.0400
     22  C         17.3680  -21.1620  -10.9390 C.3     1  UNL1        0.4170
     23  F         17.3880  -21.6490  -12.2110 F       1  UNL1       -0.1660
     24  F         16.7450  -19.9550  -11.0090 F       1  UNL1       -0.1660
     25  F         18.6680  -20.8930  -10.6240 F       1  UNL1       -0.1660
     26  C         23.3920  -22.6940  -11.5730 C.2     1  UNL1        0.0330
     27  C         24.5730  -23.2100  -11.0320 C.2     1  UNL1        0.0170
     28  C         25.7610  -23.1850  -11.7740 C.2     1  UNL1        0.0090
     29  C         25.8020  -22.6630  -13.0800 C.2     1  UNL1       -0.0390
     30  C         27.1210  -22.6740  -13.8020 C.3     1  UNL1        0.0500
     31  C         24.6020  -22.1960  -13.6400 C.2     1  UNL1        0.0810
     32  C         23.4130  -22.2070  -12.8850 C.2     1  UNL1        0.0420
     33  S         24.4430  -21.6140  -15.3280 S.O2    1  UNL1        0.2460
     34  O         24.0870  -22.7050  -16.2050 O.2     1  UNL1       -0.2060
     35  O         23.6510  -20.4020  -15.2790 O.2     1  UNL1       -0.2060
     36  N         26.0320  -21.0970  -15.6390 N.pl3   1  UNL1       -0.1810
     37  H         26.5970  -21.2840  -14.8110 H       1  UNL1        0.1460
     38  C         26.1790  -19.7810  -16.1850 C.2     1  UNL1        0.0290
     39  C         25.8260  -19.6030  -17.5260 C.2     1  UNL1        0.0250
     40  C         25.9220  -18.3450  -18.1090 C.2     1  UNL1        0.0020
     41  C         26.3470  -17.2590  -17.3480 C.2     1  UNL1        0.0070
     42  C         26.6810  -17.4140  -15.9900 C.2     1  UNL1       -0.0540
     43  C         27.1190  -16.1980  -15.2140 C.3     1  UNL1        0.0490
     44  C         26.6110  -18.6940  -15.3940 C.2     1  UNL1       -0.0340
     45  C         26.9170  -18.8790  -13.9260 C.3     1  UNL1        0.0500
@<TRIPOS>BOND
     1    40    39    1
     2    40    41    2
     3    39    38    2
     4    41    42    1
     5    34    33    2
     6    38    36    1
     7    38    44    1
     8    42    44    2
     9    42    43    1
    10    36    33    1
    11    36    37    1
    12    44    45    1
    13    33    35    2
    14    33    31    1
    15    30    29    1
    16    31    29    2
    17    31    32    1
    18    29    28    1
    19    32    26    2
    20    23    22    1
    21    28    27    2
    22    26    27    1
    23    26     1    1
    24     2     1    2
    25    24    22    1
    26    22    25    1
    27    22    20    1
    28     1     3   am
    29    19    20    2
    30    19    18    1
    31    20    21    1
    32    18    17    2
    33     3     4    1
    34     3     5    1
    35     5    10    2
    36     5     6    1
    37    21    16    2
    38    10     9    1
    39    17    16    1
    40     6     7    2
    41    16    14    1
    42     9     8    2
    43     7     8    1
    44     8    11    1
    45    14    15    1
    46    14    11    1
    47    11    13    2
    48    11    12    2
