@<TRIPOS>MOLECULE
53548_out_ligand_01.pdbqt
 42 45 0 0 0
SMALL
GASTEIGER

@<TRIPOS>ATOM
      1  N         21.2780  -22.3040   -7.9240 N.am    1  UNL1       -0.3230
      2  C         21.0180  -21.4150   -6.8970 C.2     1  UNL1        0.2560
      3  O         21.7570  -20.5300   -6.4870 O.2     1  UNL1       -0.2670
      4  H         20.5900  -23.0260   -8.0940 H       1  UNL1        0.1690
      5  C         19.6950  -21.5910   -6.2330 C.2     1  UNL1        0.0330
      6  C         19.4220  -21.0400   -4.9770 C.2     1  UNL1        0.0170
      7  C         18.1730  -21.2410   -4.3830 C.2     1  UNL1        0.0090
      8  C         17.1710  -21.9900   -5.0260 C.2     1  UNL1       -0.0390
      9  C         15.8720  -22.1930   -4.2970 C.3     1  UNL1        0.0500
     10  C         17.4650  -22.5570   -6.2820 C.2     1  UNL1        0.0860
     11  C         18.7240  -22.3660   -6.8730 C.2     1  UNL1        0.0420
     12  S         16.2950  -23.5790   -7.1710 S.O2    1  UNL1        0.2630
     13  O         15.1640  -22.7520   -7.5370 O.2     1  UNL1       -0.2000
     14  O         16.0900  -24.7990   -6.4190 O.2     1  UNL1       -0.2000
     15  N         17.0990  -23.9390   -8.6040 N.pl3   1  UNL1       -0.2800
     16  H         16.9600  -24.8990   -8.9030 H       1  UNL1        0.1790
     17  C         17.4030  -22.9410   -9.5810 C.2     1  UNL1        0.0490
     18  C         16.4810  -21.9290   -9.8600 C.2     1  UNL1        0.0310
     19  C         16.7690  -20.9510  -10.8080 C.2     1  UNL1        0.0030
     20  C         17.9940  -20.9600  -11.4670 C.2     1  UNL1        0.0070
     21  C         18.9570  -21.9420  -11.1820 C.2     1  UNL1       -0.0540
     22  C         20.2790  -21.8760  -11.9030 C.3     1  UNL1        0.0490
     23  C         18.6670  -22.9460  -10.2230 C.2     1  UNL1       -0.0290
     24  C         19.6840  -24.0110   -9.8900 C.3     1  UNL1        0.0510
     25  C         22.4270  -22.3560   -8.7410 C.2     1  UNL1        0.0350
     26  C         22.9050  -21.2760   -9.4880 C.2     1  UNL1        0.0310
     27  C         24.0420  -21.4150  -10.2910 C.2     1  UNL1        0.0270
     28  C         24.6900  -22.6490  -10.3650 C.2     1  UNL1        0.0800
     29  C         24.2450  -23.7280   -9.6010 C.2     1  UNL1        0.0270
     30  C         23.1140  -23.5780   -8.7940 C.2     1  UNL1        0.0310
     31  S         26.1080  -22.8360  -11.4200 S.O2    1  UNL1        0.2630
     32  O         26.9470  -23.8740  -10.8610 O.2     1  UNL1       -0.2000
     33  O         26.6360  -21.5130  -11.6810 O.2     1  UNL1       -0.2000
     34  N         25.4380  -23.3680  -12.8780 N.pl3   1  UNL1       -0.2800
     35  H         25.4030  -24.3840  -12.9370 H       1  UNL1        0.1790
     36  C         25.6740  -22.6340  -14.0760 C.2     1  UNL1        0.0480
     37  C         26.8750  -22.8230  -14.7700 C.2     1  UNL1        0.0300
     38  C         27.1210  -22.1360  -15.9570 C.2     1  UNL1        0.0020
     39  C         26.1680  -21.2560  -16.4600 C.2     1  UNL1        0.0010
     40  C         24.9700  -21.0590  -15.7700 C.2     1  UNL1        0.0090
     41  C         24.7070  -21.7440  -14.5700 C.2     1  UNL1       -0.0350
     42  C         23.4140  -21.4830  -13.8520 C.3     1  UNL1        0.0500
@<TRIPOS>BOND
     1    39    38    2
     2    39    40    1
     3    38    37    1
     4    40    41    2
     5    37    36    2
     6    41    36    1
     7    41    42    1
     8    36    34    1
     9    35    34    1
    10    34    31    1
    11    22    21    1
    12    33    31    2
    13    20    21    2
    14    20    19    1
    15    31    32    2
    16    31    28    1
    17    21    23    1
    18    19    18    2
    19    28    27    2
    20    28    29    1
    21    27    26    1
    22    23    24    1
    23    23    17    2
    24    18    17    1
    25    29    30    2
    26    17    15    1
    27    26    25    2
    28    16    15    1
    29    30    25    1
    30    25     1    1
    31    15    12    1
    32     4     1    1
    33     1     2   am
    34    13    12    2
    35    12    14    2
    36    12    10    1
    37     2     3    2
    38     2     5    1
    39    11    10    1
    40    11     5    2
    41    10     8    2
    42     5     6    1
    43     8     7    1
    44     8     9    1
    45     6     7    2
