@<TRIPOS>MOLECULE
53547_out_ligand_01.pdbqt
 32 34 0 0 0
SMALL
GASTEIGER

@<TRIPOS>ATOM
      1  C         26.7040  -22.6370  -14.0350 C.3     1  UNL1        0.1620
      2  C         26.0680  -23.4400  -15.0900 C.1     1  UNL1        0.0630
      3  N         25.5810  -24.0650  -15.9380 N.1     1  UNL1       -0.1970
      4  C         25.7800  -22.3630  -12.8730 C.2     1  UNL1       -0.0450
      5  C         24.4870  -22.9020  -12.8470 C.2     1  UNL1        0.0100
      6  C         23.6410  -22.6590  -11.7610 C.2     1  UNL1        0.0300
      7  C         24.0650  -21.8740  -10.6820 C.2     1  UNL1        0.0350
      8  C         25.3550  -21.3450  -10.7040 C.2     1  UNL1        0.0300
      9  C         26.2060  -21.5880  -11.7880 C.2     1  UNL1        0.0100
     10  N         23.1530  -21.6840   -9.6240 N.am    1  UNL1       -0.3230
     11  C         22.5700  -22.6590   -8.8370 C.2     1  UNL1        0.2560
     12  O         22.7850  -23.8650   -8.8620 O.2     1  UNL1       -0.2670
     13  H         22.9610  -20.7210   -9.3790 H       1  UNL1        0.1690
     14  C         21.5990  -22.1520   -7.8290 C.2     1  UNL1        0.0330
     15  C         20.3380  -22.7460   -7.7660 C.2     1  UNL1        0.0420
     16  C         19.3680  -22.2670   -6.8660 C.2     1  UNL1        0.0860
     17  C         19.6680  -21.2000   -5.9980 C.2     1  UNL1       -0.0390
     18  C         20.9460  -20.6140   -6.0830 C.2     1  UNL1        0.0090
     19  C         18.7040  -20.6400   -4.9910 C.3     1  UNL1        0.0500
     20  C         21.9010  -21.0760   -6.9930 C.2     1  UNL1        0.0170
     21  S         17.7830  -23.1010   -6.9250 S.O2    1  UNL1        0.2630
     22  O         16.7130  -22.1570   -6.6930 O.2     1  UNL1       -0.2000
     23  O         17.9110  -24.2880   -6.1040 O.2     1  UNL1       -0.2000
     24  N         17.7010  -23.6400   -8.5250 N.pl3   1  UNL1       -0.2810
     25  H         18.1720  -24.5350   -8.6520 H       1  UNL1        0.1790
     26  C         17.7830  -22.6930   -9.5840 C.2     1  UNL1        0.0430
     27  C         16.6420  -21.9700   -9.9310 C.2     1  UNL1        0.0300
     28  C         16.6880  -21.0710  -10.9970 C.2     1  UNL1        0.0030
     29  C         17.8750  -20.8900  -11.7090 C.2     1  UNL1        0.0070
     30  C         19.0290  -21.5970  -11.3530 C.2     1  UNL1       -0.0600
     31  C         20.2990  -21.4280  -12.1340 C.3     1  UNL1        0.0480
     32  C         18.9710  -22.5090  -10.2910 C.2     1  UNL1        0.0370
@<TRIPOS>BOND
     1     3     2    3
     2     2     1    1
     3     1     4    1
     4     4     5    2
     5     4     9    1
     6     5     6    1
     7    31    30    1
     8     9     8    2
     9     6     7    2
    10    29    30    2
    11    29    28    1
    12    30    32    1
    13    28    27    2
    14     8     7    1
    15     7    10    1
    16    32    26    2
    17    27    26    1
    18    10    13    1
    19    10    11   am
    20    26    24    1
    21    12    11    2
    22    11    14    1
    23    25    24    1
    24    24    21    1
    25    14    15    2
    26    14    20    1
    27    15    16    1
    28    20    18    2
    29    21    16    1
    30    21    22    2
    31    21    23    2
    32    16    17    2
    33    18    17    1
    34    17    19    1
