@<TRIPOS>MOLECULE
53556_out_ligand_01.pdbqt
 42 45 0 0 0
SMALL
GASTEIGER

@<TRIPOS>ATOM
      1  N         21.2310  -22.3410   -7.9910 N.am    1  UNL1       -0.3230
      2  C         20.9670  -21.4830   -6.9370 C.2     1  UNL1        0.2560
      3  O         21.7040  -20.6050   -6.5080 O.2     1  UNL1       -0.2670
      4  H         20.4820  -22.9480   -8.2910 H       1  UNL1        0.1690
      5  C         19.6250  -21.6440   -6.3030 C.2     1  UNL1        0.0330
      6  C         19.3240  -21.1100   -5.0480 C.2     1  UNL1        0.0170
      7  C         18.0520  -21.2940   -4.4950 C.2     1  UNL1        0.0090
      8  C         17.0510  -22.0070   -5.1810 C.2     1  UNL1       -0.0390
      9  C         15.7080  -22.1460   -4.5170 C.3     1  UNL1        0.0500
     10  C         17.3540  -22.5190   -6.4560 C.2     1  UNL1        0.0860
     11  C         18.6320  -22.3280   -7.0130 C.2     1  UNL1        0.0420
     12  S         16.1710  -23.3970   -7.4730 S.O2    1  UNL1        0.2630
     13  O         15.7250  -24.5960   -6.7990 O.2     1  UNL1       -0.2000
     14  O         15.2030  -22.4240   -7.9390 O.2     1  UNL1       -0.2000
     15  N         17.0900  -23.7970   -8.8210 N.pl3   1  UNL1       -0.2800
     16  H         17.7050  -24.5970   -8.6880 H       1  UNL1        0.1790
     17  C         17.4440  -22.8110   -9.7780 C.2     1  UNL1        0.0490
     18  C         16.5420  -21.7790  -10.0510 C.2     1  UNL1        0.0310
     19  C         16.8770  -20.7790  -10.9570 C.2     1  UNL1        0.0030
     20  C         18.1210  -20.8000  -11.5840 C.2     1  UNL1        0.0070
     21  C         19.0500  -21.8140  -11.3040 C.2     1  UNL1       -0.0540
     22  C         20.3810  -21.7930  -12.0090 C.3     1  UNL1        0.0490
     23  C         18.7230  -22.8220  -10.3660 C.2     1  UNL1       -0.0290
     24  C         19.7200  -23.9090  -10.0490 C.3     1  UNL1        0.0510
     25  C         22.4130  -22.4150   -8.7570 C.2     1  UNL1        0.0350
     26  C         23.1010  -23.6380   -8.7500 C.2     1  UNL1        0.0310
     27  C         24.2830  -23.7990   -9.4770 C.2     1  UNL1        0.0270
     28  C         24.7840  -22.7280  -10.2170 C.2     1  UNL1        0.0800
     29  C         24.1080  -21.5080  -10.2440 C.2     1  UNL1        0.0270
     30  C         22.9300  -21.3530   -9.5070 C.2     1  UNL1        0.0310
     31  S         26.2800  -22.9170  -11.1530 S.O2    1  UNL1        0.2630
     32  O         27.1210  -23.8520  -10.4350 O.2     1  UNL1       -0.2000
     33  O         26.7720  -21.6070  -11.5200 O.2     1  UNL1       -0.2000
     34  N         25.7550  -23.7270  -12.5410 N.pl3   1  UNL1       -0.2810
     35  H         26.2310  -24.6220  -12.6360 H       1  UNL1        0.1790
     36  C         25.5600  -22.9630  -13.7230 C.2     1  UNL1        0.0420
     37  C         26.5210  -23.0000  -14.7310 C.2     1  UNL1        0.0300
     38  C         26.3220  -22.2730  -15.9070 C.2     1  UNL1        0.0090
     39  C         25.1540  -21.5240  -16.0890 C.2     1  UNL1       -0.0620
     40  C         24.9570  -20.7210  -17.3410 C.3     1  UNL1        0.0480
     41  C         24.1970  -21.4910  -15.0660 C.2     1  UNL1        0.0090
     42  C         24.3950  -22.2150  -13.8880 C.2     1  UNL1        0.0300
@<TRIPOS>BOND
     1    40    39    1
     2    39    38    2
     3    39    41    1
     4    38    37    1
     5    41    42    2
     6    37    36    2
     7    42    36    1
     8    36    34    1
     9    35    34    1
    10    34    31    1
    11    22    21    1
    12    20    21    2
    13    20    19    1
    14    33    31    2
    15    21    23    1
    16    31    32    2
    17    31    28    1
    18    19    18    2
    19    23    24    1
    20    23    17    2
    21    29    28    2
    22    29    30    1
    23    28    27    1
    24    18    17    1
    25    17    15    1
    26    30    25    2
    27    27    26    2
    28    15    16    1
    29    15    12    1
    30    25    26    1
    31    25     1    1
    32     4     1    1
    33     1     2   am
    34    14    12    2
    35    12    13    2
    36    12    10    1
    37    11    10    1
    38    11     5    2
    39     2     3    2
    40     2     5    1
    41    10     8    2
    42     5     6    1
    43     8     9    1
    44     8     7    1
    45     6     7    2
