@<TRIPOS>MOLECULE
53559_out_ligand_01.pdbqt
 31 33 0 0 0
SMALL
GASTEIGER

@<TRIPOS>ATOM
      1  C         17.5560  -23.3340   -8.8920 C.2     1  UNL1        0.0860
      2  C         18.9470  -23.5270   -8.9900 C.2     1  UNL1        0.0420
      3  C         19.6910  -22.8870   -9.9870 C.2     1  UNL1        0.0330
      4  C         19.0330  -22.0890  -10.9250 C.2     1  UNL1        0.0170
      5  C         17.6480  -21.9120  -10.8430 C.2     1  UNL1        0.0090
      6  C         16.8860  -22.5250   -9.8280 C.2     1  UNL1       -0.0390
      7  C         15.4000  -22.2960   -9.8350 C.3     1  UNL1        0.0500
      8  S         16.7420  -24.2100   -7.5560 S.O2    1  UNL1        0.2630
      9  O         17.7860  -24.8450   -6.7750 O.2     1  UNL1       -0.2000
     10  O         15.6410  -24.9890   -8.0760 O.2     1  UNL1       -0.2000
     11  N         16.1440  -22.9620   -6.5940 N.pl3   1  UNL1       -0.2800
     12  H         15.1290  -22.9720   -6.5010 H       1  UNL1        0.1790
     13  C         16.9340  -22.4010   -5.5520 C.2     1  UNL1        0.0490
     14  C         16.6360  -22.6500   -4.2030 C.2     1  UNL1       -0.0350
     15  C         17.4850  -22.1160   -3.2180 C.2     1  UNL1        0.0090
     16  C         15.4850  -23.5100   -3.7590 C.3     1  UNL1        0.0500
     17  C         18.5750  -21.3130   -3.5670 C.2     1  UNL1        0.0070
     18  C         18.8380  -21.0230   -4.9070 C.2     1  UNL1       -0.0600
     19  C         20.0130  -20.1720   -5.2920 C.3     1  UNL1        0.0480
     20  C         18.0190  -21.5860   -5.8940 C.2     1  UNL1        0.0370
     21  C         21.1660  -23.1130  -10.0210 C.2     1  UNL1        0.2560
     22  O         21.6440  -23.9080   -9.2180 O.2     1  UNL1       -0.2670
     23  N         21.8680  -22.3450  -10.9350 N.am    1  UNL1       -0.3230
     24  H         21.3560  -21.6230  -11.4250 H       1  UNL1        0.1690
     25  C         23.2570  -22.3860  -11.1880 C.2     1  UNL1        0.0370
     26  C         24.0680  -21.4970  -10.4660 C.2     1  UNL1        0.0290
     27  C         25.4530  -21.4680  -10.6590 C.2     1  UNL1        0.0050
     28  C         26.0410  -22.3310  -11.5810 C.2     1  UNL1        0.0420
     29  C         25.2380  -23.2070  -12.2980 C.2     1  UNL1        0.1180
     30  F         25.8030  -24.0320  -13.1910 F       1  UNL1       -0.2060
     31  C         23.8570  -23.2430  -12.1140 C.2     1  UNL1        0.0710
@<TRIPOS>BOND
     1    30    29    1
     2    29    31    1
     3    29    28    2
     4    31    25    2
     5    28    27    1
     6    24    23    1
     7    25    23    1
     8    25    26    1
     9    23    21   am
    10     4     5    2
    11     4     3    1
    12     5     6    1
    13    27    26    2
    14    21     3    1
    15    21    22    2
    16     3     2    2
    17     7     6    1
    18     6     1    2
    19     2     1    1
    20     1     8    1
    21    10     8    2
    22     8     9    2
    23     8    11    1
    24    11    12    1
    25    11    13    1
    26    20    13    2
    27    20    18    1
    28    13    14    1
    29    19    18    1
    30    18    17    2
    31    14    16    1
    32    14    15    2
    33    17    15    1
