@<TRIPOS>MOLECULE
53554_out_ligand_01.pdbqt
 35 37 0 0 0
SMALL
GASTEIGER

@<TRIPOS>ATOM
      1  C         17.4150  -23.0850   -9.0160 C.2     1  UNL1        0.0810
      2  C         18.8090  -23.0310   -9.1860 C.2     1  UNL1        0.0420
      3  C         19.3640  -22.2620  -10.2120 C.2     1  UNL1        0.0330
      4  C         18.5300  -21.5530  -11.0800 C.2     1  UNL1        0.0170
      5  C         17.1440  -21.6060  -10.9110 C.2     1  UNL1        0.0090
      6  C         16.5630  -22.3730   -9.8840 C.2     1  UNL1       -0.0390
      7  C         15.0650  -22.3770   -9.7630 C.3     1  UNL1        0.0500
      8  C         20.8420  -22.2540  -10.3730 C.2     1  UNL1        0.2560
      9  O         21.5280  -22.3170   -9.3610 O.2     1  UNL1       -0.2670
     10  N         21.2880  -22.1410  -11.6770 N.am    1  UNL1       -0.3230
     11  H         20.5860  -21.9680  -12.3860 H       1  UNL1        0.1690
     12  C         22.6250  -22.1400  -12.1250 C.2     1  UNL1        0.0350
     13  C         22.8850  -21.5260  -13.3530 C.2     1  UNL1        0.0310
     14  C         24.1830  -21.4870  -13.8650 C.2     1  UNL1        0.0270
     15  C         25.2390  -22.0640  -13.1550 C.2     1  UNL1        0.0490
     16 CL         26.8140  -21.9700  -13.8560 Cl      1  UNL1       -0.0830
     17  C         25.0040  -22.6900  -11.9270 C.2     1  UNL1        0.0710
     18  C         23.6850  -22.7210  -11.4240 C.2     1  UNL1        0.0470
     19  C         26.1220  -23.3220  -11.1420 C.3     1  UNL1        0.4190
     20  F         26.7090  -24.3630  -11.7980 F       1  UNL1       -0.1660
     21  F         25.7210  -23.8370   -9.9430 F       1  UNL1       -0.1660
     22  F         27.1210  -22.4470  -10.8400 F       1  UNL1       -0.1660
     23  S         16.7990  -24.0640   -7.6470 S.O2    1  UNL1        0.2460
     24  O         17.9260  -24.6560   -6.9650 O.2     1  UNL1       -0.2060
     25  O         15.7180  -24.8820   -8.1590 O.2     1  UNL1       -0.2060
     26  N         16.0920  -22.8440   -6.6810 N.pl3   1  UNL1       -0.1810
     27  H         15.2230  -23.2210   -6.2990 H       1  UNL1        0.1460
     28  C         16.9450  -22.3830   -5.6160 C.2     1  UNL1        0.0290
     29  C         16.6800  -22.7360   -4.2850 C.2     1  UNL1       -0.0400
     30  C         17.5040  -22.2170   -3.2750 C.2     1  UNL1        0.0090
     31  C         15.5320  -23.6260   -3.9100 C.3     1  UNL1        0.0500
     32  C         18.5750  -21.3760   -3.5870 C.2     1  UNL1        0.0070
     33  C         18.8380  -21.0240   -4.9130 C.2     1  UNL1       -0.0600
     34  C         19.9860  -20.1150   -5.2360 C.3     1  UNL1        0.0480
     35  C         18.0170  -21.5350   -5.9250 C.2     1  UNL1        0.0310
@<TRIPOS>BOND
     1    14    13    1
     2    14    15    2
     3    16    15    1
     4    13    12    2
     5    15    17    1
     6    11    10    1
     7    12    10    1
     8    12    18    1
     9    17    18    2
    10    17    19    1
    11    20    19    1
    12    10     8   am
    13    19    22    1
    14    19    21    1
    15     4     5    2
    16     4     3    1
    17     5     6    1
    18     8     3    1
    19     8     9    2
    20     3     2    2
    21     6     7    1
    22     6     1    2
    23     2     1    1
    24     1    23    1
    25    25    23    2
    26    23    24    2
    27    23    26    1
    28    26    27    1
    29    26    28    1
    30    35    28    2
    31    35    33    1
    32    28    29    1
    33    34    33    1
    34    33    32    2
    35    29    31    1
    36    29    30    2
    37    32    30    1
