@<TRIPOS>MOLECULE
53566_out_ligand_01.pdbqt
 35 37 0 0 0
SMALL
GASTEIGER

@<TRIPOS>ATOM
      1  C         17.3280  -23.4060   -8.7990 C.2     1  UNL1        0.1020
      2  C         18.7200  -23.4940   -8.9700 C.2     1  UNL1        0.0440
      3  C         19.3520  -22.7800   -9.9950 C.2     1  UNL1        0.0340
      4  C         18.5920  -21.9660  -10.8420 C.2     1  UNL1        0.0190
      5  C         17.2070  -21.8870  -10.6720 C.2     1  UNL1        0.0260
      6  C         16.5660  -22.6060   -9.6530 C.2     1  UNL1        0.0570
      7 CL         14.8590  -22.4020   -9.5250 Cl      1  UNL1       -0.0830
      8  C         20.8310  -22.8740  -10.1210 C.2     1  UNL1        0.2560
      9  O         21.4150  -23.6930   -9.4240 O.2     1  UNL1       -0.2670
     10  N         21.3920  -22.0210  -11.0560 N.am    1  UNL1       -0.3230
     11  H         20.7520  -21.4940  -11.6380 H       1  UNL1        0.1690
     12  C         22.7610  -21.8730  -11.3570 C.2     1  UNL1        0.0350
     13  C         23.7450  -21.6040  -10.4070 C.2     1  UNL1        0.0310
     14  C         25.0820  -21.4660  -10.7930 C.2     1  UNL1        0.0270
     15  C         25.4520  -21.5900  -12.1340 C.2     1  UNL1        0.0490
     16 CL         27.1210  -21.4030  -12.5240 Cl      1  UNL1       -0.0830
     17  C         24.4850  -21.8560  -13.1070 C.2     1  UNL1        0.0710
     18  C         23.1390  -21.9930  -12.7010 C.2     1  UNL1        0.0470
     19  C         24.8480  -21.9940  -14.5600 C.3     1  UNL1        0.4190
     20  F         23.7570  -22.1680  -15.3630 F       1  UNL1       -0.1660
     21  F         25.6530  -23.0610  -14.8130 F       1  UNL1       -0.1660
     22  F         25.4850  -20.8990  -15.0580 F       1  UNL1       -0.1660
     23  S         16.5870  -24.3450   -7.4880 S.O2    1  UNL1        0.2650
     24  O         17.6310  -25.1130   -6.8440 O.2     1  UNL1       -0.2000
     25  O         15.4280  -25.0210   -8.0280 O.2     1  UNL1       -0.2000
     26  N         16.0260  -23.1770   -6.4140 N.pl3   1  UNL1       -0.2800
     27  H         15.2480  -22.6510   -6.8060 H       1  UNL1        0.1790
     28  C         16.8770  -22.5320   -5.4590 C.2     1  UNL1        0.0490
     29  C         16.6710  -22.7590   -4.0850 C.2     1  UNL1       -0.0350
     30  C         17.5100  -22.1250   -3.1530 C.2     1  UNL1        0.0090
     31  C         15.5770  -23.6520   -3.5670 C.3     1  UNL1        0.0500
     32  C         18.5550  -21.3010   -3.5730 C.2     1  UNL1        0.0070
     33  C         18.7880  -21.1030   -4.9330 C.2     1  UNL1       -0.0600
     34  C         19.9440  -20.2670   -5.3980 C.3     1  UNL1        0.0480
     35  C         17.9640  -21.7470   -5.8660 C.2     1  UNL1        0.0370
@<TRIPOS>BOND
     1    20    19    1
     2    22    19    1
     3    21    19    1
     4    19    17    1
     5    17    18    1
     6    17    15    2
     7    18    12    2
     8    16    15    1
     9    15    14    1
    10    11    10    1
    11    12    10    1
    12    12    13    1
    13    10     8   am
    14     4     5    2
    15     4     3    1
    16    14    13    2
    17     5     6    1
    18     8     3    1
    19     8     9    2
    20     3     2    2
    21     6     7    1
    22     6     1    2
    23     2     1    1
    24     1    23    1
    25    25    23    2
    26    23    24    2
    27    23    26    1
    28    27    26    1
    29    26    28    1
    30    35    28    2
    31    35    33    1
    32    28    29    1
    33    34    33    1
    34    33    32    2
    35    29    31    1
    36    29    30    2
    37    32    30    1
