@<TRIPOS>MOLECULE
53563_out_ligand_01.pdbqt
 43 46 0 0 0
SMALL
GASTEIGER

@<TRIPOS>ATOM
      1  C         21.8930  -22.5510  -10.5120 C.2     1  UNL1        0.2560
      2  O         20.9140  -22.3590  -11.2210 O.2     1  UNL1       -0.2670
      3  N         21.9230  -22.7440   -9.1440 N.am    1  UNL1       -0.3230
      4  H         22.8330  -22.7090   -8.7000 H       1  UNL1        0.1690
      5  C         20.8170  -22.8800   -8.2810 C.2     1  UNL1        0.0350
      6  C         20.5860  -21.8490   -7.3620 C.2     1  UNL1        0.0310
      7  C         19.5180  -21.9180   -6.4630 C.2     1  UNL1        0.0270
      8  C         18.6890  -23.0400   -6.4660 C.2     1  UNL1        0.0750
      9  C         18.9030  -24.0720   -7.3780 C.2     1  UNL1        0.0270
     10  C         19.9670  -23.9880   -8.2840 C.2     1  UNL1        0.0310
     11  S         17.3240  -23.1330   -5.3330 S.O2    1  UNL1        0.2450
     12  O         16.9170  -24.5190   -5.2400 O.2     1  UNL1       -0.2060
     13  O         17.6600  -22.3490   -4.1640 O.2     1  UNL1       -0.2060
     14  N         16.1110  -22.3400   -6.2460 N.pl3   1  UNL1       -0.1810
     15  H         16.2880  -21.3400   -6.1290 H       1  UNL1        0.1460
     16  C         16.1290  -22.6760   -7.6390 C.2     1  UNL1        0.0230
     17  C         15.5000  -23.8350   -8.0950 C.2     1  UNL1        0.0240
     18  C         15.4890  -24.1260   -9.4580 C.2     1  UNL1        0.0030
     19  C         16.0980  -23.2540  -10.3620 C.2     1  UNL1        0.0160
     20  C         16.7280  -22.0820   -9.9120 C.2     1  UNL1        0.0490
     21  C         16.7220  -21.7930   -8.5380 C.2     1  UNL1        0.0400
     22  C         17.3670  -21.1260  -10.8870 C.3     1  UNL1        0.4170
     23  F         18.6530  -20.8290  -10.5620 F       1  UNL1       -0.1660
     24  F         16.7160  -19.9310  -10.9670 F       1  UNL1       -0.1660
     25  F         17.4020  -21.6100  -12.1580 F       1  UNL1       -0.1660
     26  C         23.2300  -22.5480  -11.1530 C.2     1  UNL1        0.0330
     27  C         24.3610  -22.9500  -10.4390 C.2     1  UNL1        0.0170
     28  C         25.6060  -22.9740  -11.0690 C.2     1  UNL1        0.0090
     29  C         25.7430  -22.6030  -12.4190 C.2     1  UNL1       -0.0390
     30  C         27.1210  -22.6370  -13.0250 C.3     1  UNL1        0.0500
     31  C         24.5930  -22.1890  -13.1210 C.2     1  UNL1        0.0810
     32  C         23.3380  -22.1720  -12.4930 C.2     1  UNL1        0.0420
     33  S         24.6720  -21.6380  -14.8190 S.O2    1  UNL1        0.2460
     34  O         23.5160  -20.8020  -15.0680 O.2     1  UNL1       -0.2060
     35  O         24.9620  -22.7870  -15.6530 O.2     1  UNL1       -0.2060
     36  N         26.0980  -20.7100  -14.7850 N.pl3   1  UNL1       -0.1810
     37  H         26.8610  -21.3410  -15.0350 H       1  UNL1        0.1460
     38  C         26.1230  -19.5680  -15.6460 C.2     1  UNL1        0.0220
     39  C         26.4110  -18.3340  -15.0670 C.2     1  UNL1        0.0240
     40  C         26.5340  -17.1970  -15.8650 C.2     1  UNL1        0.0020
     41  C         26.3880  -17.3020  -17.2470 C.2     1  UNL1        0.0000
     42  C         26.1280  -18.5420  -17.8300 C.2     1  UNL1        0.0020
     43  C         26.0130  -19.6810  -17.0330 C.2     1  UNL1        0.0240
@<TRIPOS>BOND
     1    42    41    2
     2    42    43    1
     3    41    40    1
     4    43    38    2
     5    40    39    2
     6    35    33    2
     7    38    39    1
     8    38    36    1
     9    34    33    2
    10    37    36    1
    11    33    36    1
    12    33    31    1
    13    31    32    1
    14    31    29    2
    15    30    29    1
    16    32    26    2
    17    29    28    1
    18    25    22    1
    19     2     1    2
    20    26     1    1
    21    26    27    1
    22    28    27    2
    23    24    22    1
    24    22    23    1
    25    22    20    1
    26     1     3   am
    27    19    20    2
    28    19    18    1
    29    20    21    1
    30    18    17    2
    31     3     4    1
    32     3     5    1
    33    21    16    2
    34    10     5    2
    35    10     9    1
    36     5     6    1
    37    17    16    1
    38    16    14    1
    39     9     8    2
    40     6     7    2
    41     8     7    1
    42     8    11    1
    43    14    15    1
    44    14    11    1
    45    11    12    2
    46    11    13    2
