@<TRIPOS>MOLECULE
53560_out_ligand_01.pdbqt
 41 44 0 0 0
SMALL
GASTEIGER

@<TRIPOS>ATOM
      1  C         21.3940  -23.9810   -9.3350 C.2     1  UNL1        0.2560
      2  O         21.6050  -25.0290   -8.7360 O.2     1  UNL1       -0.2670
      3  N         22.3330  -23.1540   -9.9130 N.am    1  UNL1       -0.3220
      4  H         21.9990  -22.2820  -10.3260 H       1  UNL1        0.1690
      5  C         19.9840  -23.5050   -9.4370 C.2     1  UNL1        0.0330
      6  C         19.0550  -23.9910   -8.5140 C.2     1  UNL1        0.0420
      7  C         17.7030  -23.6110   -8.5860 C.2     1  UNL1        0.0860
      8  C         17.2730  -22.7020   -9.5700 C.2     1  UNL1       -0.0390
      9  C         18.2220  -22.2290  -10.4950 C.2     1  UNL1        0.0090
     10  C         15.8620  -22.2040   -9.6990 C.3     1  UNL1        0.0500
     11  C         19.5590  -22.6310  -10.4400 C.2     1  UNL1        0.0170
     12  S         16.6300  -24.3370   -7.3500 S.O2    1  UNL1        0.2630
     13  O         15.4590  -24.8260   -8.0510 O.2     1  UNL1       -0.2000
     14  O         17.3860  -25.2210   -6.4920 O.2     1  UNL1       -0.2000
     15  N         16.1100  -22.9990   -6.4600 N.pl3   1  UNL1       -0.2800
     16  H         15.4950  -22.3930   -6.9960 H       1  UNL1        0.1790
     17  C         16.9510  -22.4190   -5.4670 C.2     1  UNL1        0.0490
     18  C         16.7090  -22.6370   -4.1000 C.2     1  UNL1       -0.0350
     19  C         17.5380  -22.0000   -3.1610 C.2     1  UNL1        0.0090
     20  C         15.5740  -23.4820   -3.5900 C.3     1  UNL1        0.0500
     21  C         18.6020  -21.1930   -3.5690 C.2     1  UNL1        0.0070
     22  C         18.8570  -20.9970   -4.9280 C.2     1  UNL1       -0.0600
     23  C         20.0250  -20.1680   -5.3730 C.3     1  UNL1        0.0480
     24  C         18.0340  -21.6270   -5.8680 C.2     1  UNL1        0.0370
     25  C         23.7360  -23.3350  -10.0120 C.2     1  UNL1        0.0500
     26  C         24.4820  -23.9600   -9.0070 C.2     1  UNL1        0.0300
     27  C         25.8620  -24.1400   -9.1450 C.2     1  UNL1        0.0020
     28  C         26.5170  -23.7090  -10.2930 C.2     1  UNL1        0.0010
     29  C         25.7950  -23.0810  -11.3060 C.2     1  UNL1        0.0190
     30  C         24.4100  -22.8750  -11.1680 C.2     1  UNL1        0.0580
     31  C         23.6570  -22.1730  -12.2550 C.2     1  UNL1        0.2540
     32  O         22.6570  -21.5120  -11.9810 O.2     1  UNL1       -0.2680
     33  N         24.1810  -22.2610  -13.5280 N.am    1  UNL1       -0.3530
     34  H         25.1330  -22.5830  -13.6350 H       1  UNL1        0.1630
     35  C         23.6580  -21.4550  -14.6110 C.3     1  UNL1        0.1610
     36  C         24.7500  -20.6100  -15.2170 C.2     1  UNL1       -0.0410
     37  C         25.1230  -20.7760  -16.5580 C.2     1  UNL1        0.0090
     38  C         26.1580  -20.0130  -17.1020 C.2     1  UNL1        0.0010
     39  C         26.8320  -19.0850  -16.3120 C.2     1  UNL1        0.0000
     40  C         26.4730  -18.9150  -14.9760 C.2     1  UNL1        0.0010
     41  C         25.4380  -19.6740  -14.4300 C.2     1  UNL1        0.0090
@<TRIPOS>BOND
     1    38    37    1
     2    38    39    2
     3    37    36    2
     4    39    40    1
     5    36    35    1
     6    36    41    1
     7    40    41    2
     8    35    33    1
     9    34    33    1
    10    33    31   am
    11    31    32    2
    12    31    30    1
    13    29    30    1
    14    29    28    2
    15    30    25    2
    16     9    11    1
    17     9     8    2
    18    11     5    2
    19     4     3    1
    20    28    27    1
    21    25     3    1
    22    25    26    1
    23     3     1   am
    24    10     8    1
    25     8     7    1
    26     5     1    1
    27     5     6    1
    28     1     2    2
    29    27    26    2
    30     7     6    2
    31     7    12    1
    32    13    12    2
    33    12    14    2
    34    12    15    1
    35    16    15    1
    36    15    17    1
    37    24    17    2
    38    24    22    1
    39    17    18    1
    40    23    22    1
    41    22    21    2
    42    18    20    1
    43    18    19    2
    44    21    19    1
