@<TRIPOS>MOLECULE
53579_out_ligand_01.pdbqt
 31 33 0 0 0
SMALL
GASTEIGER

@<TRIPOS>ATOM
      1  C         17.2080  -23.0130   -9.0310 C.2     1  UNL1        0.0810
      2  C         18.6010  -23.1620   -9.1350 C.2     1  UNL1        0.0420
      3  C         19.2970  -22.5800  -10.2000 C.2     1  UNL1        0.0330
      4  C         18.5910  -21.8800  -11.1840 C.2     1  UNL1        0.0170
      5  C         17.2040  -21.7380  -11.0840 C.2     1  UNL1        0.0090
      6  C         16.4920  -22.2890  -10.0050 C.2     1  UNL1       -0.0390
      7  C         14.9980  -22.1140   -9.9750 C.3     1  UNL1        0.0500
      8  S         16.3920  -23.7930   -7.6420 S.O2    1  UNL1        0.2460
      9  O         15.6020  -22.7860   -6.9690 O.2     1  UNL1       -0.2060
     10  O         15.8120  -25.0360   -8.1030 O.2     1  UNL1       -0.2060
     11  N         17.7440  -24.2280   -6.6910 N.pl3   1  UNL1       -0.1810
     12  H         17.5670  -25.1720   -6.3430 H       1  UNL1        0.1460
     13  C         17.9880  -23.3330   -5.5940 C.2     1  UNL1        0.0230
     14  C         17.5650  -23.6700   -4.3090 C.2     1  UNL1        0.0240
     15  C         17.7610  -22.7730   -3.2590 C.2     1  UNL1        0.0020
     16  C         18.3700  -21.5400   -3.4970 C.2     1  UNL1        0.0070
     17  C         18.7890  -21.1910   -4.7870 C.2     1  UNL1       -0.0600
     18  C         19.3910  -19.8440   -5.0520 C.3     1  UNL1        0.0480
     19  C         18.5760  -22.0920   -5.8390 C.2     1  UNL1        0.0310
     20  C         20.7790  -22.7560  -10.2710 C.2     1  UNL1        0.2560
     21  O         21.2810  -23.7050   -9.6850 O.2     1  UNL1       -0.2670
     22  N         21.4530  -21.7500  -10.9330 N.am    1  UNL1       -0.3180
     23  H         20.9640  -20.8730  -11.0680 H       1  UNL1        0.1690
     24  C         22.8400  -21.7010  -11.2150 C.2     1  UNL1        0.1130
     25  C         23.8660  -21.6310  -10.2700 C.2     1  UNL1        0.1460
     26  F         23.6240  -21.6960   -8.9540 F       1  UNL1       -0.2040
     27  C         25.2070  -21.5810  -10.6650 C.2     1  UNL1        0.0450
     28  C         25.5470  -21.6150  -12.0170 C.2     1  UNL1        0.0060
     29  C         24.5410  -21.7150  -12.9720 C.2     1  UNL1        0.0450
     30  C         23.2090  -21.7640  -12.5650 C.2     1  UNL1        0.1460
     31  F         22.2520  -21.8650  -13.5020 F       1  UNL1       -0.2040
@<TRIPOS>BOND
     1    31    30    1
     2    29    30    1
     3    29    28    2
     4    30    24    2
     5    28    27    1
     6    24    22    1
     7    24    25    1
     8     4     5    2
     9     4     3    1
    10     5     6    1
    11    23    22    1
    12    22    20   am
    13    27    25    2
    14    20     3    1
    15    20    21    2
    16    25    26    1
    17     3     2    2
    18     6     7    1
    19     6     1    2
    20     2     1    1
    21     1     8    1
    22    10     8    2
    23     8     9    2
    24     8    11    1
    25    11    12    1
    26    11    13    1
    27    19    13    2
    28    19    17    1
    29    13    14    1
    30    18    17    1
    31    17    16    2
    32    14    15    2
    33    16    15    1
