@<TRIPOS>MOLECULE
53577_out_ligand_01.pdbqt
 33 36 0 0 0
SMALL
GASTEIGER

@<TRIPOS>ATOM
      1  C         17.6080  -23.4000   -8.7180 C.2     1  UNL1        0.0860
      2  C         18.9990  -23.6150   -8.6720 C.2     1  UNL1        0.0420
      3  C         19.8300  -23.0520   -9.6430 C.2     1  UNL1        0.0330
      4  C         19.2770  -22.2510  -10.6440 C.2     1  UNL1        0.0170
      5  C         17.8950  -22.0480  -10.6970 C.2     1  UNL1        0.0090
      6  C         17.0350  -22.6210   -9.7430 C.2     1  UNL1       -0.0390
      7  C         15.5580  -22.3790   -9.8900 C.3     1  UNL1        0.0500
      8  C         21.3000  -23.2780   -9.6400 C.2     1  UNL1        0.2510
      9  O         21.7590  -24.3150   -9.1760 O.2     1  UNL1       -0.2680
     10  N         22.0650  -22.2460  -10.1400 N.am    1  UNL1       -0.3530
     11  H         21.6280  -21.3480  -10.3120 H       1  UNL1        0.1630
     12  C         23.5040  -22.2530  -10.0030 C.3     1  UNL1        0.1610
     13  C         24.1680  -21.7340  -11.2540 C.2     1  UNL1       -0.0380
     14  C         25.4660  -21.1700  -11.1990 C.2     1  UNL1        0.0120
     15  C         26.1090  -20.7250  -12.3590 C.2     1  UNL1        0.0400
     16  C         25.4320  -20.8530  -13.5550 C.2     1  UNL1        0.1050
     17  C         24.1660  -21.3880  -13.6200 C.2     1  UNL1        0.1050
     18  O         25.9020  -20.4810  -14.7740 O.2     1  UNL1       -0.3230
     19  C         23.5130  -21.8460  -12.4940 C.2     1  UNL1        0.0480
     20  O         23.6710  -21.4100  -14.8900 O.2     1  UNL1       -0.3230
     21  C         24.7670  -20.8090  -15.6110 C.3     1  UNL1        0.3520
     22  S         16.6540  -24.1990   -7.4320 S.O2    1  UNL1        0.2630
     23  O         17.6040  -24.9070   -6.5950 O.2     1  UNL1       -0.2000
     24  O         15.5240  -24.9020   -7.9960 O.2     1  UNL1       -0.2000
     25  N         16.1180  -22.8940   -6.5000 N.pl3   1  UNL1       -0.2800
     26  H         15.6270  -22.2110   -7.0780 H       1  UNL1        0.1790
     27  C         16.9690  -22.3920   -5.4720 C.2     1  UNL1        0.0480
     28  C         18.0220  -21.5500   -5.8390 C.2     1  UNL1        0.0300
     29  C         18.8530  -20.9960   -4.8650 C.2     1  UNL1        0.0020
     30  C         18.6310  -21.2820   -3.5220 C.2     1  UNL1        0.0010
     31  C         17.5850  -22.1280   -3.1530 C.2     1  UNL1        0.0090
     32  C         16.7410  -22.6970   -4.1220 C.2     1  UNL1       -0.0350
     33  C         15.6200  -23.5990   -3.6830 C.3     1  UNL1        0.0500
@<TRIPOS>BOND
     1    21    20    1
     2    21    18    1
     3    20    17    1
     4    18    16    1
     5    17    16    2
     6    17    19    1
     7    16    15    1
     8    19    13    2
     9    15    14    2
    10    13    14    1
    11    13    12    1
    12     5     4    2
    13     5     6    1
    14     4     3    1
    15    11    10    1
    16    10    12    1
    17    10     8   am
    18     7     6    1
    19     6     1    2
    20     3     8    1
    21     3     2    2
    22     8     9    2
    23     1     2    1
    24     1    22    1
    25    24    22    2
    26    22    23    2
    27    22    25    1
    28    26    25    1
    29    25    27    1
    30    28    27    2
    31    28    29    1
    32    27    32    1
    33    29    30    2
    34    32    33    1
    35    32    31    2
    36    30    31    1
