@<TRIPOS>MOLECULE
53576_out_ligand_01.pdbqt
 31 33 0 0 0
SMALL
GASTEIGER

@<TRIPOS>ATOM
      1  C         18.5290  -22.4550   -9.9290 C.2     1  UNL1        0.1020
      2  C         19.8540  -22.9220   -9.8430 C.2     1  UNL1        0.0440
      3  C         20.8510  -22.3990  -10.6720 C.2     1  UNL1        0.0340
      4  C         20.5300  -21.4000  -11.5930 C.2     1  UNL1        0.0190
      5  C         19.2180  -20.9250  -11.6670 C.2     1  UNL1        0.0260
      6  C         18.2090  -21.4440  -10.8380 C.2     1  UNL1        0.0570
      7 CL         16.6410  -20.7730  -11.0760 Cl      1  UNL1       -0.0830
      8  S         17.3590  -23.2110   -8.8250 S.O2    1  UNL1        0.2650
      9  O         16.2290  -23.6190   -9.6360 O.2     1  UNL1       -0.2000
     10  O         18.0110  -24.1750   -7.9700 O.2     1  UNL1       -0.2000
     11  N         16.8020  -21.9180   -7.8980 N.pl3   1  UNL1       -0.2800
     12  H         17.0920  -21.0100   -8.2530 H       1  UNL1        0.1790
     13  C         16.5940  -22.0800   -6.4990 C.2     1  UNL1        0.0490
     14  C         15.3330  -22.4970   -6.0630 C.2     1  UNL1        0.0310
     15  C         15.0890  -22.7110   -4.7120 C.2     1  UNL1        0.0030
     16  C         16.1060  -22.5090   -3.7850 C.2     1  UNL1        0.0070
     17  C         17.3800  -22.0850   -4.1990 C.2     1  UNL1       -0.0540
     18  C         18.4450  -21.8780   -3.1540 C.3     1  UNL1        0.0490
     19  C         17.6360  -21.8650   -5.5740 C.2     1  UNL1       -0.0290
     20  C         19.0110  -21.4100   -5.9980 C.3     1  UNL1        0.0510
     21  C         22.2180  -22.9750  -10.5900 C.2     1  UNL1        0.2560
     22  O         22.4640  -23.7170   -9.6470 O.2     1  UNL1       -0.2670
     23  N         23.0790  -22.5800  -11.5950 N.am    1  UNL1       -0.3230
     24  H         22.7490  -21.8640  -12.2310 H       1  UNL1        0.1690
     25  C         24.4130  -22.9990  -11.7870 C.2     1  UNL1        0.0370
     26  C         25.3520  -22.6090  -10.8200 C.2     1  UNL1        0.0290
     27  C         26.6970  -22.9750  -10.9360 C.2     1  UNL1        0.0050
     28  C         27.1140  -23.7340  -12.0240 C.2     1  UNL1        0.0420
     29  C         26.1840  -24.1180  -12.9820 C.2     1  UNL1        0.1180
     30  F         26.5890  -24.8460  -14.0320 F       1  UNL1       -0.2060
     31  C         24.8430  -23.7590  -12.8770 C.2     1  UNL1        0.0710
@<TRIPOS>BOND
     1    30    29    1
     2    29    31    1
     3    29    28    2
     4    31    25    2
     5    24    23    1
     6    28    27    1
     7    25    23    1
     8    25    26    1
     9     5     4    2
    10     5     6    1
    11    23    21   am
    12     4     3    1
    13     7     6    1
    14    27    26    2
    15     6     1    2
    16     3    21    1
    17     3     2    2
    18    21    22    2
    19     1     2    1
    20     1     8    1
    21     9     8    2
    22     8    10    2
    23     8    11    1
    24    12    11    1
    25    11    13    1
    26    13    14    2
    27    13    19    1
    28    14    15    1
    29    20    19    1
    30    19    17    2
    31    15    16    2
    32    17    16    1
    33    17    18    1
