@<TRIPOS>MOLECULE
53583_out_ligand_01.pdbqt
 33 35 0 0 0
SMALL
GASTEIGER

@<TRIPOS>ATOM
      1  C         17.6560  -23.5820   -8.6380 C.2     1  UNL1        0.1020
      2  C         19.0470  -23.8130   -8.5810 C.2     1  UNL1        0.0440
      3  C         19.9100  -23.2870   -9.5500 C.2     1  UNL1        0.0330
      4  C         19.3790  -22.4980  -10.5700 C.2     1  UNL1        0.0190
      5  C         18.0020  -22.2360  -10.6060 C.2     1  UNL1        0.0260
      6  C         17.1280  -22.7750   -9.6480 C.2     1  UNL1        0.0570
      7 CL         15.4570  -22.3660   -9.8540 Cl      1  UNL1       -0.0830
      8  S         16.6940  -24.3840   -7.3750 S.O2    1  UNL1        0.2650
      9  O         15.5230  -24.9230   -8.0400 O.2     1  UNL1       -0.2000
     10  O         17.5130  -25.2230   -6.5350 O.2     1  UNL1       -0.2000
     11  N         16.1360  -23.0900   -6.4460 N.pl3   1  UNL1       -0.2800
     12  H         15.4260  -22.5410   -6.9200 H       1  UNL1        0.1790
     13  C         16.9630  -22.4550   -5.4710 C.2     1  UNL1        0.0490
     14  C         16.7220  -22.6840   -4.1030 C.2     1  UNL1       -0.0350
     15  C         17.5490  -22.0630   -3.1530 C.2     1  UNL1        0.0090
     16  C         15.6070  -23.5680   -3.6160 C.3     1  UNL1        0.0500
     17  C         18.6010  -21.2360   -3.5480 C.2     1  UNL1        0.0070
     18  C         18.8500  -21.0160   -4.9040 C.2     1  UNL1       -0.0600
     19  C         19.9980  -20.1580   -5.3530 C.3     1  UNL1        0.0480
     20  C         18.0360  -21.6450   -5.8570 C.2     1  UNL1        0.0370
     21  C         21.3560  -23.6510   -9.4640 C.2     1  UNL1        0.2510
     22  O         21.6850  -24.6780   -8.8700 O.2     1  UNL1       -0.2680
     23  N         22.2580  -22.7960  -10.0580 N.am    1  UNL1       -0.3530
     24  H         21.9720  -21.8880  -10.3860 H       1  UNL1        0.1630
     25  C         23.6820  -23.0420   -9.9820 C.3     1  UNL1        0.1630
     26  C         24.3560  -22.7910  -11.3070 C.2     1  UNL1       -0.0190
     27  C         23.5930  -22.2450  -12.3580 C.2     1  UNL1        0.0120
     28  C         24.1800  -21.9860  -13.6040 C.2     1  UNL1        0.0240
     29  C         25.5280  -22.2700  -13.8100 C.2     1  UNL1        0.0350
     30 CL         26.2540  -21.9180  -15.3320 Cl      1  UNL1       -0.0840
     31  C         26.2880  -22.8370  -12.7920 C.2     1  UNL1        0.0480
     32  C         25.7060  -23.1070  -11.5520 C.2     1  UNL1        0.0430
     33 CL         26.6980  -23.8350  -10.3390 Cl      1  UNL1       -0.0840
@<TRIPOS>BOND
     1    30    29    1
     2    29    28    2
     3    29    31    1
     4    28    27    1
     5    31    32    2
     6    27    26    2
     7    32    26    1
     8    32    33    1
     9    26    25    1
    10     5     4    2
    11     5     6    1
    12     4     3    1
    13    24    23    1
    14    23    25    1
    15    23    21   am
    16     7     6    1
    17     6     1    2
    18     3    21    1
    19     3     2    2
    20    21    22    2
    21     1     2    1
    22     1     8    1
    23     9     8    2
    24     8    10    2
    25     8    11    1
    26    12    11    1
    27    11    13    1
    28    20    13    2
    29    20    18    1
    30    13    14    1
    31    19    18    1
    32    18    17    2
    33    14    16    1
    34    14    15    2
    35    17    15    1
