@<TRIPOS>MOLECULE
53585_out_ligand_01.pdbqt
 32 35 0 0 0
SMALL
GASTEIGER

@<TRIPOS>ATOM
      1  C         17.5460  -23.2330   -8.9480 C.2     1  UNL1        0.0860
      2  C         18.9430  -23.3580   -9.0340 C.2     1  UNL1        0.0420
      3  C         19.6390  -22.7720  -10.0940 C.2     1  UNL1        0.0330
      4  C         18.9480  -22.0130  -11.0430 C.2     1  UNL1        0.0170
      5  C         17.5610  -21.8710  -10.9450 C.2     1  UNL1        0.0090
      6  C         16.8350  -22.4860   -9.9080 C.2     1  UNL1       -0.0390
      7  C         15.3470  -22.2720   -9.8660 C.3     1  UNL1        0.0500
      8  C         21.1170  -22.9490  -10.1660 C.2     1  UNL1        0.2560
      9  O         21.6230  -23.8460   -9.5050 O.2     1  UNL1       -0.2670
     10  N         21.7600  -22.0790  -11.0260 N.am    1  UNL1       -0.3230
     11  H         21.1750  -21.4820  -11.5970 H       1  UNL1        0.1690
     12  C         23.1470  -21.9890  -11.2740 C.2     1  UNL1        0.0370
     13  C         24.0750  -21.4730  -10.3490 C.2     1  UNL1        0.0320
     14  C         25.4410  -21.4050  -10.6570 C.2     1  UNL1        0.0420
     15  C         25.8460  -21.8550  -11.8920 C.2     1  UNL1        0.1050
     16  C         24.9470  -22.3560  -12.8010 C.2     1  UNL1        0.1070
     17  O         27.1210  -21.8640  -12.3610 O.2     1  UNL1       -0.3230
     18  C         23.5970  -22.4350  -12.5260 C.2     1  UNL1        0.0690
     19  O         25.5440  -22.7450  -13.9600 O.2     1  UNL1       -0.3230
     20  C         26.9240  -22.4300  -13.6730 C.3     1  UNL1        0.3520
     21  S         16.7430  -24.0400   -7.5650 S.O2    1  UNL1        0.2630
     22  O         15.5990  -24.7700   -8.0690 O.2     1  UNL1       -0.2000
     23  O         17.7530  -24.7210   -6.7810 O.2     1  UNL1       -0.2000
     24  N         16.2100  -22.7430   -6.6270 N.pl3   1  UNL1       -0.2800
     25  H         15.1970  -22.6840   -6.5760 H       1  UNL1        0.1790
     26  C         16.9870  -22.2760   -5.5250 C.2     1  UNL1        0.0480
     27  C         18.0770  -21.4300   -5.7510 C.2     1  UNL1        0.0300
     28  C         18.8710  -20.9950   -4.6900 C.2     1  UNL1        0.0020
     29  C         18.5720  -21.3950   -3.3920 C.2     1  UNL1        0.0010
     30  C         17.4740  -22.2210   -3.1550 C.2     1  UNL1        0.0090
     31  C         16.6620  -22.6640   -4.2120 C.2     1  UNL1       -0.0350
     32  C         15.4920  -23.5540   -3.9030 C.3     1  UNL1        0.0500
@<TRIPOS>BOND
     1    19    20    1
     2    19    16    1
     3    20    17    1
     4    16    18    1
     5    16    15    2
     6    18    12    2
     7    17    15    1
     8    15    14    1
     9    11    10    1
    10    12    10    1
    11    12    13    1
    12     4     5    2
    13     4     3    1
    14    10     8   am
    15     5     6    1
    16    14    13    2
    17     8     3    1
    18     8     9    2
    19     3     2    2
    20     6     7    1
    21     6     1    2
    22     2     1    1
    23     1    21    1
    24    22    21    2
    25    21    23    2
    26    21    24    1
    27    24    25    1
    28    24    26    1
    29    27    26    2
    30    27    28    1
    31    26    31    1
    32    28    29    2
    33    31    32    1
    34    31    30    2
    35    29    30    1
