@<TRIPOS>MOLECULE
53581_out_ligand_01.pdbqt
 43 46 0 0 0
SMALL
GASTEIGER

@<TRIPOS>ATOM
      1  N         21.1320  -22.4120   -7.8890 N.am    1  UNL1       -0.3230
      2  C         20.8230  -21.5210   -6.8770 C.2     1  UNL1        0.2560
      3  O         21.5210  -20.6070   -6.4550 O.2     1  UNL1       -0.2670
      4  H         20.3960  -23.0370   -8.1900 H       1  UNL1        0.1690
      5  C         19.4740  -21.7010   -6.2740 C.2     1  UNL1        0.0330
      6  C         19.1740  -21.2380   -4.9920 C.2     1  UNL1        0.0170
      7  C         17.8890  -21.4170   -4.4700 C.2     1  UNL1        0.0090
      8  C         16.8750  -22.0440   -5.2180 C.2     1  UNL1       -0.0390
      9  C         15.5230  -22.1940   -4.5800 C.3     1  UNL1        0.0500
     10  C         17.1840  -22.4890   -6.5180 C.2     1  UNL1        0.0860
     11  C         18.4790  -22.3170   -7.0380 C.2     1  UNL1        0.0420
     12  S         16.0110  -23.3150   -7.5870 S.O2    1  UNL1        0.2630
     13  O         15.6650  -24.5670   -6.9440 O.2     1  UNL1       -0.2000
     14  O         14.9680  -22.3950   -7.9830 O.2     1  UNL1       -0.2000
     15  N         16.9580  -23.7230   -8.9050 N.pl3   1  UNL1       -0.2800
     16  H         16.9010  -24.6920   -9.2120 H       1  UNL1        0.1790
     17  C         17.4420  -22.7350   -9.8000 C.2     1  UNL1        0.0490
     18  C         16.5890  -21.6960  -10.1790 C.2     1  UNL1        0.0310
     19  C         17.0190  -20.7310  -11.0820 C.2     1  UNL1        0.0030
     20  C         18.3010  -20.8110  -11.6220 C.2     1  UNL1        0.0070
     21  C         19.1650  -21.8610  -11.2710 C.2     1  UNL1       -0.0540
     22  C         20.5380  -21.9040  -11.8910 C.3     1  UNL1        0.0490
     23  C         18.7240  -22.8590  -10.3710 C.2     1  UNL1       -0.0290
     24  C         19.6410  -23.9930   -9.9860 C.3     1  UNL1        0.0510
     25  C         22.3380  -22.4930   -8.6160 C.2     1  UNL1        0.0350
     26  C         22.9250  -21.4120   -9.2790 C.2     1  UNL1        0.0310
     27  C         24.1240  -21.5730   -9.9820 C.2     1  UNL1        0.0270
     28  C         24.7320  -22.8280  -10.0360 C.2     1  UNL1        0.0800
     29  C         24.1740  -23.9120   -9.3560 C.2     1  UNL1        0.0270
     30  C         22.9770  -23.7400   -8.6550 C.2     1  UNL1        0.0310
     31  S         26.2590  -23.0370  -10.9240 S.O2    1  UNL1        0.2630
     32  O         26.6980  -21.7340  -11.3760 O.2     1  UNL1       -0.2000
     33  O         27.1210  -23.8700  -10.1090 O.2     1  UNL1       -0.2000
     34  N         25.8200  -23.9880  -12.2460 N.pl3   1  UNL1       -0.2800
     35  H         25.3910  -24.8670  -11.9670 H       1  UNL1        0.1790
     36  C         25.3730  -23.3720  -13.4510 C.2     1  UNL1        0.0490
     37  C         25.8570  -23.8070  -14.6960 C.2     1  UNL1       -0.0350
     38  C         25.3690  -23.1940  -15.8590 C.2     1  UNL1        0.0090
     39  C         26.8860  -24.8940  -14.8200 C.3     1  UNL1        0.0500
     40  C         24.4200  -22.1720  -15.7870 C.2     1  UNL1        0.0070
     41  C         23.9370  -21.7410  -14.5490 C.2     1  UNL1       -0.0600
     42  C         22.9450  -20.6210  -14.4570 C.3     1  UNL1        0.0480
     43  C         24.4300  -22.3400  -13.3840 C.2     1  UNL1        0.0370
@<TRIPOS>BOND
     1    38    40    2
     2    38    37    1
     3    40    41    1
     4    39    37    1
     5    37    36    2
     6    41    42    1
     7    41    43    2
     8    36    43    1
     9    36    34    1
    10    34    35    1
    11    34    31    1
    12    22    21    1
    13    20    21    2
    14    20    19    1
    15    32    31    2
    16    21    23    1
    17    19    18    2
    18    31    33    2
    19    31    28    1
    20    23    24    1
    21    23    17    2
    22    18    17    1
    23    28    27    2
    24    28    29    1
    25    27    26    1
    26    17    15    1
    27    29    30    2
    28    26    25    2
    29    16    15    1
    30    15    12    1
    31    30    25    1
    32    25     1    1
    33     4     1    1
    34    14    12    2
    35     1     2   am
    36    12    13    2
    37    12    10    1
    38    11    10    1
    39    11     5    2
    40     2     3    2
    41     2     5    1
    42    10     8    2
    43     5     6    1
    44     8     9    1
    45     8     7    1
    46     6     7    2
