@<TRIPOS>MOLECULE
53580_out_ligand_01.pdbqt
 32 34 0 0 0
SMALL
GASTEIGER

@<TRIPOS>ATOM
      1  C         17.3750  -23.2970   -8.8830 C.2     1  UNL1        0.0860
      2  C         18.7720  -23.3960   -9.0040 C.2     1  UNL1        0.0420
      3  C         19.4480  -22.7170  -10.0190 C.2     1  UNL1        0.0330
      4  C         18.7300  -21.9340  -10.9230 C.2     1  UNL1        0.0170
      5  C         17.3440  -21.8090  -10.7870 C.2     1  UNL1        0.0090
      6  C         16.6440  -22.4770   -9.7620 C.2     1  UNL1       -0.0390
      7  C         15.1580  -22.2690   -9.6800 C.3     1  UNL1        0.0500
      8  S         16.6450  -24.2580   -7.5600 S.O2    1  UNL1        0.2630
      9  O         15.4840  -24.9190   -8.1220 O.2     1  UNL1       -0.2000
     10  O         17.6630  -25.0260   -6.8810 O.2     1  UNL1       -0.2000
     11  N         16.0460  -23.0810   -6.5100 N.pl3   1  UNL1       -0.2800
     12  H         15.3290  -22.5030   -6.9420 H       1  UNL1        0.1790
     13  C         16.8810  -22.4970   -5.5100 C.2     1  UNL1        0.0490
     14  C         16.6290  -22.7450   -4.1490 C.2     1  UNL1       -0.0350
     15  C         17.4640  -22.1530   -3.1880 C.2     1  UNL1        0.0090
     16  C         15.5120  -23.6360   -3.6840 C.3     1  UNL1        0.0500
     17  C         18.5280  -21.3340   -3.5700 C.2     1  UNL1        0.0070
     18  C         18.7850  -21.0950   -4.9210 C.2     1  UNL1       -0.0600
     19  C         19.9550  -20.2550   -5.3410 C.3     1  UNL1        0.0480
     20  C         17.9690  -21.7010   -5.8830 C.2     1  UNL1        0.0370
     21  C         20.9210  -22.8990  -10.1340 C.2     1  UNL1        0.2560
     22  O         21.4290  -23.8430   -9.5420 O.2     1  UNL1       -0.2670
     23  N         21.5680  -21.9380  -10.8890 N.am    1  UNL1       -0.3230
     24  H         21.0150  -21.1510  -11.2010 H       1  UNL1        0.1690
     25  C         22.9440  -21.8790  -11.1990 C.2     1  UNL1        0.0360
     26  C         23.9290  -21.4800  -10.2960 C.2     1  UNL1        0.0300
     27  C         25.2770  -21.4520  -10.6770 C.2     1  UNL1        0.0110
     28  C         25.6670  -21.8250  -11.9700 C.2     1  UNL1       -0.0400
     29  C         27.1210  -21.7840  -12.3470 C.3     1  UNL1        0.0500
     30  C         24.6740  -22.2280  -12.8720 C.2     1  UNL1        0.0420
     31 CL         25.0630  -22.7080  -14.4870 Cl      1  UNL1       -0.0840
     32  C         23.3280  -22.2570  -12.4890 C.2     1  UNL1        0.0530
@<TRIPOS>BOND
     1    31    30    1
     2    30    32    1
     3    30    28    2
     4    32    25    2
     5    29    28    1
     6    28    27    1
     7    24    23    1
     8    25    23    1
     9    25    26    1
    10     4     5    2
    11     4     3    1
    12    23    21   am
    13     5     6    1
    14    27    26    2
    15    21     3    1
    16    21    22    2
    17     3     2    2
    18     6     7    1
    19     6     1    2
    20     2     1    1
    21     1     8    1
    22     9     8    2
    23     8    10    2
    24     8    11    1
    25    12    11    1
    26    11    13    1
    27    20    13    2
    28    20    18    1
    29    13    14    1
    30    19    18    1
    31    18    17    2
    32    14    16    1
    33    14    15    2
    34    17    15    1
