@<TRIPOS>MOLECULE
53592_out_ligand_01.pdbqt
 38 41 0 0 0
SMALL
GASTEIGER

@<TRIPOS>ATOM
      1  C         24.4170  -22.5480  -13.9770 C.2     1  UNL1        0.0860
      2  C         23.7410  -22.7260  -12.7580 C.2     1  UNL1        0.0420
      3  C         22.6890  -21.8750  -12.4040 C.2     1  UNL1        0.0330
      4  C         22.3420  -20.8170  -13.2490 C.2     1  UNL1        0.0170
      5  C         23.0220  -20.6330  -14.4560 C.2     1  UNL1        0.0090
      6  C         24.0590  -21.4980  -14.8470 C.2     1  UNL1       -0.0390
      7  C         24.7540  -21.2190  -16.1510 C.3     1  UNL1        0.0500
      8  C         21.9960  -22.0970  -11.1020 C.2     1  UNL1        0.2560
      9  O         22.4520  -21.5550  -10.1040 O.2     1  UNL1       -0.2670
     10  N         20.9020  -22.9420  -11.1600 N.am    1  UNL1       -0.3230
     11  H         20.7440  -23.4310  -12.0320 H       1  UNL1        0.1690
     12  C         20.0140  -23.2640  -10.1110 C.2     1  UNL1        0.0350
     13  C         20.3790  -24.0030   -8.9810 C.2     1  UNL1        0.0310
     14  C         19.4460  -24.2630   -7.9710 C.2     1  UNL1        0.0270
     15  C         18.1420  -23.7840   -8.0950 C.2     1  UNL1        0.0740
     16  C         17.7610  -23.0420   -9.2140 C.2     1  UNL1        0.0270
     17  C         18.7000  -22.7840  -10.2170 C.2     1  UNL1        0.0310
     18  S         16.9680  -24.1230   -6.8070 S.O2    1  UNL1        0.2430
     19  O         17.4810  -25.2070   -5.9940 O.2     1  UNL1       -0.2060
     20  O         15.6650  -24.2020   -7.4290 O.2     1  UNL1       -0.2060
     21  N         17.0310  -22.7060   -5.8540 N.3     1  UNL1       -0.2060
     22  C         17.7960  -21.5610   -6.4280 C.3     1  UNL1        0.1070
     23  C         19.0900  -21.3130   -5.6650 C.3     1  UNL1        0.0150
     24  C         18.8250  -20.9880   -4.1960 C.3     1  UNL1        0.0020
     25  C         17.5680  -21.6770   -3.6680 C.3     1  UNL1        0.0150
     26  C         17.2940  -22.9770   -4.4130 C.3     1  UNL1        0.1070
     27  S         25.7610  -23.6780  -14.3360 S.O2    1  UNL1        0.2630
     28  O         25.6360  -24.8280  -13.4650 O.2     1  UNL1       -0.2000
     29  O         25.8310  -23.8570  -15.7710 O.2     1  UNL1       -0.2000
     30  N         27.1210  -22.8300  -13.8120 N.pl3   1  UNL1       -0.2800
     31  H         27.9200  -23.4310  -13.6330 H       1  UNL1        0.1790
     32  C         26.9840  -21.6180  -13.0740 C.2     1  UNL1        0.0480
     33  C         27.0410  -20.3890  -13.7410 C.2     1  UNL1        0.0300
     34  C         26.8860  -19.1930  -13.0400 C.2     1  UNL1        0.0020
     35  C         26.6800  -19.2170  -11.6650 C.2     1  UNL1        0.0010
     36  C         26.6420  -20.4370  -10.9880 C.2     1  UNL1        0.0090
     37  C         26.8050  -21.6500  -11.6790 C.2     1  UNL1       -0.0350
     38  C         26.7520  -22.9350  -10.9030 C.3     1  UNL1        0.0500
@<TRIPOS>BOND
     1     7     6    1
     2    29    27    2
     3     6     5    1
     4     6     1    2
     5     5     4    2
     6    27     1    1
     7    27    30    1
     8    27    28    2
     9     1     2    1
    10    30    31    1
    11    30    32    1
    12    33    32    2
    13    33    34    1
    14     4     3    1
    15    32    37    1
    16    34    35    2
    17     2     3    2
    18     3     8    1
    19    11    10    1
    20    37    36    2
    21    37    38    1
    22    35    36    1
    23    10     8   am
    24    10    12    1
    25     8     9    2
    26    17    12    2
    27    17    16    1
    28    12    13    1
    29    16    15    2
    30    13    14    2
    31    15    14    1
    32    15    18    1
    33    20    18    2
    34    18    19    2
    35    18    21    1
    36    22    21    1
    37    22    23    1
    38    21    26    1
    39    23    24    1
    40    26    25    1
    41    24    25    1
