@<TRIPOS>MOLECULE
53596_out_ligand_01.pdbqt
 31 33 0 0 0
SMALL
GASTEIGER

@<TRIPOS>ATOM
      1  C         18.6760  -22.2500  -10.2160 C.2     1  UNL1        0.0810
      2  C         19.9850  -22.7530  -10.1990 C.2     1  UNL1        0.0420
      3  C         20.9440  -22.2440  -11.0800 C.2     1  UNL1        0.0330
      4  C         20.5930  -21.2400  -11.9880 C.2     1  UNL1        0.0170
      5  C         19.2890  -20.7360  -11.9990 C.2     1  UNL1        0.0090
      6  C         18.3090  -21.2330  -11.1210 C.2     1  UNL1       -0.0390
      7  C         16.9300  -20.6370  -11.1820 C.3     1  UNL1        0.0500
      8  S         17.5120  -22.9370   -9.0410 S.O2    1  UNL1        0.2460
      9  O         16.8070  -24.0160   -9.6950 O.2     1  UNL1       -0.2060
     10  O         16.8060  -21.8350   -8.4220 O.2     1  UNL1       -0.2060
     11  N         18.5870  -23.5470   -7.8630 N.pl3   1  UNL1       -0.1810
     12  H         19.5110  -23.6010   -8.2960 H       1  UNL1        0.1460
     13  C         18.6350  -22.7600   -6.6630 C.2     1  UNL1        0.0230
     14  C         19.4600  -21.6370   -6.5980 C.2     1  UNL1        0.0240
     15  C         19.4770  -20.8590   -5.4410 C.2     1  UNL1        0.0020
     16  C         18.6580  -21.1940   -4.3590 C.2     1  UNL1        0.0070
     17  C         17.8020  -22.2990   -4.4340 C.2     1  UNL1       -0.0600
     18  C         16.9320  -22.6700   -3.2700 C.3     1  UNL1        0.0480
     19  C         17.8020  -23.0850   -5.5930 C.2     1  UNL1        0.0310
     20  C         22.3150  -22.8210  -11.0530 C.2     1  UNL1        0.2560
     21  O         22.6080  -23.5530  -10.1180 O.2     1  UNL1       -0.2670
     22  N         23.1280  -22.4260  -12.1000 N.am    1  UNL1       -0.3220
     23  H         22.7570  -21.7060  -12.7040 H       1  UNL1        0.1690
     24  C         24.4560  -22.8400  -12.3700 C.2     1  UNL1        0.0420
     25  C         24.7540  -23.8260  -13.3180 C.2     1  UNL1        0.0540
     26  C         26.0770  -24.1990  -13.5610 C.2     1  UNL1        0.0360
     27 CL         26.4240  -25.4140  -14.7330 Cl      1  UNL1       -0.0840
     28  C         27.1210  -23.5990  -12.8690 C.2     1  UNL1        0.0240
     29  C         26.8410  -22.6140  -11.9250 C.2     1  UNL1        0.0110
     30  C         25.5150  -22.2220  -11.6650 C.2     1  UNL1       -0.0350
     31  C         25.2830  -21.1510  -10.6320 C.3     1  UNL1        0.0500
@<TRIPOS>BOND
     1    27    26    1
     2    26    25    1
     3    26    28    2
     4    25    24    2
     5    28    29    1
     6    23    22    1
     7    24    22    1
     8    24    30    1
     9    22    20   am
    10     5     4    2
    11     5     6    1
    12     4     3    1
    13    29    30    2
    14    30    31    1
    15     7     6    1
    16     6     1    2
    17     3    20    1
    18     3     2    2
    19    20    21    2
    20     1     2    1
    21     1     8    1
    22     9     8    2
    23     8    10    2
    24     8    11    1
    25    12    11    1
    26    11    13    1
    27    13    14    2
    28    13    19    1
    29    14    15    1
    30    19    17    2
    31    15    16    2
    32    17    16    1
    33    17    18    1
