@<TRIPOS>MOLECULE
53595_out_ligand_01.pdbqt
 34 36 0 0 0
SMALL
GASTEIGER

@<TRIPOS>ATOM
      1  C         18.2710  -22.5810   -9.8820 C.2     1  UNL1        0.0860
      2  C         19.5850  -22.5210  -10.3800 C.2     1  UNL1        0.0420
      3  C         19.8850  -21.7420  -11.5000 C.2     1  UNL1        0.0330
      4  C         18.8690  -21.0190  -12.1290 C.2     1  UNL1        0.0170
      5  C         17.5580  -21.0970  -11.6490 C.2     1  UNL1        0.0090
      6  C         17.2340  -21.8790  -10.5240 C.2     1  UNL1       -0.0390
      7  C         15.7990  -21.9040  -10.0770 C.3     1  UNL1        0.0500
      8  C         21.3030  -21.6660  -11.9480 C.2     1  UNL1        0.2560
      9  O         21.5860  -20.8270  -12.7950 O.2     1  UNL1       -0.2670
     10  N         22.1600  -22.5550  -11.3240 N.am    1  UNL1       -0.3220
     11  H         21.7590  -23.0870  -10.5570 H       1  UNL1        0.1690
     12  C         23.5470  -22.7400  -11.5560 C.2     1  UNL1        0.0500
     13  C         24.1280  -22.4920  -12.8070 C.2     1  UNL1        0.0300
     14  C         25.4970  -22.6750  -13.0230 C.2     1  UNL1        0.0020
     15  C         26.3140  -23.1160  -11.9930 C.2     1  UNL1        0.0010
     16  C         25.7570  -23.3780  -10.7450 C.2     1  UNL1        0.0180
     17  C         24.3760  -23.1950  -10.5080 C.2     1  UNL1        0.0740
     18  C         23.8700  -23.5420   -9.1310 C.3     1  UNL1        0.4190
     19  F         22.7500  -24.3270   -9.1320 F       1  UNL1       -0.1660
     20  F         23.5470  -22.4460   -8.3900 F       1  UNL1       -0.1660
     21  F         24.7890  -24.2290   -8.3990 F       1  UNL1       -0.1660
     22  S         18.0460  -23.5800   -8.4120 S.O2    1  UNL1        0.2630
     23  O         19.3320  -24.1800   -8.1200 O.2     1  UNL1       -0.2000
     24  O         16.8620  -24.4000   -8.5400 O.2     1  UNL1       -0.2000
     25  N         17.7810  -22.4250   -7.2050 N.pl3   1  UNL1       -0.2810
     26  H         18.0240  -21.4860   -7.5140 H       1  UNL1        0.1790
     27  C         16.6550  -22.5680   -6.3460 C.2     1  UNL1        0.0430
     28  C         15.4920  -21.8310   -6.5590 C.2     1  UNL1        0.0370
     29  C         14.4100  -21.9450   -5.6790 C.2     1  UNL1       -0.0590
     30  C         14.5190  -22.7940   -4.5690 C.2     1  UNL1        0.0130
     31  C         13.1770  -21.1160   -5.8840 C.3     1  UNL1        0.0480
     32  C         15.6760  -23.5550   -4.3580 C.2     1  UNL1       -0.0590
     33  C         15.7970  -24.4400   -3.1530 C.3     1  UNL1        0.0480
     34  C         16.7470  -23.4300   -5.2510 C.2     1  UNL1        0.0370
@<TRIPOS>BOND
     1    14    13    1
     2    14    15    2
     3    13    12    2
     4     9     8    2
     5     4     5    2
     6     4     3    1
     7    15    16    1
     8     8     3    1
     9     8    10   am
    10     5     6    1
    11    12    10    1
    12    12    17    1
    13     3     2    2
    14    10    11    1
    15    16    17    2
    16     6     7    1
    17     6     1    2
    18    17    18    1
    19     2     1    1
    20     1    22    1
    21    19    18    1
    22    18    21    1
    23    18    20    1
    24    24    22    2
    25    22    23    2
    26    22    25    1
    27    26    25    1
    28    25    27    1
    29    28    27    2
    30    28    29    1
    31    27    34    1
    32    31    29    1
    33    29    30    2
    34    34    32    2
    35    30    32    1
    36    32    33    1
