@<TRIPOS>MOLECULE
53590_out_ligand_01.pdbqt
 32 34 0 0 0
SMALL
GASTEIGER

@<TRIPOS>ATOM
      1  C         19.7140  -22.8140  -10.0360 C.2     1  UNL1        0.0330
      2  C         19.0820  -21.9810  -10.9600 C.2     1  UNL1        0.0170
      3  C         17.6990  -21.7940  -10.8950 C.2     1  UNL1        0.0090
      4  C         16.9200  -22.4150   -9.9000 C.2     1  UNL1       -0.0390
      5  C         15.4370  -22.1700   -9.9170 C.3     1  UNL1        0.0500
      6  C         17.5730  -23.2260   -8.9540 C.2     1  UNL1        0.0860
      7  C         18.9610  -23.4350   -9.0370 C.2     1  UNL1        0.0420
      8  C         21.1870  -23.0250  -10.0470 C.2     1  UNL1        0.2560
      9  N         21.8560  -22.4120  -11.0890 N.am    1  UNL1       -0.3230
     10  H         21.2890  -21.9750  -11.8050 H       1  UNL1        0.1690
     11  O         21.6720  -23.7300   -9.1690 O.2     1  UNL1       -0.2670
     12  C         23.2480  -22.4040  -11.3260 C.2     1  UNL1        0.0350
     13  C         24.0110  -21.4730  -10.6100 C.2     1  UNL1        0.0290
     14  C         25.3930  -21.4030  -10.7810 C.2     1  UNL1        0.0030
     15  C         26.0280  -22.2680  -11.6690 C.2     1  UNL1        0.0150
     16  C         25.2810  -23.2070  -12.3930 C.2     1  UNL1        0.0110
     17  C         23.8920  -23.2720  -12.2140 C.2     1  UNL1        0.0440
     18  C         26.0050  -24.1140  -13.3330 C.2     1  UNL1        0.1550
     19  C         25.5400  -24.2130  -14.7630 C.3     1  UNL1        0.0960
     20  O         26.9660  -24.7690  -12.9310 O.2     1  UNL1       -0.2930
     21  S         16.7460  -24.0670   -7.6050 S.O2    1  UNL1        0.2630
     22  O         15.6020  -24.7960   -8.1000 O.2     1  UNL1       -0.2000
     23  O         17.7790  -24.7490   -6.8510 O.2     1  UNL1       -0.2000
     24  N         16.2170  -22.8000   -6.6260 N.pl3   1  UNL1       -0.2800
     25  H         15.2020  -22.7670   -6.5470 H       1  UNL1        0.1790
     26  C         17.0020  -22.3330   -5.5310 C.2     1  UNL1        0.0480
     27  C         18.0970  -21.4930   -5.7600 C.2     1  UNL1        0.0300
     28  C         18.8750  -21.0340   -4.6970 C.2     1  UNL1        0.0020
     29  C         18.5530  -21.3990   -3.3950 C.2     1  UNL1        0.0010
     30  C         17.4450  -22.2120   -3.1530 C.2     1  UNL1        0.0090
     31  C         16.6540  -22.6850   -4.2140 C.2     1  UNL1       -0.0350
     32  C         15.4570  -23.5390   -3.8970 C.3     1  UNL1        0.0500
@<TRIPOS>BOND
     1    19    18    1
     2    18    20    2
     3    18    16    1
     4    16    17    1
     5    16    15    2
     6    17    12    2
     7    10     9    1
     8    15    14    1
     9    12     9    1
    10    12    13    1
    11     9     8   am
    12     2     3    1
    13     2     1    2
    14     3     4    2
    15    14    13    2
    16     8     1    1
    17     8    11    2
    18     1     7    1
    19     5     4    1
    20     4     6    1
    21     7     6    2
    22     6    21    1
    23    22    21    2
    24    21    23    2
    25    21    24    1
    26    24    25    1
    27    24    26    1
    28    27    26    2
    29    27    28    1
    30    26    31    1
    31    28    29    2
    32    31    32    1
    33    31    30    2
    34    29    30    1
