@<TRIPOS>MOLECULE
53593_out_ligand_01.pdbqt
 40 44 0 0 0
SMALL
GASTEIGER

@<TRIPOS>ATOM
      1  O         22.0150  -24.4170   -9.0420 O.2     1  UNL1       -0.2670
      2  C         21.4610  -23.3230   -9.0710 C.2     1  UNL1        0.2560
      3  N         21.6780  -22.3010   -9.9760 N.am    1  UNL1       -0.3230
      4  H         21.2730  -21.4010   -9.7530 H       1  UNL1        0.1690
      5  C         20.4690  -23.0040   -8.0080 C.2     1  UNL1        0.0320
      6  C         20.4970  -21.7770   -7.3380 C.2     1  UNL1        0.0170
      7  C         19.5430  -21.5000   -6.3540 C.2     1  UNL1        0.0110
      8  C         18.5460  -22.4380   -6.0270 C.2     1  UNL1       -0.0250
      9  C         18.5310  -23.6660   -6.7140 C.2     1  UNL1        0.0110
     10  C         19.4750  -23.9400   -7.7080 C.2     1  UNL1        0.0170
     11  C         17.5540  -22.1060   -4.9260 C.3     1  UNL1        0.1830
     12  S         18.1650  -22.7020   -3.3240 S.3     1  UNL1       -0.1300
     13  C         16.8900  -23.9700   -3.1770 C.3     1  UNL1        0.1790
     14  C         15.8330  -23.6490   -4.2060 C.2     1  UNL1        0.2300
     15  O         14.7400  -24.2060   -4.2320 O.2     1  UNL1       -0.2720
     16  N         16.2420  -22.6880   -5.1080 N.am    1  UNL1       -0.3280
     17  C         15.3390  -22.1620   -6.1240 C.3     1  UNL1        0.1920
     18  C         15.5390  -22.8830   -7.4060 C.2     1  UNL1        0.0700
     19  C         15.8900  -22.4810   -8.6810 C.2     1  UNL1        0.0360
     20  C         15.9020  -23.6510   -9.4790 C.2     1  UNL1        0.0270
     21  C         15.5720  -24.6910   -8.6400 C.2     1  UNL1        0.1420
     22  O         15.3510  -24.2370   -7.3810 O.2     1  UNL1       -0.3250
     23  C         22.4730  -22.3480  -11.1410 C.2     1  UNL1        0.0350
     24  C         23.5100  -23.2640  -11.3360 C.2     1  UNL1        0.0310
     25  C         24.2350  -23.2740  -12.5330 C.2     1  UNL1        0.0270
     26  C         23.9290  -22.3510  -13.5350 C.2     1  UNL1        0.0800
     27  C         22.8890  -21.4360  -13.3590 C.2     1  UNL1        0.0270
     28  C         22.1660  -21.4380  -12.1630 C.2     1  UNL1        0.0310
     29  S         24.8170  -22.3880  -15.0700 S.O2    1  UNL1        0.2630
     30  O         24.7670  -23.7290  -15.6130 O.2     1  UNL1       -0.2000
     31  O         24.3770  -21.2520  -15.8530 O.2     1  UNL1       -0.2000
     32  N         26.4010  -22.0310  -14.5940 N.pl3   1  UNL1       -0.2810
     33  H         26.9240  -22.8900  -14.4260 H       1  UNL1        0.1790
     34  C         26.5980  -20.9610  -13.6810 C.2     1  UNL1        0.0420
     35  C         26.5780  -21.1940  -12.3060 C.2     1  UNL1        0.0330
     36  C         26.7560  -20.1270  -11.4220 C.2     1  UNL1        0.0440
     37  C         26.9500  -18.8450  -11.9250 C.2     1  UNL1        0.1160
     38  F         27.1210  -17.8240  -11.0770 F       1  UNL1       -0.2060
     39  C         26.9630  -18.6050  -13.2960 C.2     1  UNL1        0.0440
     40  C         26.7830  -19.6690  -14.1800 C.2     1  UNL1        0.0330
@<TRIPOS>BOND
     1    31    29    2
     2    30    29    2
     3    29    32    1
     4    29    26    1
     5    32    33    1
     6    32    34    1
     7    40    34    2
     8    40    39    1
     9    34    35    1
    10    26    27    2
    11    26    25    1
    12    27    28    1
    13    39    37    2
    14    25    24    2
    15    35    36    2
    16    28    23    2
    17    37    36    1
    18    37    38    1
    19    24    23    1
    20    23     3    1
    21     3     4    1
    22     3     2   am
    23    20    19    1
    24    20    21    2
    25     2     1    2
    26     2     5    1
    27    19    18    2
    28    21    22    1
    29     5    10    2
    30     5     6    1
    31    10     9    1
    32    18    22    1
    33    18    17    1
    34     6     7    2
    35     9     8    2
    36     7     8    1
    37    17    16    1
    38     8    11    1
    39    16    11    1
    40    16    14   am
    41    11    12    1
    42    15    14    2
    43    14    13    1
    44    12    13    1
