@<TRIPOS>MOLECULE
53607_out_ligand_01.pdbqt
 32 34 0 0 0
SMALL
GASTEIGER

@<TRIPOS>ATOM
      1  C         17.5000  -23.2520   -8.9590 C.2     1  UNL1        0.0860
      2  C         18.8900  -23.3720   -9.1260 C.2     1  UNL1        0.0420
      3  C         19.5390  -22.7020  -10.1670 C.2     1  UNL1        0.0330
      4  C         18.7950  -21.9040  -11.0410 C.2     1  UNL1        0.0170
      5  C         17.4120  -21.7940  -10.8830 C.2     1  UNL1        0.0090
      6  C         16.7400  -22.4610   -9.8420 C.2     1  UNL1       -0.0390
      7  C         15.2470  -22.3040   -9.7530 C.3     1  UNL1        0.0500
      8  S         16.7630  -24.1730   -7.6090 S.O2    1  UNL1        0.2630
      9  O         17.8170  -24.8990   -6.9330 O.2     1  UNL1       -0.2000
     10  O         15.6080  -24.8820   -8.1170 O.2     1  UNL1       -0.2000
     11  N         16.1690  -22.9650   -6.5940 N.pl3   1  UNL1       -0.2800
     12  H         15.4960  -22.3610   -7.0570 H       1  UNL1        0.1790
     13  C         16.9880  -22.4150   -5.5620 C.2     1  UNL1        0.0490
     14  C         16.7020  -22.6870   -4.2120 C.2     1  UNL1       -0.0350
     15  C         17.5030  -22.0990   -3.2200 C.2     1  UNL1        0.0090
     16  C         15.5570  -23.5630   -3.7920 C.3     1  UNL1        0.0500
     17  C         18.5690  -21.2650   -3.5600 C.2     1  UNL1        0.0070
     18  C         18.8590  -21.0030   -4.9000 C.2     1  UNL1       -0.0600
     19  C         20.0200  -20.1300   -5.2750 C.3     1  UNL1        0.0480
     20  C         18.0780  -21.6030   -5.8940 C.2     1  UNL1        0.0370
     21  C         21.0170  -22.8360  -10.2950 C.2     1  UNL1        0.2560
     22  O         21.5700  -23.7650   -9.7240 O.2     1  UNL1       -0.2670
     23  N         21.6070  -21.9110  -11.1330 N.am    1  UNL1       -0.3180
     24  H         20.9990  -21.4210  -11.7800 H       1  UNL1        0.1690
     25  C         22.9920  -21.7580  -11.3900 C.2     1  UNL1        0.1130
     26  C         23.9960  -21.6260  -10.4290 C.2     1  UNL1        0.1460
     27  F         23.7200  -21.5420   -9.1220 F       1  UNL1       -0.2040
     28  C         25.3370  -21.4870  -10.8030 C.2     1  UNL1        0.0450
     29  C         25.6960  -21.4630  -12.1500 C.2     1  UNL1        0.0060
     30  C         24.7070  -21.5620  -13.1230 C.2     1  UNL1        0.0450
     31  C         23.3740  -21.6990  -12.7370 C.2     1  UNL1        0.1460
     32  F         22.4330  -21.7870  -13.6930 F       1  UNL1       -0.2040
@<TRIPOS>BOND
     1    32    31    1
     2    30    31    1
     3    30    29    2
     4    31    25    2
     5    29    28    1
     6    24    23    1
     7    25    23    1
     8    25    26    1
     9    23    21   am
    10     4     5    2
    11     4     3    1
    12     5     6    1
    13    28    26    2
    14    26    27    1
    15    21     3    1
    16    21    22    2
    17     3     2    2
    18     6     7    1
    19     6     1    2
    20     2     1    1
    21     1     8    1
    22    10     8    2
    23     8     9    2
    24     8    11    1
    25    12    11    1
    26    11    13    1
    27    20    13    2
    28    20    18    1
    29    13    14    1
    30    19    18    1
    31    18    17    2
    32    14    16    1
    33    14    15    2
    34    17    15    1
