@<TRIPOS>MOLECULE
53603_out_ligand_01.pdbqt
 30 32 0 0 0
SMALL
GASTEIGER

@<TRIPOS>ATOM
      1  C         17.5930  -23.2650   -8.9300 C.2     1  UNL1        0.0810
      2  C         18.9900  -23.3590   -9.0500 C.2     1  UNL1        0.0420
      3  C         19.6560  -22.7240  -10.1060 C.2     1  UNL1        0.0330
      4  C         18.9250  -21.9610  -11.0200 C.2     1  UNL1        0.0170
      5  C         17.5370  -21.8630  -10.8980 C.2     1  UNL1        0.0090
      6  C         16.8470  -22.5200   -9.8640 C.2     1  UNL1       -0.0390
      7  C         15.3550  -22.3530   -9.7900 C.3     1  UNL1        0.0500
      8  S         16.8320  -24.0950   -7.5340 S.O2    1  UNL1        0.2460
      9  O         17.8710  -24.7230   -6.7510 O.2     1  UNL1       -0.2060
     10  O         15.7070  -24.8530   -8.0430 O.2     1  UNL1       -0.2060
     11  N         16.1800  -22.7580   -6.6870 N.pl3   1  UNL1       -0.1810
     12  H         15.2540  -23.0350   -6.3550 H       1  UNL1        0.1460
     13  C         16.9910  -22.3300   -5.5750 C.2     1  UNL1        0.0280
     14  C         18.1190  -21.5390   -5.8230 C.2     1  UNL1        0.0250
     15  C         18.8980  -21.0730   -4.7640 C.2     1  UNL1        0.0020
     16  C         18.5490  -21.3890   -3.4550 C.2     1  UNL1        0.0010
     17  C         17.4210  -22.1720   -3.2040 C.2     1  UNL1        0.0080
     18  C         16.6310  -22.6570   -4.2590 C.2     1  UNL1       -0.0400
     19  C         15.4180  -23.4830   -3.9430 C.3     1  UNL1        0.0500
     20  C         21.1380  -22.8580  -10.1970 C.2     1  UNL1        0.2560
     21  O         21.6860  -23.6940   -9.4890 O.2     1  UNL1       -0.2670
     22  N         21.7470  -22.0320  -11.1260 N.am    1  UNL1       -0.3230
     23  H         21.1420  -21.4910  -11.7290 H       1  UNL1        0.1690
     24  C         23.1280  -21.9230  -11.3960 C.2     1  UNL1        0.0350
     25  C         23.5410  -22.1660  -12.7150 C.2     1  UNL1        0.0320
     26  C         24.8900  -22.0750  -13.0660 C.2     1  UNL1        0.0440
     27  C         25.8270  -21.7370  -12.0990 C.2     1  UNL1        0.1160
     28  F         27.1210  -21.6510  -12.4340 F       1  UNL1       -0.2060
     29  C         25.4380  -21.4900  -10.7900 C.2     1  UNL1        0.0440
     30  C         24.0870  -21.5810  -10.4390 C.2     1  UNL1        0.0320
@<TRIPOS>BOND
     1    26    25    1
     2    26    27    2
     3    25    24    2
     4    28    27    1
     5    27    29    1
     6    23    22    1
     7    24    22    1
     8    24    30    1
     9    22    20   am
    10     4     5    2
    11     4     3    1
    12     5     6    1
    13    29    30    2
    14    20     3    1
    15    20    21    2
    16     3     2    2
    17     6     7    1
    18     6     1    2
    19     2     1    1
    20     1     8    1
    21    10     8    2
    22     8     9    2
    23     8    11    1
    24    11    12    1
    25    11    13    1
    26    14    13    2
    27    14    15    1
    28    13    18    1
    29    15    16    2
    30    18    19    1
    31    18    17    2
    32    16    17    1
