@<TRIPOS>MOLECULE
53615_out_ligand_01.pdbqt
 31 33 0 0 0
SMALL
GASTEIGER

@<TRIPOS>ATOM
      1  C         17.4270  -23.4100   -8.7440 C.2     1  UNL1        0.0860
      2  C         18.8210  -23.5670   -8.8400 C.2     1  UNL1        0.0420
      3  C         19.5420  -22.9060   -9.8370 C.2     1  UNL1        0.0330
      4  C         18.8720  -22.0790  -10.7400 C.2     1  UNL1        0.0170
      5  C         17.4900  -21.9040  -10.6300 C.2     1  UNL1        0.0090
      6  C         16.7430  -22.5610   -9.6320 C.2     1  UNL1       -0.0390
      7  C         15.2610  -22.3190   -9.5910 C.3     1  UNL1        0.0500
      8  S         16.6340  -24.3550   -7.4440 S.O2    1  UNL1        0.2630
      9  O         15.5120  -25.0370   -8.0580 O.2     1  UNL1       -0.2000
     10  O         17.6200  -25.0920   -6.6870 O.2     1  UNL1       -0.2000
     11  N         15.9720  -23.1510   -6.4550 N.pl3   1  UNL1       -0.2810
     12  H         15.3330  -22.5480   -6.9700 H       1  UNL1        0.1790
     13  C         16.7960  -22.5470   -5.4650 C.2     1  UNL1        0.0430
     14  C         16.5540  -22.7620   -4.1110 C.2     1  UNL1        0.0300
     15  C         17.3940  -22.1890   -3.1550 C.2     1  UNL1        0.0030
     16  C         18.4790  -21.4080   -3.5550 C.2     1  UNL1        0.0070
     17  C         18.7390  -21.1980   -4.9150 C.2     1  UNL1       -0.0600
     18  C         19.8890  -20.3400   -5.3530 C.3     1  UNL1        0.0480
     19  C         17.8800  -21.7630   -5.8690 C.2     1  UNL1        0.0370
     20  C         21.0040  -23.1580   -9.9340 C.2     1  UNL1        0.2560
     21  O         21.4920  -23.9980   -9.1870 O.2     1  UNL1       -0.2670
     22  N         21.6730  -22.3810  -10.8560 N.am    1  UNL1       -0.3200
     23  H         21.1550  -21.6440  -11.3240 H       1  UNL1        0.1690
     24  C         23.0490  -22.4200  -11.1750 C.2     1  UNL1        0.0740
     25  C         23.5920  -23.1470  -12.2360 C.2     1  UNL1        0.0360
     26  C         24.9710  -23.1190  -12.4700 C.2     1  UNL1        0.0440
     27  C         25.8020  -22.3650  -11.6450 C.2     1  UNL1        0.1190
     28  F         27.1200  -22.3440  -11.8790 F       1  UNL1       -0.2060
     29  C         25.2840  -21.6350  -10.5870 C.2     1  UNL1        0.0860
     30  C         23.9130  -21.6690  -10.3630 C.2     1  UNL1        0.1460
     31  F         23.4050  -20.9610   -9.3420 F       1  UNL1       -0.2040
@<TRIPOS>BOND
     1    26    25    1
     2    26    27    2
     3    25    24    2
     4    28    27    1
     5    27    29    1
     6    23    22    1
     7    24    22    1
     8    24    30    1
     9    22    20   am
    10     4     5    2
    11     4     3    1
    12     5     6    1
    13    29    30    2
    14    30    31    1
    15    20     3    1
    16    20    21    2
    17     3     2    2
    18     6     7    1
    19     6     1    2
    20     2     1    1
    21     1     8    1
    22     9     8    2
    23     8    10    2
    24     8    11    1
    25    12    11    1
    26    11    13    1
    27    19    13    2
    28    19    17    1
    29    13    14    1
    30    18    17    1
    31    17    16    2
    32    14    15    2
    33    16    15    1
