@<TRIPOS>MOLECULE
53613_out_ligand_01.pdbqt
 36 38 0 0 0
SMALL
GASTEIGER

@<TRIPOS>ATOM
      1  C         18.8890  -23.1260   -9.4250 C.2     1  UNL1        0.0860
      2  C         19.7890  -22.5570  -10.3430 C.2     1  UNL1        0.0420
      3  C         21.1300  -22.9480  -10.3530 C.2     1  UNL1        0.0330
      4  C         21.5740  -23.9220   -9.4580 C.2     1  UNL1        0.0170
      5  C         20.6810  -24.4860   -8.5430 C.2     1  UNL1        0.0090
      6  C         19.3270  -24.0990   -8.5060 C.2     1  UNL1       -0.0390
      7  C         18.4350  -24.7560   -7.4910 C.3     1  UNL1        0.0500
      8  C         22.0430  -22.3340  -11.3540 C.2     1  UNL1        0.2560
      9  O         21.5490  -21.6380  -12.2330 O.2     1  UNL1       -0.2670
     10  N         23.3860  -22.5990  -11.1530 N.am    1  UNL1       -0.3230
     11  H         23.6340  -23.0810  -10.3000 H       1  UNL1        0.1690
     12  C         24.4670  -22.1830  -11.9610 C.2     1  UNL1        0.0360
     13  C         25.3080  -21.1140  -11.6470 C.2     1  UNL1        0.0290
     14  C         26.3460  -20.7490  -12.5100 C.2     1  UNL1        0.0040
     15  C         26.5580  -21.4550  -13.6920 C.2     1  UNL1        0.0250
     16  C         25.7400  -22.5390  -14.0040 C.2     1  UNL1        0.0260
     17  C         24.6860  -22.8870  -13.1520 C.2     1  UNL1        0.0540
     18  N         25.8770  -23.2910  -15.2250 N.pl3   1  UNL1       -0.1810
     19  C         25.6380  -24.7470  -15.0700 C.3     1  UNL1        0.1350
     20  S         25.1240  -22.6370  -16.6170 S.O2    1  UNL1        0.2110
     21  C         26.4900  -21.8580  -17.4550 C.3     1  UNL1        0.1800
     22  O         24.1750  -21.6190  -16.2140 O.2     1  UNL1       -0.2110
     23  O         24.6910  -23.7530  -17.4350 O.2     1  UNL1       -0.2110
     24  S         17.2100  -22.5140   -9.5010 S.O2    1  UNL1        0.2630
     25  O         16.3470  -23.6380   -9.1970 O.2     1  UNL1       -0.2000
     26  O         17.0030  -21.7450  -10.7060 O.2     1  UNL1       -0.2000
     27  N         17.1290  -21.4940   -8.1560 N.pl3   1  UNL1       -0.2800
     28  H         17.8680  -20.7920   -8.1800 H       1  UNL1        0.1790
     29  C         16.8030  -22.0650   -6.8930 C.2     1  UNL1        0.0480
     30  C         15.5570  -22.6760   -6.7420 C.2     1  UNL1        0.0310
     31  C         15.2110  -23.2800   -5.5330 C.2     1  UNL1        0.0090
     32  C         16.1140  -23.2900   -4.4680 C.2     1  UNL1       -0.0610
     33  C         15.7370  -23.9100   -3.1530 C.3     1  UNL1        0.0480
     34  C         17.3570  -22.6620   -4.6210 C.2     1  UNL1        0.0150
     35  C         17.7220  -22.0520   -5.8340 C.2     1  UNL1       -0.0340
     36  C         19.0640  -21.3860   -5.9500 C.3     1  UNL1        0.0500
@<TRIPOS>BOND
     1    21    20    1
     2    23    20    2
     3    20    22    2
     4    20    18    1
     5    18    19    1
     6    18    16    1
     7    16    15    2
     8    16    17    1
     9    15    14    1
    10    17    12    2
    11    14    13    2
    12     9     8    2
    13    12    13    1
    14    12    10    1
    15     8    10   am
    16     8     3    1
    17    10    11    1
    18    26    24    2
    19     3     2    1
    20     3     4    2
    21     2     1    2
    22    24     1    1
    23    24    25    2
    24    24    27    1
    25     4     5    1
    26     1     6    1
    27     5     6    2
    28     6     7    1
    29    28    27    1
    30    27    29    1
    31    29    30    2
    32    29    35    1
    33    30    31    1
    34    36    35    1
    35    35    34    2
    36    31    32    2
    37    34    32    1
    38    32    33    1
