@<TRIPOS>MOLECULE
53620_out_ligand_01.pdbqt
 46 49 0 0 0
SMALL
GASTEIGER

@<TRIPOS>ATOM
      1  C         20.9760  -21.4480   -6.9150 C.2     1  UNL1        0.2560
      2  O         21.7370  -20.5690   -6.5290 O.2     1  UNL1       -0.2670
      3  N         21.1580  -22.3040   -7.9860 N.am    1  UNL1       -0.3230
      4  H         20.3840  -22.9080   -8.2270 H       1  UNL1        0.1690
      5  C         22.2760  -22.3700   -8.8430 C.2     1  UNL1        0.0350
      6  C         23.0470  -23.5410   -8.7960 C.2     1  UNL1        0.0310
      7  C         24.1780  -23.6860   -9.6060 C.2     1  UNL1        0.0270
      8  C         24.5430  -22.6510  -10.4670 C.2     1  UNL1        0.0800
      9  C         23.7740  -21.4900  -10.5420 C.2     1  UNL1        0.0270
     10  C         22.6490  -21.3490   -9.7210 C.2     1  UNL1        0.0310
     11  S         25.9660  -22.8360  -11.5110 S.O2    1  UNL1        0.2630
     12  O         25.6500  -23.7610  -12.5780 O.2     1  UNL1       -0.2000
     13  O         27.1130  -23.0470  -10.6520 O.2     1  UNL1       -0.2000
     14  N         26.1550  -21.2790  -12.1560 N.pl3   1  UNL1       -0.2810
     15  H         26.9890  -20.8400  -11.7670 H       1  UNL1        0.1790
     16  C         25.9010  -21.1050  -13.5420 C.2     1  UNL1        0.0430
     17  C         25.9910  -19.8350  -14.1030 C.2     1  UNL1        0.0320
     18  C         25.6940  -19.6540  -15.4540 C.2     1  UNL1        0.0270
     19  C         25.3010  -20.7420  -16.2420 C.2     1  UNL1        0.0490
     20 CL         24.9530  -20.4340  -17.9050 Cl      1  UNL1       -0.0830
     21  C         25.2000  -22.0230  -15.6870 C.2     1  UNL1        0.0710
     22  C         25.5040  -22.1910  -14.3210 C.2     1  UNL1        0.0480
     23  C         24.7690  -23.2070  -16.5100 C.3     1  UNL1        0.4190
     24  F         25.3560  -23.2400  -17.7370 F       1  UNL1       -0.1660
     25  F         23.4260  -23.2540  -16.7210 F       1  UNL1       -0.1660
     26  F         25.0860  -24.4020  -15.9300 F       1  UNL1       -0.1660
     27  C         19.6920  -21.6260   -6.1840 C.2     1  UNL1        0.0330
     28  C         19.4710  -21.0400   -4.9360 C.2     1  UNL1        0.0170
     29  C         18.2420  -21.2170   -4.2910 C.2     1  UNL1        0.0090
     30  C         17.2080  -21.9670   -4.8810 C.2     1  UNL1       -0.0390
     31  C         15.9190  -22.1080   -4.1190 C.3     1  UNL1        0.0500
     32  C         17.4390  -22.5420   -6.1460 C.2     1  UNL1        0.0860
     33  C         18.6770  -22.3680   -6.7910 C.2     1  UNL1        0.0420
     34  S         16.2360  -23.5390   -7.0160 S.O2    1  UNL1        0.2630
     35  O         16.0730  -24.7590   -6.2510 O.2     1  UNL1       -0.2000
     36  O         15.0800  -22.7460   -7.3680 O.2     1  UNL1       -0.2000
     37  N         17.0730  -23.9820   -8.4120 N.pl3   1  UNL1       -0.2800
     38  H         16.8480  -24.9290   -8.7140 H       1  UNL1        0.1790
     39  C         17.3260  -22.9990   -9.4070 C.2     1  UNL1        0.0490
     40  C         16.3120  -22.0690   -9.6550 C.2     1  UNL1        0.0310
     41  C         16.4780  -21.0990  -10.6380 C.2     1  UNL1        0.0030
     42  C         17.6560  -21.0620  -11.3790 C.2     1  UNL1        0.0070
     43  C         18.6840  -21.9900  -11.1470 C.2     1  UNL1       -0.0540
     44  C         19.9350  -21.9080  -11.9820 C.3     1  UNL1        0.0490
     45  C         18.5310  -22.9660  -10.1320 C.2     1  UNL1       -0.0290
     46  C         19.6240  -23.9750   -9.8890 C.3     1  UNL1        0.0510
@<TRIPOS>BOND
     1    20    19    1
     2    24    23    1
     3    25    23    1
     4    23    26    1
     5    23    21    1
     6    19    21    2
     7    19    18    1
     8    21    22    1
     9    18    17    2
    10    22    16    2
    11    17    16    1
    12    16    14    1
    13    12    11    2
    14    14    15    1
    15    14    11    1
    16    44    43    1
    17    11    13    2
    18    11     8    1
    19    42    43    2
    20    42    41    1
    21    43    45    1
    22    41    40    2
    23     9     8    2
    24     9    10    1
    25     8     7    1
    26    45    46    1
    27    45    39    2
    28    10     5    2
    29    40    39    1
    30     7     6    2
    31    39    37    1
    32     5     6    1
    33     5     3    1
    34    38    37    1
    35    37    34    1
    36     4     3    1
    37     3     1   am
    38    36    34    2
    39    34    35    2
    40    34    32    1
    41     1     2    2
    42     1    27    1
    43    33    27    2
    44    33    32    1
    45    27    28    1
    46    32    30    2
    47    28    29    2
    48    30    29    1
    49    30    31    1
