@<TRIPOS>MOLECULE
5362_out_ligand_01.pdbqt
 35 37 0 0 0
SMALL
GASTEIGER

@<TRIPOS>ATOM
      1  N         23.3180  -22.3850  -10.4830 N.3     1  UNL1       -0.2940
      2  C         22.3550  -22.7590  -11.5510 C.3     1  UNL1        0.1740
      3  C         20.9510  -22.2100  -11.4400 C.2     1  UNL1       -0.0400
      4  C         20.6730  -20.8900  -11.8280 C.2     1  UNL1        0.0090
      5  C         19.3800  -20.3730  -11.7200 C.2     1  UNL1        0.0070
      6  C         18.3360  -21.1680  -11.2360 C.2     1  UNL1       -0.0620
      7  C         16.9540  -20.6030  -11.0870 C.3     1  UNL1        0.0480
      8  C         18.6120  -22.4810  -10.8400 C.2     1  UNL1        0.0070
      9  C         19.9050  -22.9980  -10.9470 C.2     1  UNL1        0.0090
     10  C         23.1820  -23.1100   -9.1810 C.3     1  UNL1        0.2380
     11  C         22.1620  -22.4330   -8.2630 C.2     1  UNL1        0.2400
     12  O         22.4220  -21.3790   -7.6910 O.2     1  UNL1       -0.2710
     13  N         21.0190  -23.2000   -8.0980 N.am    1  UNL1       -0.3260
     14  H         21.0160  -24.0620   -8.6310 H       1  UNL1        0.1690
     15  C         19.8780  -22.9090   -7.3320 C.2     1  UNL1        0.0340
     16  C         18.8370  -23.8450   -7.3570 C.2     1  UNL1        0.0300
     17  C         17.6650  -23.6260   -6.6270 C.2     1  UNL1        0.0190
     18  C         17.5190  -22.4670   -5.8570 C.2     1  UNL1        0.0320
     19  C         18.5500  -21.5220   -5.8450 C.2     1  UNL1        0.0190
     20  C         19.7240  -21.7470   -6.5760 C.2     1  UNL1        0.0300
     21  C         16.2520  -22.2780   -5.1010 C.2     1  UNL1        0.2490
     22  N         16.3420  -22.0400   -3.7580 N.am    1  UNL1       -0.3660
     23  H         15.4670  -22.0330   -3.2500 H       1  UNL1        0.1590
     24  H         17.1830  -22.2190   -3.2290 H       1  UNL1        0.1590
     25  O         15.1600  -22.3640   -5.6490 O.2     1  UNL1       -0.2680
     26  S         24.9310  -22.1100  -10.9660 S.O2    1  UNL1        0.2610
     27  O         25.2530  -20.7240  -10.7100 O.2     1  UNL1       -0.2000
     28  O         25.7530  -23.1820  -10.4530 O.2     1  UNL1       -0.2000
     29  C         24.8200  -22.2940  -12.7340 C.2     1  UNL1        0.0790
     30  C         24.4070  -21.2020  -13.5080 C.2     1  UNL1        0.0270
     31  C         24.3290  -21.3320  -14.8960 C.2     1  UNL1        0.0250
     32  C         24.6760  -22.5410  -15.4990 C.2     1  UNL1        0.0340
     33 CL         24.5760  -22.7010  -17.2090 Cl      1  UNL1       -0.0840
     34  C         25.1120  -23.6210  -14.7290 C.2     1  UNL1        0.0250
     35  C         25.1920  -23.4970  -13.3400 C.2     1  UNL1        0.0270
@<TRIPOS>BOND
     1    33    32    1
     2    32    31    2
     3    32    34    1
     4    31    30    1
     5    34    35    2
     6    30    29    2
     7    35    29    1
     8    29    26    1
     9     4     5    1
    10     4     3    2
    11     5     6    2
    12     2     3    1
    13     2     1    1
    14     3     9    1
    15     6     7    1
    16     6     8    1
    17    26    27    2
    18    26     1    1
    19    26    28    2
    20     9     8    2
    21     1    10    1
    22    10    11    1
    23    14    13    1
    24    11    13   am
    25    11    12    2
    26    13    15    1
    27    16    15    2
    28    16    17    1
    29    15    20    1
    30    17    18    2
    31    20    19    2
    32    18    19    1
    33    18    21    1
    34    25    21    2
    35    21    22   am
    36    22    23    1
    37    22    24    1
