@<TRIPOS>MOLECULE
53629_out_ligand_01.pdbqt
 44 47 0 0 0
SMALL
GASTEIGER

@<TRIPOS>ATOM
      1  N         21.6200  -23.1310  -10.9680 N.am    1  UNL1       -0.3230
      2  C         22.7990  -22.5220  -10.5860 C.2     1  UNL1        0.2560
      3  O         23.0240  -21.8960   -9.5580 O.2     1  UNL1       -0.2670
      4  H         21.5940  -23.5420  -11.8930 H       1  UNL1        0.1690
      5  C         20.4000  -23.1520  -10.2590 C.2     1  UNL1        0.0350
      6  C         20.3400  -23.9640   -9.1160 C.2     1  UNL1        0.0310
      7  C         19.1620  -24.0620   -8.3690 C.2     1  UNL1        0.0270
      8  C         18.0390  -23.3330   -8.7610 C.2     1  UNL1        0.0750
      9  C         18.0810  -22.5230   -9.8970 C.2     1  UNL1        0.0270
     10  C         19.2660  -22.4280  -10.6370 C.2     1  UNL1        0.0310
     11  S         16.5140  -23.4960   -7.8550 S.O2    1  UNL1        0.2450
     12  O         15.7160  -24.5110   -8.5090 O.2     1  UNL1       -0.2060
     13  O         15.9960  -22.1600   -7.6440 O.2     1  UNL1       -0.2060
     14  N         17.0040  -24.0630   -6.3410 N.pl3   1  UNL1       -0.1790
     15  H         16.3010  -24.7010   -5.9570 H       1  UNL1        0.1460
     16  C         17.4860  -23.1110   -5.3860 C.2     1  UNL1        0.0560
     17  C         18.4120  -22.1390   -5.7690 C.2     1  UNL1        0.0340
     18  C         18.8520  -21.1850   -4.8450 C.2     1  UNL1       -0.0600
     19  C         18.3590  -21.2310   -3.5350 C.2     1  UNL1        0.0090
     20  C         19.8690  -20.1610   -5.2530 C.3     1  UNL1        0.0480
     21  C         17.4250  -22.2020   -3.1530 C.2     1  UNL1        0.0390
     22  C         16.9810  -23.1480   -4.0760 C.2     1  UNL1        0.0900
     23  O         16.0730  -24.1460   -3.8230 O.2     1  UNL1       -0.3540
     24  C         14.7630  -23.9790   -4.3540 C.3     1  UNL1        0.2100
     25  C         23.8990  -22.6350  -11.5750 C.2     1  UNL1        0.0330
     26  C         25.1190  -23.2250  -11.2420 C.2     1  UNL1        0.0170
     27  C         26.1420  -23.2790  -12.1930 C.2     1  UNL1        0.0090
     28  C         25.9730  -22.7400  -13.4860 C.2     1  UNL1       -0.0390
     29  C         27.1210  -22.8620  -14.4500 C.3     1  UNL1        0.0500
     30  C         24.7420  -22.1350  -13.8010 C.2     1  UNL1        0.0860
     31  C         23.7070  -22.0930  -12.8480 C.2     1  UNL1        0.0420
     32  S         24.3490  -21.4280  -15.3980 S.O2    1  UNL1        0.2630
     33  O         23.5940  -20.2170  -15.1380 O.2     1  UNL1       -0.2000
     34  O         23.8090  -22.4470  -16.2710 O.2     1  UNL1       -0.2000
     35  N         25.8440  -20.9220  -15.9750 N.pl3   1  UNL1       -0.2800
     36  H         26.3400  -21.6290  -16.5170 H       1  UNL1        0.1790
     37  C         26.1110  -19.5500  -16.2260 C.2     1  UNL1        0.0480
     38  C         26.0360  -19.0770  -17.5390 C.2     1  UNL1        0.0310
     39  C         26.2950  -17.7360  -17.8270 C.2     1  UNL1        0.0090
     40  C         26.6240  -16.8470  -16.8020 C.2     1  UNL1       -0.0610
     41  C         26.9300  -15.4120  -17.1130 C.3     1  UNL1        0.0480
     42  C         26.7090  -17.3260  -15.4890 C.2     1  UNL1        0.0150
     43  C         26.4350  -18.6720  -15.1800 C.2     1  UNL1       -0.0340
     44  C         26.5700  -19.1050  -13.7460 C.3     1  UNL1        0.0500
@<TRIPOS>BOND
     1    39    38    1
     2    39    40    2
     3    38    37    2
     4    41    40    1
     5    40    42    1
     6    36    35    1
     7    34    32    2
     8    37    35    1
     9    37    43    1
    10    35    32    1
    11    42    43    2
    12    32    33    2
    13    32    30    1
    14    43    44    1
    15    29    28    1
    16    30    28    2
    17    30    31    1
    18    28    27    1
    19    31    25    2
    20    27    26    2
    21     4     1    1
    22    25    26    1
    23    25     2    1
    24     1     2   am
    25     1     5    1
    26    10     5    2
    27    10     9    1
    28     2     3    2
    29     5     6    1
    30     9     8    2
    31     6     7    2
    32     8     7    1
    33     8    11    1
    34    12    11    2
    35    11    13    2
    36    11    14    1
    37    14    15    1
    38    14    16    1
    39    17    16    2
    40    17    18    1
    41    16    22    1
    42    20    18    1
    43    18    19    2
    44    24    23    1
    45    22    23    1
    46    22    21    2
    47    19    21    1
