@<TRIPOS>MOLECULE
53631_out_ligand_01.pdbqt
 32 34 0 0 0
SMALL
GASTEIGER

@<TRIPOS>ATOM
      1  C         22.1930  -22.2770  -11.2250 C.2     1  UNL1        0.0860
      2  C         21.5080  -22.7570  -10.0950 C.2     1  UNL1        0.0420
      3  C         20.1240  -22.6100   -9.9910 C.2     1  UNL1        0.0330
      4  C         19.4170  -21.9750  -11.0130 C.2     1  UNL1        0.0170
      5  C         20.1000  -21.4780  -12.1270 C.2     1  UNL1        0.0090
      6  C         21.4960  -21.6140  -12.2530 C.2     1  UNL1       -0.0390
      7  C         22.1480  -21.0530  -13.4850 C.3     1  UNL1        0.0500
      8  C         19.4350  -23.1840   -8.8030 C.2     1  UNL1        0.2560
      9  O         19.8080  -24.2770   -8.3960 O.2     1  UNL1       -0.2670
     10  N         18.4760  -22.3620   -8.2390 N.am    1  UNL1       -0.3220
     11  H         18.5980  -21.3800   -8.4440 H       1  UNL1        0.1690
     12  C         17.6750  -22.6620   -7.1090 C.2     1  UNL1        0.0470
     13  C         18.0490  -22.0760   -5.8740 C.2     1  UNL1       -0.0340
     14  C         19.2570  -21.1850   -5.7340 C.3     1  UNL1        0.0500
     15  C         17.3020  -22.3520   -4.7150 C.2     1  UNL1        0.0150
     16  C         16.1820  -23.1820   -4.7580 C.2     1  UNL1       -0.0610
     17  C         15.4270  -23.5130   -3.5050 C.3     1  UNL1        0.0480
     18  C         15.8040  -23.7340   -5.9820 C.2     1  UNL1        0.0150
     19  C         16.5110  -23.4570   -7.1710 C.2     1  UNL1       -0.0340
     20  C         15.9220  -24.0100   -8.4400 C.3     1  UNL1        0.0500
     21  S         23.9600  -22.5750  -11.2400 S.O2    1  UNL1        0.2630
     22  O         24.6640  -21.3900  -11.6710 O.2     1  UNL1       -0.2000
     23  O         24.2810  -23.2070   -9.9770 O.2     1  UNL1       -0.2000
     24  N         24.1300  -23.7700  -12.4240 N.pl3   1  UNL1       -0.2810
     25  H         23.2550  -24.2630  -12.6010 H       1  UNL1        0.1790
     26  C         24.9940  -23.5370  -13.5310 C.2     1  UNL1        0.0430
     27  C         26.2680  -24.1060  -13.5240 C.2     1  UNL1        0.0300
     28  C         27.1210  -23.9150  -14.6100 C.2     1  UNL1        0.0030
     29  C         26.7020  -23.1560  -15.7030 C.2     1  UNL1        0.0070
     30  C         25.4230  -22.5870  -15.7230 C.2     1  UNL1       -0.0600
     31  C         24.9810  -21.7390  -16.8790 C.3     1  UNL1        0.0480
     32  C         24.5780  -22.7710  -14.6210 C.2     1  UNL1        0.0370
@<TRIPOS>BOND
     1    31    30    1
     2    30    29    2
     3    30    32    1
     4    29    28    1
     5    32    26    2
     6    28    27    2
     7    26    27    1
     8    26    24    1
     9     7     6    1
    10    25    24    1
    11    24    21    1
    12     6     5    1
    13     6     1    2
    14     5     4    2
    15    22    21    2
    16    21     1    1
    17    21    23    2
    18     1     2    1
    19     4     3    1
    20     2     3    2
    21     3     8    1
    22     8     9    2
    23     8    10   am
    24    11    10    1
    25    20    19    1
    26    10    12    1
    27    19    12    2
    28    19    18    1
    29    12    13    1
    30    18    16    2
    31    13    14    1
    32    13    15    2
    33    16    15    1
    34    16    17    1
