@<TRIPOS>MOLECULE
53637_out_ligand_01.pdbqt
 41 44 0 0 0
SMALL
GASTEIGER

@<TRIPOS>ATOM
      1  C         21.1360  -21.7970   -7.4130 C.2     1  UNL1        0.2560
      2  O         22.0050  -21.0100   -7.0590 O.2     1  UNL1       -0.2670
      3  N         21.1690  -22.6430   -8.5070 N.am    1  UNL1       -0.3230
      4  H         20.3280  -23.1660   -8.7130 H       1  UNL1        0.1690
      5  C         19.8800  -21.8530   -6.6130 C.2     1  UNL1        0.0340
      6  C         18.9740  -22.8900   -6.8640 C.2     1  UNL1        0.0440
      7  C         17.7860  -22.9840   -6.1210 C.2     1  UNL1        0.1020
      8  C         17.4930  -22.0340   -5.1400 C.2     1  UNL1        0.0570
      9  C         18.3910  -20.9830   -4.9140 C.2     1  UNL1        0.0260
     10 CL         16.0870  -22.0740   -4.1390 Cl      1  UNL1       -0.0830
     11  C         19.5780  -20.8870   -5.6470 C.2     1  UNL1        0.0190
     12  S         16.6850  -24.3320   -6.4670 S.O2    1  UNL1        0.2640
     13  O         15.7010  -24.3900   -5.4050 O.2     1  UNL1       -0.2000
     14  O         17.4890  -25.4930   -6.7790 O.2     1  UNL1       -0.2000
     15  N         15.9090  -23.8610   -7.8900 N.pl3   1  UNL1       -0.2810
     16  H         15.1910  -24.5300   -8.1680 H       1  UNL1        0.1790
     17  C         16.6390  -23.1950   -8.9170 C.2     1  UNL1        0.0420
     18  C         16.2470  -21.9090   -9.2860 C.2     1  UNL1        0.0300
     19  C         16.9260  -21.2290  -10.3010 C.2     1  UNL1        0.0090
     20  C         18.0060  -21.8310  -10.9560 C.2     1  UNL1       -0.0620
     21  C         18.7650  -21.0920  -12.0190 C.3     1  UNL1        0.0480
     22  C         18.4160  -23.1090  -10.5570 C.2     1  UNL1        0.0090
     23  C         17.7370  -23.7860   -9.5410 C.2     1  UNL1        0.0300
     24  C         22.2210  -22.7960   -9.4360 C.2     1  UNL1        0.0350
     25  C         23.4910  -23.2770   -9.1060 C.2     1  UNL1        0.0310
     26  C         24.4840  -23.3960  -10.0840 C.2     1  UNL1        0.0270
     27  C         24.1970  -23.0510  -11.4050 C.2     1  UNL1        0.0800
     28  C         22.9380  -22.5580  -11.7500 C.2     1  UNL1        0.0270
     29  C         21.9540  -22.4350  -10.7650 C.2     1  UNL1        0.0310
     30  S         25.4540  -23.1850  -12.6490 S.O2    1  UNL1        0.2630
     31  O         25.3450  -24.4750  -13.2950 O.2     1  UNL1       -0.2000
     32  O         26.7000  -22.7540  -12.0500 O.2     1  UNL1       -0.2000
     33  N         25.0230  -21.9670  -13.7450 N.pl3   1  UNL1       -0.2810
     34  H         25.3270  -21.0580  -13.3940 H       1  UNL1        0.1790
     35  C         25.2100  -22.2280  -15.1310 C.2     1  UNL1        0.0440
     36  C         26.3910  -21.8260  -15.7550 C.2     1  UNL1        0.0300
     37  C         26.5630  -22.0380  -17.1240 C.2     1  UNL1        0.0040
     38  C         25.5510  -22.6480  -17.8650 C.2     1  UNL1        0.0240
     39  C         24.3700  -23.0410  -17.2340 C.2     1  UNL1        0.0360
     40 CL         23.1230  -23.7890  -18.1520 Cl      1  UNL1       -0.0840
     41  C         24.1910  -22.8310  -15.8680 C.2     1  UNL1        0.0540
@<TRIPOS>BOND
     1    40    39    1
     2    38    39    2
     3    38    37    1
     4    39    41    1
     5    37    36    2
     6    41    35    2
     7    36    35    1
     8    35    33    1
     9    33    34    1
    10    33    30    1
    11    31    30    2
    12    30    32    2
    13    30    27    1
    14    21    20    1
    15    28    27    2
    16    28    29    1
    17    27    26    1
    18    20    22    2
    19    20    19    1
    20    29    24    2
    21    22    23    1
    22    19    18    2
    23    26    25    2
    24    23    17    2
    25    24    25    1
    26    24     3    1
    27    18    17    1
    28    17    15    1
    29     4     3    1
    30     3     1   am
    31    16    15    1
    32    15    12    1
    33     1     2    2
    34     1     5    1
    35     6     5    2
    36     6     7    1
    37    14    12    2
    38     5    11    1
    39    12     7    1
    40    12    13    2
    41     7     8    2
    42    11     9    2
    43     8     9    1
    44     8    10    1
