@<TRIPOS>MOLECULE
53647_out_ligand_01.pdbqt
 32 34 0 0 0
SMALL
GASTEIGER

@<TRIPOS>ATOM
      1  C         17.5040  -23.0360   -9.0880 C.2     1  UNL1        0.1020
      2  C         18.9000  -22.9660   -9.2700 C.2     1  UNL1        0.0440
      3  C         19.4480  -22.2150  -10.3130 C.2     1  UNL1        0.0340
      4  C         18.6030  -21.5240  -11.1830 C.2     1  UNL1        0.0190
      5  C         17.2200  -21.5740  -10.9880 C.2     1  UNL1        0.0260
      6  C         16.6600  -22.3230   -9.9400 C.2     1  UNL1        0.0570
      7 CL         14.9400  -22.2860   -9.8470 Cl      1  UNL1       -0.0830
      8  S         16.9460  -24.0540   -7.7410 S.O2    1  UNL1        0.2650
      9  O         15.8260  -24.8240   -8.2460 O.2     1  UNL1       -0.2000
     10  O         18.0530  -24.7270   -7.1050 O.2     1  UNL1       -0.2000
     11  N         16.2770  -22.9390   -6.6650 N.pl3   1  UNL1       -0.2800
     12  H         15.5720  -22.3480   -7.1030 H       1  UNL1        0.1790
     13  C         17.0610  -22.3950   -5.6060 C.2     1  UNL1        0.0490
     14  C         16.7550  -22.7110   -4.2710 C.2     1  UNL1       -0.0350
     15  C         17.5210  -22.1330   -3.2480 C.2     1  UNL1        0.0090
     16  C         15.6490  -23.6620   -3.9030 C.3     1  UNL1        0.0500
     17  C         18.5700  -21.2600   -3.5440 C.2     1  UNL1        0.0070
     18  C         18.8790  -20.9520   -4.8700 C.2     1  UNL1       -0.0600
     19  C         20.0310  -20.0510   -5.2010 C.3     1  UNL1        0.0480
     20  C         18.1310  -21.5440   -5.8950 C.2     1  UNL1        0.0370
     21  C         20.9220  -22.2330  -10.5050 C.2     1  UNL1        0.2560
     22  O         21.6240  -22.3810   -9.5130 O.2     1  UNL1       -0.2670
     23  N         21.3440  -22.0470  -11.8080 N.am    1  UNL1       -0.3230
     24  H         20.6390  -21.7900  -12.4870 H       1  UNL1        0.1690
     25  C         22.6710  -22.0820  -12.2870 C.2     1  UNL1        0.0360
     26  C         22.9420  -21.3790  -13.4670 C.2     1  UNL1        0.0310
     27  C         24.2280  -21.3700  -14.0130 C.2     1  UNL1        0.0230
     28  C         25.2610  -22.0690  -13.3870 C.2     1  UNL1        0.0320
     29 BR         26.9800  -22.0080  -14.1940 Br      1  UNL1       -0.0490
     30  C         25.0000  -22.7770  -12.2100 C.2     1  UNL1        0.0530
     31 CL         26.2190  -23.6760  -11.3800 Cl      1  UNL1       -0.0830
     32  C         23.7070  -22.7810  -11.6660 C.2     1  UNL1        0.0540
@<TRIPOS>BOND
     1    29    28    1
     2    27    26    1
     3    27    28    2
     4    26    25    2
     5    28    30    1
     6    24    23    1
     7    25    23    1
     8    25    32    1
     9    30    32    2
    10    30    31    1
    11    23    21   am
    12     4     5    2
    13     4     3    1
    14     5     6    1
    15    21     3    1
    16    21    22    2
    17     3     2    2
    18     6     7    1
    19     6     1    2
    20     2     1    1
    21     1     8    1
    22     9     8    2
    23     8    10    2
    24     8    11    1
    25    12    11    1
    26    11    13    1
    27    20    13    2
    28    20    18    1
    29    13    14    1
    30    19    18    1
    31    18    17    2
    32    14    16    1
    33    14    15    2
    34    17    15    1
