@<TRIPOS>MOLECULE
53643_out_ligand_01.pdbqt
 44 48 0 0 0
SMALL
GASTEIGER

@<TRIPOS>ATOM
      1  C         21.0880  -21.6670   -7.3530 C.2     1  UNL1        0.2560
      2  O         22.0040  -20.9340   -6.9970 O.2     1  UNL1       -0.2670
      3  N         21.0350  -22.4590   -8.4850 N.am    1  UNL1       -0.3230
      4  H         20.2320  -23.0660   -8.5880 H       1  UNL1        0.1690
      5  C         22.0220  -22.5890   -9.4860 C.2     1  UNL1        0.0350
      6  C         23.2900  -23.1350   -9.2670 C.2     1  UNL1        0.0310
      7  C         24.2100  -23.2370  -10.3160 C.2     1  UNL1        0.0270
      8  C         23.8680  -22.7700  -11.5870 C.2     1  UNL1        0.0800
      9  C         22.6010  -22.2350  -11.8250 C.2     1  UNL1        0.0270
     10  C         21.6860  -22.1430  -10.7730 C.2     1  UNL1        0.0310
     11  S         25.0330  -22.9150  -12.9220 S.O2    1  UNL1        0.2630
     12  O         26.2180  -22.1710  -12.5480 O.2     1  UNL1       -0.2000
     13  O         25.1150  -24.3120  -13.2940 O.2     1  UNL1       -0.2000
     14  N         24.3130  -22.0440  -14.1760 N.pl3   1  UNL1       -0.2800
     15  H         23.3110  -22.2030  -14.2400 H       1  UNL1        0.1790
     16  C         25.0420  -21.8300  -15.3870 C.2     1  UNL1        0.0530
     17  C         25.0220  -22.8410  -16.3520 C.2     1  UNL1        0.0310
     18  C         25.6840  -22.6690  -17.5620 C.2     1  UNL1        0.0030
     19  C         26.3660  -21.4800  -17.8140 C.2     1  UNL1        0.0120
     20  C         26.3960  -20.4470  -16.8640 C.2     1  UNL1       -0.0240
     21  C         27.0790  -19.2510  -17.1420 C.2     1  UNL1        0.0120
     22  C         25.7260  -20.6070  -15.6250 C.2     1  UNL1        0.0010
     23  C         27.1110  -18.2100  -16.2170 C.2     1  UNL1        0.0010
     24  C         26.4580  -18.3490  -14.9990 C.2     1  UNL1        0.0010
     25  C         25.7760  -19.5320  -14.7050 C.2     1  UNL1        0.0140
     26  C         19.8870  -21.7540   -6.4770 C.2     1  UNL1        0.0340
     27  C         19.0060  -22.8280   -6.6500 C.2     1  UNL1        0.0440
     28  C         17.8580  -22.9500   -5.8420 C.2     1  UNL1        0.1020
     29  C         17.5990  -21.9920   -4.8580 C.2     1  UNL1        0.0570
     30  C         18.5010  -20.9320   -4.6780 C.2     1  UNL1        0.0260
     31 CL         16.2480  -22.0090   -3.7890 Cl      1  UNL1       -0.0830
     32  C         19.6410  -20.8100   -5.4770 C.2     1  UNL1        0.0190
     33  S         16.7620  -24.3040   -6.1870 S.O2    1  UNL1        0.2640
     34  O         17.5220  -25.4940   -6.4960 O.2     1  UNL1       -0.2000
     35  O         15.7880  -24.3410   -5.1120 O.2     1  UNL1       -0.2000
     36  N         15.9060  -23.7630   -7.5280 N.pl3   1  UNL1       -0.2810
     37  H         15.0570  -24.2930   -7.7160 H       1  UNL1        0.1790
     38  C         16.5710  -23.1500   -8.6190 C.2     1  UNL1        0.0420
     39  C         16.0570  -21.9540   -9.1180 C.2     1  UNL1        0.0300
     40  C         16.6550  -21.3460  -10.2250 C.2     1  UNL1        0.0090
     41  C         17.7470  -21.9480  -10.8610 C.2     1  UNL1       -0.0620
     42  C         18.4240  -21.2860  -12.0260 C.3     1  UNL1        0.0480
     43  C         18.2300  -23.1700  -10.3750 C.2     1  UNL1        0.0090
     44  C         17.6320  -23.7790   -9.2680 C.2     1  UNL1        0.0300
@<TRIPOS>BOND
     1    19    18    2
     2    19    20    1
     3    18    17    1
     4    21    20    2
     5    21    23    1
     6    20    22    1
     7    17    16    2
     8    23    24    2
     9    22    16    1
    10    22    25    2
    11    16    14    1
    12    24    25    1
    13    15    14    1
    14    14    11    1
    15    13    11    2
    16    11    12    2
    17    11     8    1
    18    42    41    1
    19     9     8    2
    20     9    10    1
    21     8     7    1
    22    41    43    2
    23    41    40    1
    24    10     5    2
    25    43    44    1
    26     7     6    2
    27    40    39    2
    28     5     6    1
    29     5     3    1
    30    44    38    2
    31    39    38    1
    32    38    36    1
    33     4     3    1
    34     3     1   am
    35    37    36    1
    36    36    33    1
    37     1     2    2
    38     1    26    1
    39    27    26    2
    40    27    28    1
    41    34    33    2
    42    26    32    1
    43    33    28    1
    44    33    35    2
    45    28    29    2
    46    32    30    2
    47    29    30    1
    48    29    31    1
