@<TRIPOS>MOLECULE
53650_out_ligand_01.pdbqt
 35 37 0 0 0
SMALL
GASTEIGER

@<TRIPOS>ATOM
      1  C         19.5680  -22.5130   -9.8930 C.2     1  UNL1        0.0330
      2  C         18.8530  -21.7650  -10.8300 C.2     1  UNL1        0.0170
      3  C         17.4560  -21.7620  -10.7960 C.2     1  UNL1        0.0090
      4  C         16.7440  -22.4870   -9.8210 C.2     1  UNL1       -0.0390
      5  C         15.2430  -22.4290   -9.8640 C.3     1  UNL1        0.0500
      6  C         17.4780  -23.2210   -8.8700 C.2     1  UNL1        0.0860
      7  C         18.8830  -23.2380   -8.9170 C.2     1  UNL1        0.0420
      8  C         21.0550  -22.5070   -9.8650 C.2     1  UNL1        0.2560
      9  N         21.6540  -22.5730  -11.1100 N.am    1  UNL1       -0.3220
     10  H         21.0350  -22.7620  -11.8850 H       1  UNL1        0.1690
     11  O         21.6010  -22.4710   -8.7690 O.2     1  UNL1       -0.2670
     12  C         23.0370  -22.5030  -11.4120 C.2     1  UNL1        0.0420
     13  C         24.0080  -23.0330  -10.5490 C.2     1  UNL1        0.0300
     14  C         25.3690  -22.9510  -10.8470 C.2     1  UNL1        0.0030
     15  C         25.7830  -22.3500  -12.0270 C.2     1  UNL1        0.0180
     16  C         24.8300  -21.8290  -12.9100 C.2     1  UNL1        0.0470
     17  C         23.4490  -21.8620  -12.6080 C.2     1  UNL1       -0.0190
     18  C         22.4440  -21.2340  -13.5410 C.3     1  UNL1        0.0520
     19  C         25.3620  -21.2370  -14.1530 C.2     1  UNL1        0.2930
     20  O         25.5910  -20.0500  -14.2990 O.2     1  UNL1       -0.2590
     21  O         25.5970  -22.2350  -15.0400 O.3     1  UNL1       -0.3230
     22  C         24.8910  -22.0850  -16.2720 C.3     1  UNL1        0.2130
     23  S         16.7370  -24.1980   -7.5650 S.O2    1  UNL1        0.2630
     24  O         15.6520  -24.9930   -8.0960 O.2     1  UNL1       -0.2000
     25  O         17.8290  -24.8340   -6.8550 O.2     1  UNL1       -0.2000
     26  N         16.1160  -23.0360   -6.5150 N.pl3   1  UNL1       -0.2800
     27  H         15.1130  -23.1270   -6.3680 H       1  UNL1        0.1790
     28  C         16.9210  -22.4700   -5.4870 C.2     1  UNL1        0.0490
     29  C         17.9550  -21.5920   -5.8310 C.2     1  UNL1        0.0370
     30  C         18.7930  -21.0410   -4.8520 C.2     1  UNL1       -0.0600
     31  C         19.8850  -20.0920   -5.2450 C.3     1  UNL1        0.0480
     32  C         18.5630  -21.3540   -3.5120 C.2     1  UNL1        0.0070
     33  C         17.5200  -22.2130   -3.1590 C.2     1  UNL1        0.0090
     34  C         16.6780  -22.7710   -4.1360 C.2     1  UNL1       -0.0350
     35  C         15.5960  -23.7130   -3.6830 C.3     1  UNL1        0.0500
@<TRIPOS>BOND
     1    22    21    1
     2    21    19    1
     3    20    19    2
     4    19    16    1
     5    18    17    1
     6    16    17    1
     7    16    15    2
     8    17    12    2
     9    15    14    1
    10    10     9    1
    11    12     9    1
    12    12    13    1
    13     9     8   am
    14    14    13    2
    15     2     3    1
    16     2     1    2
    17     3     4    2
    18     1     8    1
    19     1     7    1
    20     8    11    2
    21     5     4    1
    22     4     6    1
    23     7     6    2
    24     6    23    1
    25    24    23    2
    26    23    25    2
    27    23    26    1
    28    26    27    1
    29    26    28    1
    30    29    28    2
    31    29    30    1
    32    28    34    1
    33    31    30    1
    34    30    32    2
    35    34    35    1
    36    34    33    2
    37    32    33    1
