@<TRIPOS>MOLECULE
53661_out_ligand_01.pdbqt
 31 33 0 0 0
SMALL
GASTEIGER

@<TRIPOS>ATOM
      1  C         19.6910  -22.1320   -6.6060 C.2     1  UNL1        0.2560
      2  O         19.6900  -21.1030   -5.9440 O.2     1  UNL1       -0.2670
      3  N         18.7790  -23.1720   -6.5590 N.am    1  UNL1       -0.3220
      4  H         19.0480  -24.0020   -7.0610 H       1  UNL1        0.1690
      5  C         17.5900  -23.2530   -5.7880 C.2     1  UNL1        0.0430
      6  C         17.5900  -23.8250   -4.5060 C.2     1  UNL1        0.0300
      7  C         16.4140  -23.9470   -3.7620 C.2     1  UNL1        0.0020
      8  C         15.2110  -23.5060   -4.2890 C.2     1  UNL1        0.0010
      9  C         15.1910  -22.9210   -5.5520 C.2     1  UNL1        0.0110
     10  C         16.3720  -22.7510   -6.3090 C.2     1  UNL1       -0.0030
     11  C         16.2560  -22.1120   -7.6880 C.3     1  UNL1        0.3130
     12  N         16.8000  -22.9290   -8.7950 N.3     1  UNL1        0.0930
     13  C         15.7200  -23.6050   -9.5220 C.3     1  UNL1        0.3100
     14  C         17.6860  -22.1850   -9.7140 C.3     1  UNL1        0.2230
     15  C         18.6450  -23.0350  -10.5650 C.3     1  UNL1        0.0360
     16  C         19.6380  -22.1630  -11.3410 C.3     1  UNL1        0.0020
     17  C         19.0970  -20.7760  -11.6900 C.3     1  UNL1        0.0000
     18  C         17.5870  -20.7870  -11.8750 C.3     1  UNL1        0.0020
     19  C         16.8520  -21.2380  -10.6090 C.3     1  UNL1        0.0360
     20  C         20.8230  -22.3480   -7.5530 C.2     1  UNL1        0.0320
     21  C         21.7650  -21.3220   -7.7150 C.2     1  UNL1        0.0180
     22  C         22.8360  -21.4870   -8.5950 C.2     1  UNL1        0.0260
     23  C         22.9590  -22.6790   -9.3150 C.2     1  UNL1        0.0790
     24  C         22.0090  -23.6960   -9.1840 C.2     1  UNL1        0.0260
     25  C         20.9390  -23.5300   -8.2990 C.2     1  UNL1        0.0180
     26  S         24.3030  -22.8660  -10.4620 S.O2    1  UNL1        0.2580
     27  O         23.8070  -23.5040  -11.6610 O.2     1  UNL1       -0.2010
     28  O         25.0240  -21.6130  -10.5030 O.2     1  UNL1       -0.2010
     29  N         25.2950  -23.9540   -9.6560 N.3     1  UNL1       -0.3200
     30  C         26.6740  -24.1040  -10.1020 C.3     1  UNL1        0.1590
     31  H         25.1030  -23.9880   -8.6550 H       1  UNL1        0.1710
@<TRIPOS>BOND
     1    18    17    1
     2    18    19    1
     3    17    16    1
     4    27    26    2
     5    16    15    1
     6    19    14    1
     7    15    14    1
     8    28    26    2
     9    26    29    1
    10    26    23    1
    11    30    29    1
    12    14    12    1
    13    29    31    1
    14    13    12    1
    15    23    24    2
    16    23    22    1
    17    24    25    1
    18    12    11    1
    19    22    21    2
    20    25    20    2
    21    21    20    1
    22    11    10    1
    23    20     1    1
    24     4     3    1
    25     1     3   am
    26     1     2    2
    27     3     5    1
    28    10     5    2
    29    10     9    1
    30     5     6    1
    31     9     8    2
    32     6     7    2
    33     8     7    1
