@<TRIPOS>MOLECULE
53674_out_ligand_01.pdbqt
 34 37 0 0 0
SMALL
GASTEIGER

@<TRIPOS>ATOM
      1  C         22.3690  -23.8880   -9.1680 C.3     1  UNL1        0.2800
      2  C         21.0060  -24.2810   -8.5810 C.2     1  UNL1        0.2460
      3  N         20.4020  -23.2380   -7.8960 N.am    1  UNL1       -0.3250
      4  H         20.8980  -22.3540   -7.9370 H       1  UNL1        0.1690
      5  O         20.5800  -25.4270   -8.6890 O.2     1  UNL1       -0.2710
      6  C         19.1740  -23.2470   -7.2100 C.2     1  UNL1        0.0340
      7  C         18.8940  -22.1440   -6.3910 C.2     1  UNL1        0.0310
      8  C         17.6950  -22.0720   -5.6760 C.2     1  UNL1        0.0270
      9  C         16.7680  -23.1080   -5.7830 C.2     1  UNL1        0.0740
     10  C         17.0390  -24.2220   -6.5800 C.2     1  UNL1        0.0270
     11  C         18.2400  -24.2840   -7.2950 C.2     1  UNL1        0.0310
     12  S         15.2500  -23.0250   -4.8740 S.O2    1  UNL1        0.2390
     13  O         14.3360  -22.1590   -5.5820 O.2     1  UNL1       -0.2060
     14  O         14.8920  -24.3600   -4.4570 O.2     1  UNL1       -0.2060
     15  N         15.7260  -22.1680   -3.5050 N.3     1  UNL1       -0.2250
     16  H         16.5690  -22.5410   -3.0690 H       1  UNL1        0.1360
     17  H         15.8330  -21.1830   -3.7550 H       1  UNL1        0.1360
     18  O         22.4700  -22.5330   -9.6010 O.2     1  UNL1       -0.3240
     19  C         23.4650  -22.3130  -10.5350 C.2     1  UNL1        0.1800
     20  N         24.7410  -22.6020  -10.2170 N.2     1  UNL1       -0.2170
     21  C         25.6800  -22.4130  -11.1540 C.2     1  UNL1        0.2370
     22  N         25.5020  -21.9740  -12.4020 N.2     1  UNL1       -0.2340
     23  C         24.2130  -21.7140  -12.6810 C.2     1  UNL1        0.1140
     24  S         23.7580  -21.1600  -14.2250 S.3     1  UNL1       -0.0800
     25  C         23.1360  -21.8530  -11.8170 C.2     1  UNL1        0.0640
     26  C         22.1090  -21.1000  -13.7810 C.2     1  UNL1        0.0650
     27  C         21.9020  -21.4940  -12.4720 C.2     1  UNL1       -0.0020
     28  C         20.5600  -21.5030  -11.9110 C.2     1  UNL1       -0.0240
     29  C         19.8410  -20.3060  -11.7900 C.2     1  UNL1        0.0150
     30  C         18.5550  -20.3130  -11.2450 C.2     1  UNL1        0.0430
     31  C         17.9950  -21.5140  -10.8250 C.2     1  UNL1        0.1160
     32  F         16.7640  -21.5190  -10.3010 F       1  UNL1       -0.2060
     33  C         18.6950  -22.7100  -10.9410 C.2     1  UNL1        0.0430
     34  C         19.9810  -22.7070  -11.4850 C.2     1  UNL1        0.0150
@<TRIPOS>BOND
     1    24    26    1
     2    24    23    1
     3    26    27    2
     4    23    22    1
     5    23    25    2
     6    27    28    1
     7    27    25    1
     8    22    21    2
     9    28    29    2
    10    28    34    1
    11    25    19    1
    12    29    30    1
    13    34    33    2
    14    30    31    2
    15    21    20    1
    16    33    31    1
    17    31    32    1
    18    19    20    2
    19    19    18    1
    20    18     1    1
    21     1     2    1
    22     5     2    2
    23     2     3   am
    24     4     3    1
    25     3     6    1
    26    11     6    2
    27    11    10    1
    28     6     7    1
    29    10     9    2
    30     7     8    2
    31     9     8    1
    32     9    12    1
    33    13    12    2
    34    12    14    2
    35    12    15    1
    36    17    15    1
    37    15    16    1
