@<TRIPOS>MOLECULE
53689_out_ligand_01.pdbqt
 35 38 0 0 0
SMALL
GASTEIGER

@<TRIPOS>ATOM
      1  C         19.5940  -22.2000   -9.5100 C.2     1  UNL1        0.0800
      2  C         19.7050  -22.2790   -8.1190 C.2     1  UNL1        0.0250
      3  C         20.9660  -22.2190   -7.5250 C.2     1  UNL1        0.0030
      4  C         22.1100  -22.0920   -8.3190 C.2     1  UNL1        0.0170
      5  C         21.9940  -22.0410   -9.7150 C.2     1  UNL1        0.0330
      6  C         20.7310  -22.0940  -10.3150 C.2     1  UNL1        0.0420
      7  C         23.1830  -21.8760  -10.5940 C.2     1  UNL1        0.2560
      8  O         24.1410  -21.2600  -10.1430 O.2     1  UNL1       -0.2670
      9  N         23.0530  -22.4210  -11.8560 N.am    1  UNL1       -0.3230
     10  H         22.1450  -22.7880  -12.1100 H       1  UNL1        0.1690
     11  C         24.0250  -22.4490  -12.8790 C.2     1  UNL1        0.0370
     12  C         25.2150  -23.1730  -12.8050 C.2     1  UNL1        0.0320
     13  C         26.1180  -23.1630  -13.8750 C.2     1  UNL1        0.0420
     14  C         25.8400  -22.4370  -15.0320 C.2     1  UNL1        0.1020
     15  C         24.6730  -21.6670  -15.0940 C.2     1  UNL1        0.1040
     16  O         26.7780  -22.5480  -16.0270 O.2     1  UNL1       -0.3480
     17  C         23.7610  -21.7010  -14.0330 C.2     1  UNL1        0.0690
     18  O         24.3100  -20.8530  -16.1400 O.2     1  UNL1       -0.3480
     19  C         25.4190  -20.2110  -16.7720 C.3     1  UNL1        0.1780
     20  C         26.0350  -21.1040  -17.8350 C.3     1  UNL1        0.0530
     21  C         26.2180  -22.5280  -17.3410 C.3     1  UNL1        0.1780
     22  S         17.9940  -22.2360  -10.2840 S.O2    1  UNL1        0.2630
     23  O         18.1840  -22.4850  -11.6970 O.2     1  UNL1       -0.2000
     24  O         17.2680  -21.0750   -9.8160 O.2     1  UNL1       -0.2000
     25  N         17.2630  -23.5840   -9.5720 N.pl3   1  UNL1       -0.2810
     26  H         16.6910  -24.1000  -10.2390 H       1  UNL1        0.1790
     27  C         16.7990  -23.4890   -8.2310 C.2     1  UNL1        0.0420
     28  C         17.3430  -24.2920   -7.2290 C.2     1  UNL1        0.0310
     29  C         16.9060  -24.1620   -5.9070 C.2     1  UNL1        0.0170
     30  C         15.9200  -23.2230   -5.5820 C.2     1  UNL1        0.0090
     31  C         15.3790  -22.4190   -6.5950 C.2     1  UNL1        0.0170
     32  C         15.8150  -22.5530   -7.9170 C.2     1  UNL1        0.0310
     33  C         15.4230  -23.0390   -4.1860 C.2     1  UNL1        0.1550
     34  C         15.7410  -24.0890   -3.1530 C.3     1  UNL1        0.0960
     35  O         14.7700  -22.0380   -3.8970 O.2     1  UNL1       -0.2930
@<TRIPOS>BOND
     1    20    21    1
     2    20    19    1
     3    21    16    1
     4    19    18    1
     5    18    15    1
     6    16    14    1
     7    15    14    2
     8    15    17    1
     9    14    13    1
    10    17    11    2
    11    13    12    2
    12    11    12    1
    13    11     9    1
    14    10     9    1
    15     9     7   am
    16    23    22    2
    17     7     8    2
    18     7     5    1
    19     6     5    1
    20     6     1    2
    21    22    24    2
    22    22    25    1
    23    22     1    1
    24    26    25    1
    25     5     4    2
    26    25    27    1
    27     1     2    1
    28     4     3    1
    29    27    32    2
    30    27    28    1
    31     2     3    2
    32    32    31    1
    33    28    29    2
    34    31    30    2
    35    29    30    1
    36    30    33    1
    37    33    35    2
    38    33    34    1
