@<TRIPOS>MOLECULE
53700_out_ligand_01.pdbqt
 31 33 0 0 0
SMALL
GASTEIGER

@<TRIPOS>ATOM
      1  C         23.9230  -21.9510  -11.8010 C.2     1  UNL1       -0.0190
      2  C         23.3570  -21.5990  -13.0360 C.2     1  UNL1        0.0100
      3  C         21.9780  -21.4320  -13.1680 C.2     1  UNL1        0.0030
      4  C         21.1330  -21.6120  -12.0710 C.2     1  UNL1        0.0290
      5  C         21.6590  -21.9650  -10.8320 C.2     1  UNL1        0.0350
      6  C         23.0470  -22.1330  -10.7100 C.2     1  UNL1        0.0390
      7  N         20.8840  -22.1500   -9.6680 N.am    1  UNL1       -0.3230
      8  C         20.5660  -23.3490   -9.0570 C.2     1  UNL1        0.2560
      9  O         20.9660  -24.4640   -9.3630 O.2     1  UNL1       -0.2670
     10  H         20.5810  -21.3030   -9.2060 H       1  UNL1        0.1690
     11  C         19.6660  -23.2240   -7.8750 C.2     1  UNL1        0.0320
     12  C         18.8160  -24.2900   -7.5650 C.2     1  UNL1        0.0170
     13  C         17.9570  -24.2080   -6.4670 C.2     1  UNL1        0.0090
     14  C         17.9190  -23.0490   -5.6760 C.2     1  UNL1       -0.0440
     15  C         18.7680  -21.9790   -5.9990 C.2     1  UNL1        0.0090
     16  C         19.6330  -22.0620   -7.0950 C.2     1  UNL1        0.0170
     17  C         16.9920  -22.9510   -4.4920 C.3     1  UNL1        0.1780
     18  S         15.3050  -22.6240   -4.9990 S.O2    1  UNL1        0.1440
     19  C         14.5010  -24.2120   -5.0230 C.3     1  UNL1        0.1610
     20  O         15.3590  -22.1590   -6.3740 O.2     1  UNL1       -0.2280
     21  O         14.6570  -21.8090   -3.9880 O.2     1  UNL1       -0.2280
     22  C         25.4230  -22.1600  -11.6200 C.3     1  UNL1        0.1390
     23  C         26.2200  -20.8820  -11.8870 C.3     1  UNL1        0.0540
     24  N         25.7740  -22.6980  -10.3180 N.am    1  UNL1       -0.3210
     25  C         26.3950  -23.9170  -10.3930 C.2     1  UNL1        0.3240
     26  H         25.6660  -22.2220   -9.4340 H       1  UNL1        0.1650
     27  O         26.8250  -24.5400   -9.4390 O.2     1  UNL1       -0.2470
     28  N         26.4670  -24.2900  -11.6880 N.am    1  UNL1       -0.2770
     29  C         25.9720  -23.3150  -12.4980 C.2     1  UNL1        0.2580
     30  H         26.9110  -25.1340  -12.0070 H       1  UNL1        0.1730
     31  O         25.9900  -23.3600  -13.7210 O.2     1  UNL1       -0.2700
@<TRIPOS>BOND
     1    31    29    2
     2     3     2    1
     3     3     4    2
     4     2     1    2
     5    29    28   am
     6    29    22    1
     7     4     5    1
     8    30    28    1
     9    23    22    1
    10     1    22    1
    11     1     6    1
    12    28    25   am
    13    22    24    1
    14     5     6    2
    15     5     7    1
    16    25    24   am
    17    25    27    2
    18    24    26    1
    19     7    10    1
    20     7     8   am
    21     9     8    2
    22     8    11    1
    23    11    12    2
    24    11    16    1
    25    12    13    1
    26    16    15    2
    27    13    14    2
    28    20    18    2
    29    15    14    1
    30    14    17    1
    31    19    18    1
    32    18    17    1
    33    18    21    2
