@<TRIPOS>MOLECULE
53737_out_ligand_01.pdbqt
 33 36 0 0 0
SMALL
GASTEIGER

@<TRIPOS>ATOM
      1  C         15.8810  -21.5350   -9.9840 C.3     1  UNL1        0.0500
      2  C         17.3270  -21.7690  -10.3120 C.2     1  UNL1       -0.0390
      3  C         17.8640  -21.1310  -11.4410 C.2     1  UNL1        0.0100
      4  C         19.1970  -21.3210  -11.8230 C.2     1  UNL1        0.0300
      5  C         20.0290  -22.1690  -11.0970 C.2     1  UNL1        0.0360
      6  C         19.5090  -22.8170   -9.9750 C.2     1  UNL1        0.0550
      7  C         18.1740  -22.6150   -9.5760 C.2     1  UNL1        0.0870
      8  N         21.3800  -22.4200  -11.4180 N.am    1  UNL1       -0.3230
      9  C         22.4990  -21.8510  -10.8380 C.2     1  UNL1        0.2560
     10  O         22.5220  -20.9920   -9.9650 O.2     1  UNL1       -0.2670
     11  H         21.5340  -23.0340  -12.2060 H       1  UNL1        0.1690
     12  C         23.8000  -22.3380  -11.3770 C.2     1  UNL1        0.0340
     13  C         25.0220  -21.8360  -10.8960 C.2     1  UNL1        0.0190
     14  C         26.2450  -22.2930  -11.4050 C.2     1  UNL1        0.0340
     15  C         26.1750  -23.2570  -12.4120 C.ar    1  UNL1        0.0760
     16  N         27.1210  -23.9240  -13.1400 N.ar    1  UNL1       -0.2800
     17  C         24.9820  -23.7580  -12.9170 C.ar    1  UNL1        0.1030
     18  N         26.5700  -24.7740  -14.0180 N.ar    1  UNL1        0.0030
     19  H         28.1310  -23.8550  -13.0970 H       1  UNL1        0.1840
     20  N         25.2520  -24.6800  -13.8920 N.ar    1  UNL1       -0.1580
     21  C         23.7650  -23.2940  -12.4040 C.2     1  UNL1        0.0520
     22  S         17.6210  -23.4890   -8.1150 S.O2    1  UNL1        0.2630
     23  O         18.6850  -24.3820   -7.7020 O.2     1  UNL1       -0.2000
     24  O         16.2900  -23.9970   -8.3620 O.2     1  UNL1       -0.2000
     25  N         17.4720  -22.2650   -6.9550 N.pl3   1  UNL1       -0.2780
     26  H         18.2980  -21.6670   -6.9440 H       1  UNL1        0.1790
     27  C         16.9430  -22.6120   -5.6720 C.2     1  UNL1        0.0810
     28  C         17.7760  -23.0570   -4.6470 C.2     1  UNL1        0.0330
     29  C         17.2360  -23.3460   -3.3900 C.2     1  UNL1        0.0020
     30  C         15.8670  -23.1870   -3.1570 C.2     1  UNL1        0.0030
     31  C         15.0320  -22.7440   -4.1830 C.2     1  UNL1        0.0440
     32  C         15.5750  -22.4610   -5.4320 C.2     1  UNL1        0.1430
     33  F         14.7710  -22.0300   -6.4150 F       1  UNL1       -0.2040
@<TRIPOS>BOND
     1    18    20   ar
     2    18    16   ar
     3    20    17   ar
     4    16    19    1
     5    16    15   ar
     6    17    15   ar
     7    17    21    1
     8    15    14    1
     9    21    12    2
    10    11     8    1
    11     4     3    1
    12     4     5    2
    13     3     2    2
    14     8     5    1
    15     8     9   am
    16    14    13    2
    17    12    13    1
    18    12     9    1
    19     5     6    1
    20     9    10    2
    21     2     1    1
    22     2     7    1
    23     6     7    2
    24     7    22    1
    25    24    22    2
    26    22    23    2
    27    22    25    1
    28    25    26    1
    29    25    27    1
    30    33    32    1
    31    27    32    2
    32    27    28    1
    33    32    31    1
    34    28    29    2
    35    31    30    2
    36    29    30    1
