@<TRIPOS>MOLECULE
53734_out_ligand_01.pdbqt
 30 32 0 0 0
SMALL
GASTEIGER

@<TRIPOS>ATOM
      1  C         17.4400  -22.3770  -10.3300 C.2     1  UNL1       -0.0400
      2  C         17.1890  -21.2500  -11.1280 C.2     1  UNL1        0.0090
      3  C         18.2420  -20.5440  -11.7120 C.2     1  UNL1        0.0020
      4  C         19.5580  -20.9640  -11.5200 C.2     1  UNL1        0.0170
      5  C         19.8270  -22.0870  -10.7260 C.2     1  UNL1        0.0320
      6  C         18.7680  -22.7890  -10.1340 C.2     1  UNL1        0.0260
      7  C         16.3020  -23.1800   -9.7540 C.3     1  UNL1        0.1610
      8  N         16.6700  -23.7390   -8.4720 N.am    1  UNL1       -0.3530
      9  C         15.9980  -23.4050   -7.3220 C.2     1  UNL1        0.2410
     10  O         15.2040  -22.4790   -7.1930 O.2     1  UNL1       -0.2690
     11  H         17.1760  -24.6210   -8.4820 H       1  UNL1        0.1630
     12  C         16.3520  -24.3020   -6.1920 C.2     1  UNL1        0.0750
     13  C         17.2490  -23.9670   -5.2570 C.2     1  UNL1        0.0170
     14  C         18.0590  -22.7500   -5.2840 C.2     1  UNL1       -0.0360
     15  C         17.9200  -21.7950   -4.2640 C.2     1  UNL1        0.0140
     16  C         18.6880  -20.6250   -4.2760 C.2     1  UNL1        0.0430
     17  C         19.5930  -20.4190   -5.3120 C.2     1  UNL1        0.1160
     18  F         20.3200  -19.2990   -5.3360 F       1  UNL1       -0.2060
     19  C         19.7420  -21.3540   -6.3320 C.2     1  UNL1        0.0430
     20  C         18.9760  -22.5230   -6.3190 C.2     1  UNL1        0.0140
     21  C         21.2160  -22.6180  -10.5730 C.2     1  UNL1        0.2560
     22  O         21.3790  -23.6380   -9.9070 O.2     1  UNL1       -0.2670
     23  N         22.1960  -21.8750  -11.2030 N.am    1  UNL1       -0.3230
     24  H         21.9200  -20.9660  -11.5580 H       1  UNL1        0.1690
     25  C         23.5590  -22.2060  -11.3600 C.2     1  UNL1        0.0350
     26  C         24.0270  -23.1900  -12.2330 C.2     1  UNL1        0.0290
     27  C         25.3910  -23.4440  -12.3450 C.2     1  UNL1        0.0020
     28  C         26.3030  -22.7140  -11.5890 C.2     1  UNL1        0.0000
     29  C         25.8520  -21.7270  -10.7230 C.2     1  UNL1        0.0020
     30  C         24.4860  -21.4720  -10.6110 C.2     1  UNL1        0.0290
@<TRIPOS>BOND
     1    27    26    1
     2    27    28    2
     3    26    25    2
     4     3     4    2
     5     3     2    1
     6    28    29    1
     7    24    23    1
     8     4     5    1
     9    25    23    1
    10    25    30    1
    11    23    21   am
    12     2     1    2
    13     5    21    1
    14     5     6    2
    15    29    30    2
    16    21    22    2
    17     1     6    1
    18     1     7    1
    19     7     8    1
    20    11     8    1
    21     8     9   am
    22     9    10    2
    23     9    12    1
    24    19    20    1
    25    19    17    2
    26    20    14    2
    27    12    13    2
    28    18    17    1
    29    17    16    1
    30    14    13    1
    31    14    15    1
    32    16    15    2
