@<TRIPOS>MOLECULE
53747_out_ligand_01.pdbqt
 33 35 0 0 0
SMALL
GASTEIGER

@<TRIPOS>ATOM
      1  C         17.0960  -21.1320  -11.2210 C.3     1  UNL1        0.0500
      2  C         17.4850  -22.0560  -10.0740 C.3     1  UNL1        0.2200
      3  O         16.4510  -23.0410   -9.9560 O.3     1  UNL1       -0.3030
      4  C         15.9230  -23.1780   -8.7220 C.2     1  UNL1        0.2830
      5  O         15.1920  -22.3740   -8.1660 O.2     1  UNL1       -0.2600
      6  C         16.2970  -24.4560   -8.0770 C.2     1  UNL1        0.0830
      7  C         16.6700  -24.7140   -6.8140 C.2     1  UNL1        0.0180
      8  C         16.7900  -23.7540   -5.7080 C.2     1  UNL1       -0.0250
      9  C         15.8440  -23.8270   -4.6750 C.2     1  UNL1        0.0120
     10  C         15.9050  -22.9460   -3.6000 C.2     1  UNL1        0.0020
     11  C         16.9030  -21.9760   -3.5540 C.2     1  UNL1        0.0120
     12  C         17.8550  -21.8690   -4.5810 C.2     1  UNL1       -0.0250
     13  C         18.8410  -20.8710   -4.5300 C.2     1  UNL1        0.0120
     14  C         17.8120  -22.7670   -5.6770 C.2     1  UNL1       -0.0160
     15  C         19.7840  -20.7410   -5.5490 C.2     1  UNL1        0.0010
     16  C         19.7620  -21.6170   -6.6270 C.2     1  UNL1        0.0010
     17  C         18.7900  -22.6200   -6.6880 C.2     1  UNL1        0.0130
     18  C         18.8500  -22.6950  -10.3790 C.2     1  UNL1        0.2510
     19  O         19.0600  -23.8850  -10.1540 O.2     1  UNL1       -0.2700
     20  N         19.7950  -21.7740  -10.8060 N.am    1  UNL1       -0.3250
     21  H         19.5070  -20.7990  -10.7910 H       1  UNL1        0.1690
     22  C         21.1230  -22.0410  -11.1830 C.2     1  UNL1        0.0360
     23  C         21.8920  -22.8280  -10.3150 C.2     1  UNL1        0.0290
     24  C         23.2170  -23.1500  -10.6200 C.2     1  UNL1        0.0040
     25  C         23.7930  -22.6830  -11.7980 C.2     1  UNL1        0.0250
     26  C         23.0330  -21.8870  -12.6570 C.2     1  UNL1        0.0760
     27  C         21.7060  -21.5550  -12.3530 C.2     1  UNL1        0.0540
     28  S         23.7460  -21.2730  -14.1570 S.O2    1  UNL1        0.2390
     29  O         25.0210  -20.6780  -13.8380 O.2     1  UNL1       -0.2060
     30  O         23.5950  -22.2830  -15.1810 O.2     1  UNL1       -0.2060
     31  N         22.6780  -20.0480  -14.5930 N.3     1  UNL1       -0.2250
     32  H         23.1990  -19.2800  -15.0170 H       1  UNL1        0.1360
     33  H         21.9010  -20.3610  -15.1730 H       1  UNL1        0.1360
@<TRIPOS>BOND
     1    30    28    2
     2    33    31    1
     3    32    31    1
     4    31    28    1
     5    28    29    2
     6    28    26    1
     7    26    27    1
     8    26    25    2
     9    27    22    2
    10    25    24    1
    11     1     2    1
    12    22    20    1
    13    22    23    1
    14    20    21    1
    15    20    18   am
    16    24    23    2
    17    18    19    2
    18    18     2    1
    19     2     3    1
    20     3     4    1
    21     4     5    2
    22     4     6    1
    23     6     7    2
    24     7     8    1
    25    17    16    2
    26    17    14    1
    27    16    15    1
    28     8    14    2
    29     8     9    1
    30    14    12    1
    31    15    13    2
    32     9    10    2
    33    12    13    1
    34    12    11    2
    35    10    11    1
