@<TRIPOS>MOLECULE
53766_out_ligand_01.pdbqt
 31 33 0 0 0
SMALL
GASTEIGER

@<TRIPOS>ATOM
      1  C         23.8280  -21.9870  -11.5600 C.2     1  UNL1       -0.0190
      2  C         23.3600  -21.6980  -12.8520 C.2     1  UNL1        0.0100
      3  C         21.9940  -21.5680  -13.1030 C.2     1  UNL1        0.0030
      4  C         21.0640  -21.7260  -12.0740 C.2     1  UNL1        0.0290
      5  C         21.4920  -22.0150  -10.7820 C.2     1  UNL1        0.0350
      6  C         22.8680  -22.1440  -10.5370 C.2     1  UNL1        0.0390
      7  N         20.6230  -22.2200   -9.6930 N.am    1  UNL1       -0.3230
      8  C         20.4810  -23.3720   -8.9440 C.2     1  UNL1        0.2560
      9  O         20.9940  -24.4640   -9.1630 O.2     1  UNL1       -0.2670
     10  H         20.0000  -21.4510   -9.4760 H       1  UNL1        0.1690
     11  C         19.5720  -23.2410   -7.7690 C.2     1  UNL1        0.0320
     12  C         19.5770  -22.0460   -7.0420 C.2     1  UNL1        0.0180
     13  C         18.7040  -21.8770   -5.9620 C.2     1  UNL1        0.0200
     14  C         17.8200  -22.9010   -5.5990 C.2     1  UNL1        0.0090
     15  C         17.8060  -24.0910   -6.3380 C.2     1  UNL1        0.0200
     16  C         18.6770  -24.2620   -7.4210 C.2     1  UNL1        0.0180
     17  S         16.6610  -22.6490   -4.2720 S.3     1  UNL1       -0.0160
     18  C         15.1470  -22.5230   -5.2230 C.3     1  UNL1        0.4480
     19  F         14.2680  -21.6830   -4.6210 F       1  UNL1       -0.1600
     20  F         15.3640  -22.0450   -6.4700 F       1  UNL1       -0.1600
     21  F         14.5340  -23.7240   -5.3470 F       1  UNL1       -0.1600
     22  C         25.3100  -22.1440  -11.2430 C.3     1  UNL1        0.1390
     23  C         26.0350  -20.8000  -11.1370 C.3     1  UNL1        0.0540
     24  N         25.5650  -22.9260  -10.0500 N.am    1  UNL1       -0.3210
     25  C         26.3160  -24.0460  -10.2990 C.2     1  UNL1        0.3240
     26  H         25.3370  -22.6560   -9.1050 H       1  UNL1        0.1650
     27  O         26.7270  -24.8170   -9.4480 O.2     1  UNL1       -0.2470
     28  N         26.5400  -24.1340  -11.6220 N.am    1  UNL1       -0.2770
     29  C         26.0390  -23.0490  -12.2690 C.2     1  UNL1        0.2580
     30  H         27.0990  -24.8480  -12.0600 H       1  UNL1        0.1730
     31  O         26.1810  -22.8340  -13.4670 O.2     1  UNL1       -0.2700
@<TRIPOS>BOND
     1    31    29    2
     2     3     2    1
     3     3     4    2
     4     2     1    2
     5    29    28   am
     6    29    22    1
     7     4     5    1
     8    30    28    1
     9    28    25   am
    10     1    22    1
    11     1     6    1
    12    22    23    1
    13    22    24    1
    14     5     6    2
    15     5     7    1
    16    25    24   am
    17    25    27    2
    18    24    26    1
    19     7    10    1
    20     7     8   am
    21     9     8    2
    22     8    11    1
    23    11    16    2
    24    11    12    1
    25    16    15    1
    26    12    13    2
    27    20    18    1
    28    15    14    2
    29    13    14    1
    30    14    17    1
    31    21    18    1
    32    18    19    1
    33    18    17    1
