@<TRIPOS>MOLECULE
53775_out_ligand_01.pdbqt
 32 35 0 0 0
SMALL
GASTEIGER

@<TRIPOS>ATOM
      1  C         22.5930  -22.3440  -10.8430 C.2     1  UNL1        0.0340
      2  C         23.7180  -22.8990  -10.2270 C.2     1  UNL1        0.0240
      3  C         24.9430  -22.9400  -10.9060 C.2     1  UNL1       -0.0490
      4  C         25.0610  -22.4100  -12.2120 C.2     1  UNL1       -0.0290
      5  C         23.9310  -21.8140  -12.8020 C.2     1  UNL1        0.0820
      6  C         22.7050  -21.7850  -12.1210 C.2     1  UNL1        0.0420
      7  C         26.4410  -22.4570  -12.8300 C.3     1  UNL1        0.0400
      8  C         27.1210  -23.8090  -12.5940 C.3     1  UNL1        0.0050
      9  C         26.9880  -24.3580  -11.1700 C.3     1  UNL1        0.0050
     10  C         26.1820  -23.4700  -10.2280 C.3     1  UNL1        0.0390
     11  C         21.2720  -22.2820  -10.1530 C.2     1  UNL1        0.2560
     12  N         21.2620  -22.7610   -8.8550 N.am    1  UNL1       -0.3220
     13  H         22.1080  -23.1960   -8.5110 H       1  UNL1        0.1690
     14  O         20.3080  -21.8590  -10.7750 O.2     1  UNL1       -0.2670
     15  C         20.1550  -22.7870   -7.9770 C.2     1  UNL1        0.0530
     16  C         19.2560  -23.8520   -8.1150 C.2     1  UNL1        0.0480
     17  C         18.1530  -23.8990   -7.2480 C.2     1  UNL1        0.0330
     18  C         17.0390  -24.7370   -7.0270 C.2     1  UNL1        0.1540
     19  C         18.0190  -22.8910   -6.3050 C.2     1  UNL1        0.1580
     20  N         16.2560  -24.3110   -6.0320 N.2     1  UNL1       -0.1820
     21  N         16.8750  -23.1800   -5.6050 N.pl3   1  UNL1       -0.2480
     22  N         18.8470  -21.8460   -6.1190 N.2     1  UNL1       -0.2390
     23  C         19.9000  -21.8400   -6.9810 C.2     1  UNL1        0.1480
     24  C         16.3170  -22.4020   -4.5060 C.3     1  UNL1        0.1040
     25  C         16.6520  -23.0300   -3.1530 C.3     1  UNL1        0.0340
     26  C         14.8110  -22.2050   -4.6690 C.3     1  UNL1        0.0340
     27  S         24.0000  -21.0340  -14.4050 S.O2    1  UNL1        0.2390
     28  O         23.9530  -22.0590  -15.4200 O.2     1  UNL1       -0.2060
     29  O         25.0260  -20.0180  -14.3840 O.2     1  UNL1       -0.2060
     30  N         22.5530  -20.1680  -14.4370 N.3     1  UNL1       -0.2250
     31  H         22.2690  -19.8890  -15.3750 H       1  UNL1        0.1360
     32  H         21.8340  -20.7360  -13.9830 H       1  UNL1        0.1360
@<TRIPOS>BOND
     1    28    27    2
     2    31    30    1
     3    30    27    1
     4    30    32    1
     5    27    29    2
     6    27     5    1
     7     7     8    1
     8     7     4    1
     9     5     4    2
    10     5     6    1
    11     8     9    1
    12     4     3    1
    13     6     1    2
    14     9    10    1
    15     3    10    1
    16     3     2    2
    17     1     2    1
    18     1    11    1
    19    14    11    2
    20    11    12   am
    21    12    13    1
    22    12    15    1
    23    16    15    2
    24    16    17    1
    25    15    23    1
    26    17    18    1
    27    17    19    2
    28    18    20    2
    29    23    22    2
    30    19    22    1
    31    19    21    1
    32    20    21    1
    33    21    24    1
    34    26    24    1
    35    24    25    1
