@<TRIPOS>MOLECULE
53792_out_ligand_01.pdbqt
 35 39 0 0 0
SMALL
GASTEIGER

@<TRIPOS>ATOM
      1  N         24.8280  -21.5010  -14.3470 N.am    1  UNL1       -0.2430
      2  C         25.6180  -22.1000  -13.3890 C.2     1  UNL1        0.2660
      3  O         26.8100  -22.3450  -13.3490 O.2     1  UNL1       -0.2670
      4  C         24.7640  -22.3610  -12.2350 C.2     1  UNL1        0.0480
      5  C         25.0580  -22.9620  -11.0240 C.2     1  UNL1        0.0190
      6  C         24.0280  -23.0520  -10.0800 C.2     1  UNL1        0.0180
      7  C         22.7380  -22.5460  -10.3710 C.2     1  UNL1        0.0330
      8  C         22.4770  -21.9200  -11.6000 C.2     1  UNL1        0.0350
      9  C         23.5140  -21.8510  -12.5110 C.2     1  UNL1        0.0490
     10  C         23.5590  -21.2770  -13.8520 C.2     1  UNL1        0.2660
     11  O         22.5800  -20.7490  -14.3490 O.2     1  UNL1       -0.2670
     12  C         21.6350  -22.6170   -9.3720 C.2     1  UNL1        0.2560
     13  O         21.8820  -22.2700   -8.2240 O.2     1  UNL1       -0.2670
     14  N         20.4200  -23.0460   -9.8740 N.am    1  UNL1       -0.3230
     15  H         20.3500  -23.1760  -10.8740 H       1  UNL1        0.1690
     16  C         19.2210  -23.2420   -9.1560 C.2     1  UNL1        0.0350
     17  C         18.0020  -22.6550   -9.4960 C.2     1  UNL1        0.0300
     18  C         16.8560  -22.8970   -8.7300 C.2     1  UNL1        0.0110
     19  C         16.9100  -23.7310   -7.6060 C.2     1  UNL1       -0.0380
     20  C         18.1360  -24.3110   -7.2600 C.2     1  UNL1        0.0110
     21  C         19.2790  -24.0700   -8.0290 C.2     1  UNL1        0.0300
     22  C         15.6750  -23.9890   -6.7780 C.3     1  UNL1        0.1890
     23  N         15.8410  -23.5340   -5.4040 N.pl3   1  UNL1       -0.2770
     24  C         16.0830  -22.2520   -4.9890 C.2     1  UNL1        0.1140
     25  C         16.1950  -22.3080   -3.6200 C.2     1  UNL1        0.0400
     26  C         16.0170  -23.6670   -3.3030 C.2     1  UNL1        0.1400
     27  N         15.8090  -24.4220   -4.3850 N.2     1  UNL1       -0.1850
     28  C         25.2860  -21.0390  -15.6150 C.2     1  UNL1        0.0520
     29  C         25.1700  -21.7880  -16.8070 C.2     1  UNL1       -0.0350
     30  C         25.7360  -21.2830  -17.9950 C.2     1  UNL1        0.0090
     31  C         24.4280  -23.0920  -16.9280 C.3     1  UNL1        0.0500
     32  C         26.3540  -20.0370  -18.0340 C.2     1  UNL1        0.0070
     33  C         26.4140  -19.2530  -16.8860 C.2     1  UNL1       -0.0600
     34  C         27.0910  -17.9150  -16.9050 C.3     1  UNL1        0.0480
     35  C         25.8900  -19.7660  -15.6900 C.2     1  UNL1        0.0370
@<TRIPOS>BOND
     1    32    30    2
     2    32    33    1
     3    30    29    1
     4    31    29    1
     5    34    33    1
     6    33    35    2
     7    29    28    2
     8    35    28    1
     9    28     1    1
    10    11    10    2
    11     1    10   am
    12     1     2   am
    13    10     9    1
    14     2     3    2
    15     2     4    1
    16     9     4    2
    17     9     8    1
    18     4     5    1
    19     8     7    2
    20     5     6    2
    21    15    14    1
    22     7     6    1
    23     7    12    1
    24    14    12   am
    25    14    16    1
    26    17    16    2
    27    17    18    1
    28    12    13    2
    29    16    21    1
    30    18    19    2
    31    21    20    2
    32    19    20    1
    33    19    22    1
    34    22    23    1
    35    23    24    1
    36    23    27    1
    37    24    25    2
    38    27    26    2
    39    25    26    1
