@<TRIPOS>MOLECULE
53798_out_ligand_01.pdbqt
 33 36 0 0 0
SMALL
GASTEIGER

@<TRIPOS>ATOM
      1  C         20.8990  -22.3150  -10.2860 C.2     1  UNL1        0.0320
      2  C         20.0280  -21.4580  -10.9710 C.2     1  UNL1        0.0180
      3  C         18.6520  -21.7040  -10.9530 C.2     1  UNL1        0.0120
      4  C         18.1420  -22.8060  -10.2570 C.2     1  UNL1       -0.0360
      5  C         19.0170  -23.6750   -9.5970 C.2     1  UNL1        0.0120
      6  C         20.3930  -23.4340   -9.6160 C.2     1  UNL1        0.0180
      7  C         22.3680  -22.0720  -10.2540 C.2     1  UNL1        0.2560
      8  N         23.0100  -22.2610  -11.4640 N.am    1  UNL1       -0.3230
      9  H         22.4250  -22.4620  -12.2660 H       1  UNL1        0.1690
     10  O         22.8740  -21.7010   -9.2010 O.2     1  UNL1       -0.2670
     11  C         24.3880  -22.1210  -11.7360 C.2     1  UNL1        0.0350
     12  C         25.2400  -23.1890  -12.0170 C.2     1  UNL1        0.0290
     13  C         26.5990  -22.9680  -12.2670 C.2     1  UNL1        0.0030
     14  C         27.1190  -21.6740  -12.2440 C.2     1  UNL1        0.0170
     15  C         26.2720  -20.5930  -11.9820 C.2     1  UNL1        0.0340
     16  C         24.9130  -20.8220  -11.7220 C.2     1  UNL1        0.0460
     17  C         26.7610  -19.1880  -11.9480 C.2     1  UNL1        0.2490
     18  N         27.0070  -18.5680  -13.1410 N.am    1  UNL1       -0.3660
     19  H         27.2160  -17.5790  -13.0870 H       1  UNL1        0.1590
     20  H         26.6460  -18.9160  -14.0170 H       1  UNL1        0.1590
     21  O         26.9060  -18.5860  -10.8910 O.2     1  UNL1       -0.2680
     22  C         16.6980  -23.0400  -10.2200 C.2     1  UNL1        0.0130
     23  C         15.9310  -23.1790   -9.1250 C.2     1  UNL1        0.0320
     24  C         16.3070  -23.1230   -7.7000 C.2     1  UNL1        0.0570
     25  C         15.7820  -24.0550   -6.8140 C.2     1  UNL1        0.0320
     26  C         16.1470  -23.9860   -5.4720 C.2     1  UNL1        0.0160
     27  C         17.0290  -22.9900   -5.0430 C.2     1  UNL1       -0.0070
     28  C         17.4350  -22.8820   -3.7000 C.2     1  UNL1        0.0140
     29  C         17.5120  -22.0840   -6.0070 C.2     1  UNL1        0.0670
     30  C         18.3170  -21.8760   -3.3130 C.2     1  UNL1        0.0010
     31  C         18.7960  -20.9790   -4.2610 C.2     1  UNL1        0.0020
     32  C         18.3910  -21.0920   -5.5940 C.2     1  UNL1        0.0320
     33  N         17.1530  -22.1490   -7.3000 N.2     1  UNL1       -0.2480
@<TRIPOS>BOND
     1    20    18    1
     2    18    19    1
     3    18    17   am
     4    13    14    2
     5    13    12    1
     6     9     8    1
     7    14    15    1
     8    12    11    2
     9    15    17    1
    10    15    16    2
    11    17    21    2
    12    11    16    1
    13    11     8    1
    14     8     7   am
    15     2     3    1
    16     2     1    2
    17     3     4    2
    18     1     7    1
    19     1     6    1
    20     4    22    1
    21     4     5    1
    22     7    10    2
    23    22    23    2
    24     6     5    2
    25    23    24    1
    26    24    33    2
    27    24    25    1
    28    33    29    1
    29    25    26    2
    30    29    32    1
    31    29    27    2
    32    32    31    2
    33    26    27    1
    34    27    28    1
    35    31    30    1
    36    28    30    2
