@<TRIPOS>MOLECULE
53810_out_ligand_01.pdbqt
 34 36 0 0 0
SMALL
GASTEIGER

@<TRIPOS>ATOM
      1  C         18.7570  -21.0670  -11.1990 C.3     1  UNL1        0.0500
      2  C         20.1010  -21.7390  -11.2150 C.2     1  UNL1       -0.0390
      3  C         21.0180  -21.3500  -12.2070 C.2     1  UNL1        0.0100
      4  C         22.2920  -21.9180  -12.2790 C.2     1  UNL1        0.0250
      5  C         22.6760  -22.8870  -11.3590 C.2     1  UNL1        0.0240
      6  C         21.7940  -23.2800  -10.3560 C.2     1  UNL1        0.0490
      7  C         20.5040  -22.7220  -10.2920 C.2     1  UNL1        0.0820
      8  N         24.0030  -23.4360  -11.4050 N.pl3   1  UNL1       -0.1810
      9  H         24.0820  -24.2300  -10.7670 H       1  UNL1        0.1460
     10  S         25.2270  -22.3260  -10.9990 S.O2    1  UNL1        0.2480
     11  O         26.2880  -23.1050  -10.3980 O.2     1  UNL1       -0.2050
     12  O         24.6830  -21.1580  -10.3490 O.2     1  UNL1       -0.2050
     13  C         25.7870  -21.8230  -12.5990 C.2     1  UNL1        0.1110
     14  C         25.8560  -20.4530  -12.8960 C.2     1  UNL1        0.0270
     15  C         26.2490  -20.0290  -14.1700 C.2     1  UNL1        0.0050
     16  C         26.5670  -20.9690  -15.1510 C.2     1  UNL1        0.0450
     17  C         26.4880  -22.3280  -14.8590 C.2     1  UNL1        0.1500
     18  F         26.8160  -23.2090  -15.8140 F       1  UNL1       -0.2030
     19  C         26.0930  -22.7500  -13.5950 C.2     1  UNL1        0.1640
     20  N         26.0630  -24.1680  -13.3660 N.pl3   1  UNL1       -0.1110
     21  O         27.1040  -24.6800  -12.9360 O.2     1  UNL1       -0.5320
     22  O         25.0200  -24.7650  -13.6560 O.2     1  UNL1       -0.5320
     23  S         19.4600  -23.3340   -8.9770 S.O2    1  UNL1        0.2460
     24  O         19.9790  -24.5670   -8.4340 O.2     1  UNL1       -0.2060
     25  O         18.0950  -23.2500   -9.4560 O.2     1  UNL1       -0.2060
     26  N         19.6080  -22.1030   -7.8110 N.pl3   1  UNL1       -0.1780
     27  H         19.3810  -21.2140   -8.2640 H       1  UNL1        0.1460
     28  C         18.9390  -22.3250   -6.5660 C.2     1  UNL1        0.0610
     29  C         18.1490  -23.4590   -6.3820 C.2     1  UNL1        0.0270
     30  C         17.4510  -23.6300   -5.1840 C.2     1  UNL1        0.0020
     31  C         17.5340  -22.6660   -4.1760 C.2     1  UNL1        0.0030
     32  C         18.3190  -21.5270   -4.3610 C.2     1  UNL1        0.0440
     33  C         19.0120  -21.3620   -5.5550 C.2     1  UNL1        0.1380
     34  F         19.7740  -20.2720   -5.7270 F       1  UNL1       -0.2040
@<TRIPOS>BOND
     1    18    17    1
     2    16    17    2
     3    16    15    1
     4    17    19    1
     5    15    14    2
     6    22    20    2
     7    19    20    1
     8    19    13    2
     9    20    21    2
    10    14    13    1
    11    13    10    1
    12     4     3    1
    13     4     5    2
    14     3     2    2
    15     8     5    1
    16     8    10    1
    17     8     9    1
    18     5     6    1
    19     2     1    1
    20     2     7    1
    21    10    11    2
    22    10    12    2
    23     6     7    2
    24     7    23    1
    25    25    23    2
    26    23    24    2
    27    23    26    1
    28    27    26    1
    29    26    28    1
    30    28    29    2
    31    28    33    1
    32    29    30    1
    33    34    33    1
    34    33    32    2
    35    30    31    2
    36    32    31    1
