@<TRIPOS>MOLECULE
53819_out_ligand_01.pdbqt
 40 43 0 0 0
SMALL
GASTEIGER

@<TRIPOS>ATOM
      1  C         21.8060  -23.0560   -9.5650 C.2     1  UNL1        0.0950
      2  C         20.9970  -23.5530   -8.5690 C.2     1  UNL1        0.0570
      3  C         19.6290  -23.3030   -8.6650 C.2     1  UNL1        0.0470
      4  C         19.0970  -22.5440   -9.7340 C.2     1  UNL1        0.0080
      5  C         17.7340  -22.1690   -9.8700 C.2     1  UNL1        0.0150
      6  C         17.2940  -21.4290  -10.9650 C.2     1  UNL1        0.0010
      7  C         18.2070  -21.0400  -11.9330 C.2     1  UNL1        0.0020
      8  C         19.5530  -21.3820  -11.7930 C.2     1  UNL1        0.0320
      9  C         20.0200  -22.1160  -10.7090 C.2     1  UNL1        0.0690
     10  N         21.3400  -22.3730  -10.6310 N.2     1  UNL1       -0.2410
     11  S         23.5660  -23.2750   -9.4930 S.3     1  UNL1       -0.1010
     12  C         24.0690  -21.5800   -9.9370 C.3     1  UNL1        0.1840
     13  C         24.8540  -21.4540  -11.2380 C.2     1  UNL1        0.2310
     14  O         26.0850  -21.4810  -11.1940 O.2     1  UNL1       -0.2720
     15  N         24.1070  -21.2450  -12.3750 N.am    1  UNL1       -0.3270
     16  H         23.1100  -21.0900  -12.2190 H       1  UNL1        0.1690
     17  C         24.5530  -21.1570  -13.7090 C.2     1  UNL1        0.0350
     18  C         25.2470  -20.0660  -14.2370 C.2     1  UNL1        0.0290
     19  C         25.6670  -20.0680  -15.5730 C.2     1  UNL1        0.0030
     20  C         25.3970  -21.1590  -16.3920 C.2     1  UNL1        0.0160
     21  C         24.7040  -22.2650  -15.8830 C.2     1  UNL1        0.0500
     22  C         24.2930  -22.2570  -14.5370 C.2     1  UNL1        0.0450
     23  C         24.4200  -23.4680  -16.7430 C.3     1  UNL1        0.4170
     24  F         25.0590  -23.4120  -17.9470 F       1  UNL1       -0.1660
     25  F         23.0970  -23.6350  -17.0270 F       1  UNL1       -0.1660
     26  F         24.8260  -24.6370  -16.1620 F       1  UNL1       -0.1660
     27  C         18.7960  -23.8420   -7.5660 C.2     1  UNL1        0.2570
     28  O         18.5530  -25.0420   -7.5810 O.2     1  UNL1       -0.2670
     29  N         18.3430  -22.8920   -6.6660 N.am    1  UNL1       -0.3220
     30  H         18.6010  -21.9300   -6.8720 H       1  UNL1        0.1690
     31  C         17.5540  -23.1030   -5.5060 C.2     1  UNL1        0.0500
     32  C         18.1210  -23.5240   -4.2950 C.2     1  UNL1        0.0300
     33  C         17.3380  -23.7250   -3.1530 C.2     1  UNL1        0.0020
     34  C         15.9700  -23.5060   -3.1980 C.2     1  UNL1        0.0010
     35  C         15.3870  -23.0850   -4.3880 C.2     1  UNL1        0.0180
     36  C         16.1630  -22.8760   -5.5510 C.2     1  UNL1        0.0740
     37  C         15.4300  -22.4220   -6.7850 C.3     1  UNL1        0.4190
     38  F         14.1410  -22.0580   -6.5260 F       1  UNL1       -0.1660
     39  F         15.3620  -23.3890   -7.7370 F       1  UNL1       -0.1660
     40  F         15.9920  -21.3390   -7.4000 F       1  UNL1       -0.1660
@<TRIPOS>BOND
     1    24    23    1
     2    25    23    1
     3    23    26    1
     4    23    21    1
     5    20    21    2
     6    20    19    1
     7    21    22    1
     8    19    18    2
     9    22    17    2
    10    18    17    1
    11    17    15    1
    12    15    16    1
    13    15    13   am
    14     7     8    2
    15     7     6    1
    16     8     9    1
    17    13    14    2
    18    13    12    1
    19     6     5    2
    20     9    10    1
    21     9     4    2
    22    10     1    2
    23    12    11    1
    24     5     4    1
    25     4     3    1
    26     1    11    1
    27     1     2    1
    28     3     2    2
    29     3    27    1
    30    39    37    1
    31    28    27    2
    32    27    29   am
    33    40    37    1
    34    30    29    1
    35    37    38    1
    36    37    36    1
    37    29    31    1
    38    36    31    2
    39    36    35    1
    40    31    32    1
    41    35    34    2
    42    32    33    2
    43    34    33    1
