@<TRIPOS>MOLECULE
53823_out_ligand_01.pdbqt
 34 36 0 0 0
SMALL
GASTEIGER

@<TRIPOS>ATOM
      1  C         20.5500  -22.9170   -8.2320 C.3     1  UNL1        0.2780
      2  C         21.8600  -22.3970   -8.8440 C.2     1  UNL1        0.2460
      3  N         22.1610  -22.9870  -10.0600 N.am    1  UNL1       -0.3250
      4  H         21.5260  -23.7090  -10.3850 H       1  UNL1        0.1690
      5  O         22.5570  -21.5890   -8.2360 O.2     1  UNL1       -0.2710
      6  C         23.2440  -22.6940  -10.9100 C.2     1  UNL1        0.0360
      7  C         24.5210  -23.0710  -10.4720 C.2     1  UNL1        0.0290
      8  C         25.6540  -22.8120  -11.2490 C.2     1  UNL1        0.0040
      9  C         25.5230  -22.1740  -12.4780 C.2     1  UNL1        0.0250
     10  C         24.2520  -21.8070  -12.9220 C.2     1  UNL1        0.0760
     11  C         23.1120  -22.0710  -12.1510 C.2     1  UNL1        0.0540
     12  S         24.0570  -21.0030  -14.4870 S.O2    1  UNL1        0.2390
     13  O         25.0670  -19.9770  -14.6110 O.2     1  UNL1       -0.2060
     14  O         23.8510  -22.0180  -15.4930 O.2     1  UNL1       -0.2060
     15  N         22.5750  -20.2210  -14.2990 N.3     1  UNL1       -0.2250
     16  H         22.7510  -19.2300  -14.1260 H       1  UNL1        0.1360
     17  H         21.9430  -20.3620  -15.0860 H       1  UNL1        0.1360
     18  O         19.6500  -23.5780   -9.1200 O.2     1  UNL1       -0.3410
     19  C         18.8730  -22.7390   -9.8840 C.2     1  UNL1        0.0850
     20  C         19.3840  -22.1290  -11.0360 C.2     1  UNL1        0.0380
     21  C         18.5820  -21.2760  -11.7950 C.2     1  UNL1        0.0030
     22  C         17.2700  -21.0170  -11.4050 C.2     1  UNL1        0.0010
     23  C         16.7620  -21.6010  -10.2450 C.2     1  UNL1        0.0200
     24  C         17.5600  -22.4510   -9.4640 C.2     1  UNL1        0.0650
     25  C         16.9300  -23.0520   -8.2450 C.2     1  UNL1        0.2590
     26  O         16.2020  -24.0290   -8.3830 O.2     1  UNL1       -0.2670
     27  N         17.2460  -22.4410   -7.0480 N.am    1  UNL1       -0.3230
     28  H         17.8170  -21.6040   -7.1150 H       1  UNL1        0.1690
     29  C         16.8640  -22.8260   -5.7470 C.2     1  UNL1        0.0350
     30  C         15.5590  -22.5110   -5.3470 C.2     1  UNL1        0.0290
     31  C         15.1070  -22.8390   -4.0660 C.2     1  UNL1        0.0020
     32  C         15.9570  -23.4860   -3.1740 C.2     1  UNL1        0.0000
     33  C         17.2550  -23.8060   -3.5640 C.2     1  UNL1        0.0020
     34  C         17.7070  -23.4780   -4.8460 C.2     1  UNL1        0.0290
@<TRIPOS>BOND
     1    14    12    2
     2    17    15    1
     3    13    12    2
     4    12    15    1
     5    12    10    1
     6    15    16    1
     7    10     9    2
     8    10    11    1
     9     9     8    1
    10    11     6    2
    11    21    22    2
    12    21    20    1
    13    22    23    1
    14     8     7    2
    15    20    19    2
    16     6     7    1
    17     6     3    1
    18     4     3    1
    19    23    24    2
    20     3     2   am
    21    19    24    1
    22    19    18    1
    23    24    25    1
    24    18     1    1
    25     2     5    2
    26     2     1    1
    27    26    25    2
    28    25    27   am
    29    28    27    1
    30    27    29    1
    31    29    30    2
    32    29    34    1
    33    30    31    1
    34    34    33    2
    35    31    32    2
    36    33    32    1
