@<TRIPOS>MOLECULE
538_out_ligand_01.pdbqt
 33 35 0 0 0
SMALL
GASTEIGER

@<TRIPOS>ATOM
      1  C         19.5300  -22.4980  -10.2190 C.2     1  UNL1        0.0870
      2  C         20.8650  -22.9450  -10.2190 C.2     1  UNL1        0.0550
      3  C         21.7650  -22.4900  -11.1790 C.2     1  UNL1        0.0360
      4  C         21.3280  -21.5590  -12.1240 C.2     1  UNL1        0.0300
      5  C         20.0060  -21.1060  -12.1240 C.2     1  UNL1        0.0100
      6  C         19.0780  -21.5750  -11.1810 C.2     1  UNL1       -0.0390
      7  C         17.6760  -21.0410  -11.2380 C.3     1  UNL1        0.0500
      8  N         23.1060  -22.9050  -11.2630 N.am    1  UNL1       -0.3250
      9  C         24.2360  -22.2440  -10.8120 C.2     1  UNL1        0.2460
     10  O         24.2740  -21.1750  -10.2100 O.2     1  UNL1       -0.2710
     11  H         23.2810  -23.7950  -11.7210 H       1  UNL1        0.1690
     12  C         25.5240  -23.0230  -11.1030 C.3     1  UNL1        0.2780
     13  O         26.2410  -22.5570  -12.2390 O.2     1  UNL1       -0.3400
     14  C         25.7700  -22.8630  -13.4900 C.2     1  UNL1        0.0910
     15  C         25.7320  -24.1490  -14.0390 C.2     1  UNL1        0.0400
     16  C         25.2360  -24.3490  -15.3330 C.2     1  UNL1        0.0260
     17  C         24.7790  -23.2690  -16.0830 C.2     1  UNL1        0.0350
     18 CL         24.1720  -23.5280  -17.6710 Cl      1  UNL1       -0.0840
     19  C         24.8140  -21.9820  -15.5580 C.2     1  UNL1        0.0500
     20  C         25.3100  -21.7840  -14.2670 C.2     1  UNL1        0.0690
     21 CL         25.3550  -20.1630  -13.6600 Cl      1  UNL1       -0.0810
     22  S         18.4570  -23.1400   -8.9340 S.O2    1  UNL1        0.2630
     23  O         19.1770  -24.1670   -8.2100 O.2     1  UNL1       -0.2000
     24  O         17.1650  -23.4330   -9.5150 O.2     1  UNL1       -0.2000
     25  N         18.3040  -21.8340   -7.8730 N.pl3   1  UNL1       -0.2810
     26  H         18.0190  -20.9820   -8.3490 H       1  UNL1        0.1790
     27  C         17.8590  -22.0430   -6.5380 C.2     1  UNL1        0.0430
     28  C         18.6410  -21.5490   -5.4920 C.2     1  UNL1        0.0300
     29  C         18.2290  -21.7210   -4.1700 C.2     1  UNL1        0.0030
     30  C         17.0340  -22.3860   -3.8910 C.2     1  UNL1        0.0070
     31  C         16.2430  -22.8860   -4.9310 C.2     1  UNL1       -0.0600
     32  C         14.9720  -23.6270   -4.6400 C.3     1  UNL1        0.0480
     33  C         16.6770  -22.7300   -6.2560 C.2     1  UNL1        0.0370
@<TRIPOS>BOND
     1    18    17    1
     2    17    19    2
     3    17    16    1
     4    19    20    1
     5    16    15    2
     6    20    21    1
     7    20    14    2
     8    15    14    1
     9    14    13    1
    10    13    12    1
    11     4     5    2
    12     4     3    1
    13     5     6    1
    14    11     8    1
    15     8     3    1
    16     8     9   am
    17     7     6    1
    18     6     1    2
    19     3     2    2
    20    12     9    1
    21     9    10    2
    22     2     1    1
    23     1    22    1
    24    24    22    2
    25    22    23    2
    26    22    25    1
    27    26    25    1
    28    25    27    1
    29    27    33    2
    30    27    28    1
    31    33    31    1
    32    28    29    2
    33    31    32    1
    34    31    30    2
    35    29    30    1
