@<TRIPOS>MOLECULE
53909_out_ligand_01.pdbqt
 36 39 0 0 0
SMALL
GASTEIGER

@<TRIPOS>ATOM
      1  C         24.6880  -22.9840  -14.6160 C.2     1  UNL1        0.0410
      2  C         25.0010  -22.2010  -15.6670 C.2     1  UNL1        0.1130
      3  C         25.3220  -22.7720  -16.9290 C.1     1  UNL1        0.1050
      4  N         25.6050  -23.2790  -17.9340 N.1     1  UNL1       -0.1910
      5  C         24.9620  -20.7130  -15.5870 C.2     1  UNL1        0.2660
      6  O         23.9970  -20.1610  -15.0760 O.2     1  UNL1       -0.2670
      7  N         26.0770  -20.1110  -16.1320 N.am    1  UNL1       -0.3200
      8  H         26.7900  -20.7040  -16.5480 H       1  UNL1        0.1690
      9  C         26.3870  -18.7340  -16.1530 C.2     1  UNL1        0.0730
     10  C         26.3100  -17.9220  -17.2850 C.2     1  UNL1        0.0330
     11  C         26.6310  -16.5620  -17.1970 C.2     1  UNL1        0.0020
     12  C         27.0330  -16.0040  -15.9830 C.2     1  UNL1        0.0030
     13  C         27.1140  -16.8060  -14.8480 C.2     1  UNL1        0.0440
     14  C         26.7910  -18.1550  -14.9420 C.2     1  UNL1        0.1430
     15  F         26.8630  -18.9190  -13.8390 F       1  UNL1       -0.2040
     16  C         24.2650  -22.5060  -13.2890 C.2     1  UNL1       -0.0140
     17  C         22.8920  -22.4180  -13.0090 C.2     1  UNL1        0.0520
     18  C         22.4410  -21.9460  -11.7700 C.2     1  UNL1        0.1020
     19  C         23.3740  -21.5720  -10.7830 C.2     1  UNL1        0.1030
     20  C         24.7420  -21.6670  -11.0540 C.2     1  UNL1        0.0590
     21  C         25.1830  -22.1270  -12.2990 C.2     1  UNL1        0.0240
     22 BR         27.0600  -22.1830  -12.6020 Br      1  UNL1       -0.0500
     23  O         21.1190  -21.8190  -11.4260 O.2     1  UNL1       -0.3530
     24  C         20.3780  -20.7630  -12.0250 C.3     1  UNL1        0.2100
     25  O         22.8460  -21.1360   -9.5950 O.2     1  UNL1       -0.3440
     26  C         22.9600  -21.9850   -8.4550 C.3     1  UNL1        0.2140
     27  C         21.6150  -22.5980   -8.1360 C.2     1  UNL1       -0.0330
     28  C         21.2110  -23.8000   -8.7290 C.2     1  UNL1        0.0100
     29  C         19.9520  -24.3410   -8.4560 C.2     1  UNL1        0.0130
     30  C         19.0620  -23.6860   -7.5920 C.2     1  UNL1       -0.0260
     31  C         17.7940  -24.2180   -7.3070 C.2     1  UNL1        0.0120
     32  C         19.4510  -22.4650   -6.9960 C.2     1  UNL1       -0.0250
     33  C         16.9200  -23.5540   -6.4440 C.2     1  UNL1        0.0010
     34  C         17.3000  -22.3510   -5.8580 C.2     1  UNL1        0.0010
     35  C         18.5590  -21.8090   -6.1320 C.2     1  UNL1        0.0120
     36  C         20.7220  -21.9340   -7.2800 C.2     1  UNL1        0.0210
@<TRIPOS>BOND
     1     4     3    3
     2    10    11    1
     3    10     9    2
     4    11    12    2
     5     3     2    1
     6     8     7    1
     7     9     7    1
     8     9    14    1
     9     7     5   am
    10    12    13    1
    11     2     5    1
    12     2     1    2
    13     5     6    2
    14    14    13    2
    15    14    15    1
    16     1    16    1
    17    16    17    2
    18    16    21    1
    19    17    18    1
    20    22    21    1
    21    21    20    2
    22    24    23    1
    23    18    23    1
    24    18    19    2
    25    20    19    1
    26    19    25    1
    27    25    26    1
    28    28    29    1
    29    28    27    2
    30    29    30    2
    31    26    27    1
    32    27    36    1
    33    30    31    1
    34    30    32    1
    35    31    33    2
    36    36    32    2
    37    32    35    1
    38    33    34    1
    39    35    34    2
