@<TRIPOS>MOLECULE
53935_out_ligand_01.pdbqt
 35 38 0 0 0
SMALL
GASTEIGER

@<TRIPOS>ATOM
      1  N         27.0830  -20.4100  -10.9550 N.1     1  UNL1       -0.1910
      2  C         26.0520  -20.9180  -11.1190 C.1     1  UNL1        0.1050
      3  C         24.7800  -21.5470  -11.2410 C.2     1  UNL1        0.1130
      4  C         23.8720  -21.4280  -10.2500 C.2     1  UNL1        0.0400
      5  C         24.5150  -22.2690  -12.5200 C.2     1  UNL1        0.2660
      6  O         24.0610  -23.4070  -12.4870 O.2     1  UNL1       -0.2670
      7  N         24.8070  -21.5280  -13.6450 N.am    1  UNL1       -0.3200
      8  H         25.1400  -20.5750  -13.5230 H       1  UNL1        0.1690
      9  C         24.7530  -21.9490  -14.9920 C.2     1  UNL1        0.0730
     10  C         24.5120  -23.2590  -15.4040 C.2     1  UNL1        0.0330
     11  C         24.5020  -23.5760  -16.7690 C.2     1  UNL1        0.0020
     12  C         24.7330  -22.5890  -17.7280 C.2     1  UNL1        0.0030
     13  C         24.9790  -21.2770  -17.3270 C.2     1  UNL1        0.0440
     14  C         24.9840  -20.9720  -15.9700 C.2     1  UNL1        0.1430
     15  F         25.2270  -19.7060  -15.5900 F       1  UNL1       -0.2040
     16  C         22.4990  -21.9490  -10.2440 C.2     1  UNL1       -0.0320
     17  C         21.5170  -21.2820  -10.9840 C.2     1  UNL1        0.0330
     18  C         20.1990  -21.7490  -10.9920 C.2     1  UNL1        0.0460
     19 BR         18.9180  -20.7530  -11.9790 Br      1  UNL1       -0.0480
     20  C         19.8500  -22.9010  -10.2800 C.2     1  UNL1        0.1030
     21  C         20.8270  -23.5590   -9.5240 C.2     1  UNL1        0.0460
     22 BR         20.4230  -25.0710   -8.4480 Br      1  UNL1       -0.0480
     23  C         22.1490  -23.0960   -9.5210 C.2     1  UNL1        0.0330
     24  O         18.5470  -23.3290  -10.2850 O.2     1  UNL1       -0.3440
     25  C         17.6710  -22.3800   -9.6550 C.3     1  UNL1        0.2150
     26  C         17.1530  -22.9540   -8.3520 C.2     1  UNL1       -0.0230
     27  C         16.1390  -23.9310   -8.4170 C.2     1  UNL1        0.0100
     28  C         15.6170  -24.4960   -7.2580 C.2     1  UNL1        0.0020
     29  C         16.1020  -24.0970   -6.0160 C.2     1  UNL1        0.0120
     30  C         17.1110  -23.1250   -5.9120 C.2     1  UNL1       -0.0250
     31  C         17.5830  -22.7380   -4.6460 C.2     1  UNL1        0.0120
     32  C         17.6510  -22.5350   -7.0840 C.2     1  UNL1       -0.0180
     33  C         18.5860  -21.7760   -4.5160 C.2     1  UNL1        0.0010
     34  C         19.1230  -21.1860   -5.6530 C.2     1  UNL1        0.0010
     35  C         18.6600  -21.5580   -6.9190 C.2     1  UNL1        0.0130
@<TRIPOS>BOND
     1    12    13    2
     2    12    11    1
     3    13    14    1
     4    11    10    2
     5    14    15    1
     6    14     9    2
     7    10     9    1
     8     9     7    1
     9     7     8    1
    10     7     5   am
    11     5     6    2
    12     5     3    1
    13    19    18    1
    14     3     2    1
    15     3     4    2
    16     2     1    3
    17    18    17    1
    18    18    20    2
    19    17    16    2
    20    24    20    1
    21    24    25    1
    22    20    21    1
    23     4    16    1
    24    16    23    1
    25    25    26    1
    26    21    23    2
    27    21    22    1
    28    27    26    2
    29    27    28    1
    30    26    32    1
    31    28    29    2
    32    32    35    1
    33    32    30    2
    34    35    34    2
    35    29    30    1
    36    30    31    1
    37    34    33    1
    38    31    33    2
