@<TRIPOS>MOLECULE
53965_out_ligand_01.pdbqt
 37 39 0 0 0
SMALL
GASTEIGER

@<TRIPOS>ATOM
      1  C         16.4760  -22.5430   -5.6320 C.2     1  UNL1        0.1150
      2  C         16.0900  -22.4170   -4.2690 C.1     1  UNL1        0.1050
      3  N         15.7780  -22.3610   -3.1530 N.1     1  UNL1       -0.1910
      4  C         15.5450  -22.8030   -6.5670 C.2     1  UNL1        0.0650
      5  C         17.9170  -22.3390   -5.9360 C.2     1  UNL1        0.2660
      6  N         18.3530  -23.0940   -7.0090 N.am    1  UNL1       -0.3220
      7  H         17.6890  -23.7210   -7.4480 H       1  UNL1        0.1690
      8  O         18.5800  -21.5680   -5.2530 O.2     1  UNL1       -0.2670
      9  C         19.6540  -23.1230   -7.5580 C.2     1  UNL1        0.0350
     10  C         20.5670  -22.0730   -7.4580 C.2     1  UNL1        0.0300
     11  C         21.8390  -22.1830   -8.0330 C.2     1  UNL1        0.0090
     12  C         22.2170  -23.3410   -8.7200 C.2     1  UNL1       -0.0620
     13  C         23.5970  -23.4580   -9.2980 C.3     1  UNL1        0.0480
     14  C         21.3070  -24.3960   -8.8120 C.2     1  UNL1        0.0090
     15  C         20.0340  -24.2840   -8.2430 C.2     1  UNL1        0.0300
     16  C         15.7460  -22.9830   -7.9650 C.2     1  UNL1        0.0770
     17  C         15.4350  -24.0120   -8.8500 C.2     1  UNL1        0.0400
     18  C         15.8680  -23.6320  -10.1440 C.2     1  UNL1        0.0370
     19  C         16.4170  -22.3800  -10.0080 C.2     1  UNL1        0.0710
     20  O         16.3330  -21.9820   -8.7120 O.2     1  UNL1       -0.3130
     21  C         17.0440  -21.4300  -10.9580 C.3     1  UNL1        0.1880
     22  N         18.3850  -21.8740  -11.2300 N.am    1  UNL1       -0.3470
     23  C         19.4000  -21.0170  -11.5750 C.2     1  UNL1        0.3100
     24  O         19.3430  -19.7960  -11.6200 O.2     1  UNL1       -0.2620
     25  H         18.5890  -22.8670  -11.2940 H       1  UNL1        0.1630
     26  C         20.7220  -21.7340  -11.9260 C.2     1  UNL1        0.3130
     27  O         20.9350  -22.8380  -11.4430 O.2     1  UNL1       -0.2620
     28  N         21.5050  -20.9800  -12.7720 N.am    1  UNL1       -0.3190
     29  H         21.0920  -20.0880  -13.0380 H       1  UNL1        0.1690
     30  C         22.7740  -21.2910  -13.2880 C.2     1  UNL1        0.0350
     31  C         23.1840  -20.6070  -14.4330 C.2     1  UNL1        0.0300
     32  C         24.4370  -20.8540  -14.9980 C.2     1  UNL1        0.0090
     33  C         25.3080  -21.7920  -14.4300 C.2     1  UNL1       -0.0560
     34  C         26.6550  -22.0230  -15.0560 C.3     1  UNL1        0.0490
     35  C         24.9010  -22.4920  -13.2780 C.2     1  UNL1       -0.0540
     36  C         25.8010  -23.4980  -12.6110 C.3     1  UNL1        0.0490
     37  C         23.6370  -22.2310  -12.7170 C.2     1  UNL1        0.0370
@<TRIPOS>BOND
     1    34    33    1
     2    32    31    1
     3    32    33    2
     4    31    30    2
     5    33    35    1
     6    30    28    1
     7    30    37    1
     8    35    37    2
     9    35    36    1
    10    29    28    1
    11    28    26   am
    12    26    23    1
    13    26    27    2
    14    24    23    2
    15    23    22   am
    16    25    22    1
    17    22    21    1
    18    21    19    1
    19    18    19    2
    20    18    17    1
    21    19    20    1
    22    13    12    1
    23    17    16    2
    24    14    12    2
    25    14    15    1
    26    12    11    1
    27    20    16    1
    28    15     9    2
    29    11    10    2
    30    16     4    1
    31     9    10    1
    32     9     6    1
    33     7     6    1
    34     6     5   am
    35     4     1    2
    36     5     1    1
    37     5     8    2
    38     1     2    1
    39     2     3    3
