@<TRIPOS>MOLECULE
53962_out_ligand_01.pdbqt
 35 38 0 0 0
SMALL
GASTEIGER

@<TRIPOS>ATOM
      1  N         27.1170  -20.5190  -10.9680 N.1     1  UNL1       -0.1910
      2  C         26.0740  -20.9930  -11.1560 C.1     1  UNL1        0.1050
      3  C         24.7820  -21.5750  -11.3040 C.2     1  UNL1        0.1130
      4  C         23.8540  -21.4100  -10.3390 C.2     1  UNL1        0.0400
      5  C         24.5190  -22.2990  -12.5840 C.2     1  UNL1        0.2660
      6  O         24.1070  -23.4520  -12.5500 O.2     1  UNL1       -0.2670
      7  N         24.7780  -21.5460  -13.7080 N.am    1  UNL1       -0.3200
      8  H         25.0930  -20.5880  -13.5860 H       1  UNL1        0.1690
      9  C         24.7200  -21.9630  -15.0560 C.2     1  UNL1        0.0730
     10  C         24.4700  -23.2700  -15.4710 C.2     1  UNL1        0.0330
     11  C         24.4500  -23.5820  -16.8360 C.2     1  UNL1        0.0020
     12  C         24.6810  -22.5930  -17.7940 C.2     1  UNL1        0.0030
     13  C         24.9280  -21.2850  -17.3890 C.2     1  UNL1        0.0440
     14  C         24.9430  -20.9820  -16.0320 C.2     1  UNL1        0.1430
     15  F         25.1920  -19.7180  -15.6490 F       1  UNL1       -0.2040
     16  C         22.4590  -21.8720  -10.3630 C.2     1  UNL1       -0.0320
     17  C         21.4840  -21.2290  -11.1370 C.2     1  UNL1        0.0380
     18  C         20.1650  -21.6980  -11.1450 C.2     1  UNL1        0.0690
     19 CL         19.0310  -20.8990  -12.1730 Cl      1  UNL1       -0.0810
     20  C         19.7990  -22.7920  -10.3520 C.2     1  UNL1        0.1080
     21  C         20.7760  -23.4380   -9.5870 C.2     1  UNL1        0.0460
     22 BR         20.3690  -24.9600   -8.5290 Br      1  UNL1       -0.0480
     23  C         22.0950  -22.9730   -9.5810 C.2     1  UNL1        0.0330
     24  O         18.5210  -23.2910  -10.3650 O.2     1  UNL1       -0.3440
     25  C         17.5860  -22.3830   -9.7660 C.3     1  UNL1        0.2150
     26  C         17.0580  -22.9870   -8.4810 C.2     1  UNL1       -0.0230
     27  C         16.0220  -23.9350   -8.5740 C.2     1  UNL1        0.0100
     28  C         15.4970  -24.5310   -7.4320 C.2     1  UNL1        0.0020
     29  C         15.9980  -24.1880   -6.1790 C.2     1  UNL1        0.0120
     30  C         17.0230  -23.2400   -6.0470 C.2     1  UNL1       -0.0250
     31  C         17.5060  -22.8960   -4.7730 C.2     1  UNL1        0.0120
     32  C         17.5680  -22.6220   -7.2030 C.2     1  UNL1       -0.0180
     33  C         18.5170  -21.9490   -4.6190 C.2     1  UNL1        0.0010
     34  C         19.0590  -21.3320   -5.7370 C.2     1  UNL1        0.0010
     35  C         18.5930  -21.6650   -7.0110 C.2     1  UNL1        0.0130
@<TRIPOS>BOND
     1    12    13    2
     2    12    11    1
     3    13    14    1
     4    11    10    2
     5    14    15    1
     6    14     9    2
     7    10     9    1
     8     9     7    1
     9     7     8    1
    10     7     5   am
    11     5     6    2
    12     5     3    1
    13    19    18    1
    14     3     2    1
    15     3     4    2
    16     2     1    3
    17    18    17    1
    18    18    20    2
    19    17    16    2
    20    24    20    1
    21    24    25    1
    22    16     4    1
    23    16    23    1
    24    20    21    1
    25    25    26    1
    26    21    23    2
    27    21    22    1
    28    27    26    2
    29    27    28    1
    30    26    32    1
    31    28    29    2
    32    32    35    1
    33    32    30    2
    34    35    34    2
    35    29    30    1
    36    30    31    1
    37    34    33    1
    38    31    33    2
