@<TRIPOS>MOLECULE
53970_out_ligand_01.pdbqt
 35 37 0 0 0
SMALL
GASTEIGER

@<TRIPOS>ATOM
      1  C         16.5330  -22.5960   -5.6420 C.2     1  UNL1        0.1150
      2  C         16.1760  -22.5070   -4.2670 C.1     1  UNL1        0.1050
      3  N         15.8650  -22.3910   -3.1530 N.1     1  UNL1       -0.1910
      4  C         15.5990  -22.9010   -6.5600 C.2     1  UNL1        0.0650
      5  C         17.9590  -22.3490   -5.9670 C.2     1  UNL1        0.2660
      6  N         18.4030  -23.1210   -7.0270 N.am    1  UNL1       -0.3220
      7  H         17.7380  -23.7510   -7.4630 H       1  UNL1        0.1690
      8  O         18.6030  -21.5460   -5.3020 O.2     1  UNL1       -0.2670
      9  C         19.7040  -23.1550   -7.5730 C.2     1  UNL1        0.0350
     10  C         20.6200  -22.1060   -7.4820 C.2     1  UNL1        0.0300
     11  C         21.8980  -22.2280   -8.0450 C.2     1  UNL1        0.0090
     12  C         22.2820  -23.4010   -8.7020 C.2     1  UNL1       -0.0620
     13  C         23.6440  -23.5100   -9.3200 C.3     1  UNL1        0.0480
     14  C         21.3600  -24.4460   -8.8110 C.2     1  UNL1        0.0090
     15  C         20.0840  -24.3240   -8.2480 C.2     1  UNL1        0.0300
     16  C         15.7710  -23.0200   -7.9690 C.2     1  UNL1        0.0770
     17  C         15.4440  -24.0040   -8.8970 C.2     1  UNL1        0.0400
     18  C         15.8670  -23.5700  -10.1790 C.2     1  UNL1        0.0370
     19  C         16.4390  -22.3360   -9.9910 C.2     1  UNL1        0.0710
     20  O         16.4040  -22.0090   -8.6720 O.2     1  UNL1       -0.3130
     21  C         17.0560  -21.3470  -10.9070 C.3     1  UNL1        0.1880
     22  N         18.3700  -21.8180  -11.2700 N.am    1  UNL1       -0.3470
     23  C         19.3880  -20.9820  -11.6470 C.2     1  UNL1        0.3100
     24  O         19.3270  -19.7630  -11.7450 O.2     1  UNL1       -0.2620
     25  H         18.5650  -22.8140  -11.2460 H       1  UNL1        0.1630
     26  C         20.7100  -21.7100  -11.9730 C.2     1  UNL1        0.3130
     27  O         20.9030  -22.8200  -11.4960 O.2     1  UNL1       -0.2620
     28  N         21.5190  -20.9510  -12.7900 N.am    1  UNL1       -0.3190
     29  H         21.1330  -20.0400  -13.0310 H       1  UNL1        0.1690
     30  C         22.7900  -21.2770  -13.2930 C.2     1  UNL1        0.0350
     31  C         23.6790  -22.1440  -12.6550 C.2     1  UNL1        0.0290
     32  C         24.9270  -22.4250  -13.2250 C.2     1  UNL1        0.0020
     33  C         25.2920  -21.8380  -14.4350 C.2     1  UNL1        0.0000
     34  C         24.4110  -20.9720  -15.0780 C.2     1  UNL1        0.0020
     35  C         23.1660  -20.6930  -14.5090 C.2     1  UNL1        0.0290
@<TRIPOS>BOND
     1    34    35    1
     2    34    33    2
     3    35    30    2
     4    33    32    1
     5    30    28    1
     6    30    31    1
     7    32    31    2
     8    29    28    1
     9    28    26   am
    10    26    23    1
    11    26    27    2
    12    24    23    2
    13    23    22   am
    14    22    25    1
    15    22    21    1
    16    21    19    1
    17    18    19    2
    18    18    17    1
    19    19    20    1
    20    13    12    1
    21    17    16    2
    22    14    12    2
    23    14    15    1
    24    12    11    1
    25    20    16    1
    26    15     9    2
    27    11    10    2
    28    16     4    1
    29     9    10    1
    30     9     6    1
    31     7     6    1
    32     6     5   am
    33     4     1    2
    34     5     1    1
    35     5     8    2
    36     1     2    1
    37     2     3    3
