@<TRIPOS>MOLECULE
54140_out_ligand_01.pdbqt
 37 39 0 0 0
SMALL
GASTEIGER

@<TRIPOS>ATOM
      1  C         15.5480  -22.7360   -6.6510 C.2     1  UNL1        0.0650
      2  C         16.4430  -22.5130   -5.6720 C.2     1  UNL1        0.1150
      3  C         16.0090  -22.4020   -4.3220 C.1     1  UNL1        0.1050
      4  N         15.6440  -22.3590   -3.2220 N.1     1  UNL1       -0.1910
      5  C         17.9020  -22.3800   -5.8990 C.2     1  UNL1        0.2660
      6  O         18.5970  -21.8220   -5.0590 O.2     1  UNL1       -0.2670
      7  N         18.3090  -22.9460   -7.0950 N.am    1  UNL1       -0.3220
      8  H         17.5970  -23.3770   -7.6760 H       1  UNL1        0.1690
      9  C         19.6290  -23.0330   -7.5890 C.2     1  UNL1        0.0350
     10  C         20.5890  -22.0320   -7.4320 C.2     1  UNL1        0.0310
     11  C         21.8830  -22.1990   -7.9430 C.2     1  UNL1        0.0210
     12  C         22.2180  -23.3680   -8.6110 C.2     1  UNL1        0.0110
     13 BR         23.9650  -23.5940   -9.2940 Br      1  UNL1       -0.0510
     14  C         21.2730  -24.3760   -8.7770 C.2     1  UNL1        0.0210
     15  C         19.9820  -24.2060   -8.2680 C.2     1  UNL1        0.0310
     16  C         15.7980  -22.8810   -8.0450 C.2     1  UNL1        0.0770
     17  C         15.6580  -23.9330   -8.9430 C.2     1  UNL1        0.0400
     18  C         16.1040  -23.4940  -10.2170 C.2     1  UNL1        0.0370
     19  C         16.4930  -22.1900  -10.0570 C.2     1  UNL1        0.0710
     20  O         16.3010  -21.8140   -8.7640 O.2     1  UNL1       -0.3130
     21  C         17.0720  -21.1810  -10.9770 C.3     1  UNL1        0.1880
     22  N         18.3120  -21.6910  -11.5080 N.am    1  UNL1       -0.3470
     23  C         19.4240  -20.8980  -11.6550 C.2     1  UNL1        0.3100
     24  O         19.4670  -19.6790  -11.5660 O.2     1  UNL1       -0.2620
     25  H         18.4770  -22.6940  -11.5080 H       1  UNL1        0.1630
     26  C         20.7170  -21.6870  -11.9530 C.2     1  UNL1        0.3130
     27  N         21.5420  -21.0030  -12.8200 N.am    1  UNL1       -0.3190
     28  H         21.1700  -20.1090  -13.1360 H       1  UNL1        0.1690
     29  O         20.8750  -22.7780  -11.4230 O.2     1  UNL1       -0.2620
     30  C         22.8130  -21.3800  -13.2810 C.2     1  UNL1        0.0350
     31  C         23.6910  -22.1810  -12.5590 C.2     1  UNL1        0.0300
     32  C         24.9500  -22.4970  -13.0790 C.2     1  UNL1        0.0090
     33  C         25.3560  -22.0160  -14.3320 C.2     1  UNL1       -0.0560
     34  C         26.7170  -22.3890  -14.8580 C.3     1  UNL1        0.0490
     35  C         24.4690  -21.2200  -15.0790 C.2     1  UNL1       -0.0540
     36  C         23.2100  -20.9040  -14.5370 C.2     1  UNL1        0.0370
     37  C         24.8470  -20.6770  -16.4290 C.3     1  UNL1        0.0490
@<TRIPOS>BOND
     1    37    35    1
     2    35    36    1
     3    35    33    2
     4    34    33    1
     5    36    30    2
     6    33    32    1
     7    30    27    1
     8    30    31    1
     9    28    27    1
    10    32    31    2
    11    27    26   am
    12    26    23    1
    13    26    29    2
    14    23    24    2
    15    23    22   am
    16    25    22    1
    17    22    21    1
    18    21    19    1
    19    18    19    2
    20    18    17    1
    21    19    20    1
    22    13    12    1
    23    17    16    2
    24    14    12    2
    25    14    15    1
    26    20    16    1
    27    12    11    1
    28    15     9    2
    29    16     1    1
    30    11    10    2
    31     8     7    1
    32     9    10    1
    33     9     7    1
    34     7     5   am
    35     1     2    2
    36     5     2    1
    37     5     6    2
    38     2     3    1
    39     3     4    3
