@<TRIPOS>MOLECULE
54166_out_ligand_01.pdbqt
 37 39 0 0 0
SMALL
GASTEIGER

@<TRIPOS>ATOM
      1  N         22.2410  -23.3180  -10.2310 N.pl3   1  UNL1       -0.2630
      2  S         23.7600  -22.5520  -10.0260 S.O2    1  UNL1        0.2650
      3  O         23.5410  -21.1580   -9.6900 O.2     1  UNL1       -0.2000
      4  O         24.6060  -23.3960   -9.2100 O.2     1  UNL1       -0.2000
      5  C         24.4290  -22.5700  -11.6750 C.2     1  UNL1        0.0800
      6  C         24.9230  -21.3840  -12.2230 C.2     1  UNL1        0.0260
      7  C         25.4310  -21.3910  -13.5240 C.2     1  UNL1        0.0080
      8  C         25.4420  -22.5730  -14.2780 C.2     1  UNL1       -0.0620
      9  C         26.0360  -22.5850  -15.6580 C.3     1  UNL1        0.0480
     10  C         24.9660  -23.7610  -13.7040 C.2     1  UNL1        0.0080
     11  C         24.4600  -23.7630  -12.4020 C.2     1  UNL1        0.0260
     12  C         21.7180  -24.1250   -9.0970 C.3     1  UNL1        0.2450
     13  C         20.8450  -23.4080   -8.0760 C.2     1  UNL1        0.2410
     14  O         21.2560  -22.4170   -7.4820 O.2     1  UNL1       -0.2710
     15  N         19.5810  -23.9690   -7.9520 N.am    1  UNL1       -0.3260
     16  H         19.3630  -24.7650   -8.5410 H       1  UNL1        0.1690
     17  C         18.5400  -23.5560   -7.0930 C.2     1  UNL1        0.0340
     18  C         17.3350  -24.2740   -7.1550 C.2     1  UNL1        0.0300
     19  C         16.2440  -23.9230   -6.3470 C.2     1  UNL1        0.0190
     20  C         16.3430  -22.8410   -5.4660 C.2     1  UNL1        0.0320
     21  C         17.5480  -22.1350   -5.3920 C.2     1  UNL1        0.0190
     22  C         18.6380  -22.4890   -6.2000 C.2     1  UNL1        0.0300
     23  C         15.2190  -22.4050   -4.5890 C.2     1  UNL1        0.2490
     24  N         14.1150  -21.8640   -5.1840 N.am    1  UNL1       -0.3660
     25  H         14.1240  -21.5060   -6.1270 H       1  UNL1        0.1590
     26  H         13.4340  -21.4680   -4.5470 H       1  UNL1        0.1590
     27  O         15.2820  -22.4890   -3.3710 O.2     1  UNL1       -0.2680
     28  C         21.2550  -22.5200  -10.9140 C.2     1  UNL1        0.0460
     29  C         21.5950  -21.5660  -11.8750 C.2     1  UNL1        0.0300
     30  C         20.6070  -20.7710  -12.4550 C.2     1  UNL1        0.0030
     31  C         19.2780  -20.9080  -12.0590 C.2     1  UNL1        0.0160
     32  C         18.9220  -21.8370  -11.0740 C.2     1  UNL1        0.0500
     33  C         19.9260  -22.6310  -10.4950 C.2     1  UNL1        0.0460
     34  C         17.4940  -21.9710  -10.6090 C.3     1  UNL1        0.4170
     35  F         17.0570  -23.2620  -10.6580 F       1  UNL1       -0.1660
     36  F         17.2940  -21.5540   -9.3280 F       1  UNL1       -0.1660
     37  F         16.6210  -21.2540  -11.3730 F       1  UNL1       -0.1660
@<TRIPOS>BOND
     1     9     8    1
     2     8    10    2
     3     8     7    1
     4    10    11    1
     5     7     6    2
     6    30    31    2
     7    30    29    1
     8    11     5    2
     9     6     5    1
    10    31    32    1
    11    29    28    2
    12     5     2    1
    13    37    34    1
    14    32    34    1
    15    32    33    2
    16    28    33    1
    17    28     1    1
    18    35    34    1
    19    34    36    1
    20     1     2    1
    21     1    12    1
    22     2     3    2
    23     2     4    2
    24    12    13    1
    25    16    15    1
    26    13    15   am
    27    13    14    2
    28    15    17    1
    29    18    17    2
    30    18    19    1
    31    17    22    1
    32    19    20    2
    33    22    21    2
    34    25    24    1
    35    20    21    1
    36    20    23    1
    37    24    23   am
    38    24    26    1
    39    23    27    2
