@<TRIPOS>MOLECULE
54171_out_ligand_01.pdbqt
 35 37 0 0 0
SMALL
GASTEIGER

@<TRIPOS>ATOM
      1  C         15.6270  -22.8340   -6.5480 C.2     1  UNL1        0.0650
      2  C         16.5690  -22.5370   -5.6360 C.2     1  UNL1        0.1150
      3  C         16.2180  -22.4200   -4.2640 C.1     1  UNL1        0.1050
      4  N         15.9130  -22.2720   -3.1530 N.1     1  UNL1       -0.1910
      5  C         18.0050  -22.3520   -5.9700 C.2     1  UNL1        0.2660
      6  O         18.6890  -21.5880   -5.3010 O.2     1  UNL1       -0.2670
      7  N         18.4100  -23.1250   -7.0440 N.am    1  UNL1       -0.3220
      8  H         17.7190  -23.7190   -7.4880 H       1  UNL1        0.1690
      9  C         19.7030  -23.1820   -7.6120 C.2     1  UNL1        0.0350
     10  C         20.0560  -24.3630   -8.2810 C.2     1  UNL1        0.0290
     11  C         21.3170  -24.5010   -8.8670 C.2     1  UNL1        0.0020
     12  C         22.2390  -23.4600   -8.7930 C.2     1  UNL1        0.0000
     13  C         21.8980  -22.2820   -8.1340 C.2     1  UNL1        0.0020
     14  C         20.6360  -22.1440   -7.5440 C.2     1  UNL1        0.0290
     15  C         15.7990  -22.9540   -7.9570 C.2     1  UNL1        0.0770
     16  C         15.5510  -23.9830   -8.8600 C.2     1  UNL1        0.0400
     17  C         15.9450  -23.5500  -10.1490 C.2     1  UNL1        0.0370
     18  C         16.4230  -22.2730   -9.9910 C.2     1  UNL1        0.0710
     19  O         16.3510  -21.9160   -8.6790 O.2     1  UNL1       -0.3130
     20  C         16.9650  -21.2660  -10.9320 C.3     1  UNL1        0.1880
     21  N         18.2010  -21.7510  -11.4850 N.am    1  UNL1       -0.3470
     22  C         19.2930  -20.9300  -11.6160 C.2     1  UNL1        0.3100
     23  O         19.3010  -19.7150  -11.4690 O.2     1  UNL1       -0.2620
     24  H         18.3810  -22.7520  -11.4840 H       1  UNL1        0.1630
     25  C         20.6030  -21.6720  -11.9600 C.2     1  UNL1        0.3130
     26  N         21.4110  -20.9210  -12.7880 N.am    1  UNL1       -0.3190
     27  H         21.0220  -20.0160  -13.0460 H       1  UNL1        0.1690
     28  O         20.7900  -22.7850  -11.4880 O.2     1  UNL1       -0.2620
     29  C         22.6830  -21.2490  -13.2830 C.2     1  UNL1        0.0350
     30  C         23.5000  -22.0470  -12.4740 C.2     1  UNL1        0.0300
     31  C         24.7750  -22.4260  -12.9030 C.2     1  UNL1        0.0090
     32  C         25.2580  -22.0050  -14.1450 C.2     1  UNL1       -0.0620
     33  C         26.6060  -22.4460  -14.6320 C.3     1  UNL1        0.0480
     34  C         24.4380  -21.2170  -14.9560 C.2     1  UNL1        0.0090
     35  C         23.1620  -20.8370  -14.5270 C.2     1  UNL1        0.0300
@<TRIPOS>BOND
     1    34    35    1
     2    34    32    2
     3    33    32    1
     4    35    29    2
     5    32    31    1
     6    29    26    1
     7    29    30    1
     8    27    26    1
     9    31    30    2
    10    26    25   am
    11    25    22    1
    12    25    28    2
    13    22    21   am
    14    22    23    2
    15    21    24    1
    16    21    20    1
    17    20    18    1
    18    17    18    2
    19    17    16    1
    20    18    19    1
    21    11    12    2
    22    11    10    1
    23    16    15    2
    24    12    13    1
    25    19    15    1
    26    10     9    2
    27    13    14    2
    28    15     1    1
    29     9    14    1
    30     9     7    1
    31     8     7    1
    32     7     5   am
    33     1     2    2
    34     5     2    1
    35     5     6    2
    36     2     3    1
    37     3     4    3
