@<TRIPOS>MOLECULE
54191_out_ligand_01.pdbqt
 36 38 0 0 0
SMALL
GASTEIGER

@<TRIPOS>ATOM
      1  C         15.6390  -22.7160   -6.5700 C.2     1  UNL1        0.0650
      2  C         16.5770  -22.5260   -5.6260 C.2     1  UNL1        0.1150
      3  C         16.1920  -22.3820   -4.2640 C.1     1  UNL1        0.1050
      4  N         15.8640  -22.2990   -3.1540 N.1     1  UNL1       -0.1910
      5  C         18.0280  -22.4150   -5.9160 C.2     1  UNL1        0.2660
      6  O         18.7490  -21.7690   -5.1670 O.2     1  UNL1       -0.2670
      7  N         18.3950  -23.0820   -7.0700 N.am    1  UNL1       -0.3220
      8  H         17.6680  -23.5640   -7.5870 H       1  UNL1        0.1690
      9  C         19.6880  -23.1750   -7.6280 C.2     1  UNL1        0.0350
     10  C         20.0130  -24.3650   -8.2940 C.2     1  UNL1        0.0290
     11  C         21.2730  -24.5400   -8.8700 C.2     1  UNL1        0.0020
     12  C         22.2220  -23.5250   -8.7860 C.2     1  UNL1        0.0000
     13  C         21.9080  -22.3370   -8.1290 C.2     1  UNL1        0.0020
     14  C         20.6460  -22.1620   -7.5530 C.2     1  UNL1        0.0290
     15  C         15.8410  -22.8920   -7.9690 C.2     1  UNL1        0.0770
     16  C         15.5460  -23.9240   -8.8560 C.2     1  UNL1        0.0400
     17  C         15.9650  -23.5320  -10.1510 C.2     1  UNL1        0.0370
     18  C         16.4910  -22.2710  -10.0150 C.2     1  UNL1        0.0710
     19  O         16.4130  -21.8790   -8.7130 O.2     1  UNL1       -0.3130
     20  C         17.0880  -21.3040  -10.9660 C.3     1  UNL1        0.1880
     21  N         18.4010  -21.7730  -11.3270 N.am    1  UNL1       -0.3470
     22  C         19.4590  -20.9410  -11.5800 C.2     1  UNL1        0.3100
     23  O         19.4470  -19.7190  -11.5450 O.2     1  UNL1       -0.2620
     24  H         18.5710  -22.7730  -11.3770 H       1  UNL1        0.1630
     25  C         20.7630  -21.6870  -11.9360 C.2     1  UNL1        0.3130
     26  N         21.5700  -20.9400  -12.7660 N.am    1  UNL1       -0.3190
     27  H         21.1940  -20.0240  -13.0010 H       1  UNL1        0.1690
     28  O         20.9450  -22.8040  -11.4710 O.2     1  UNL1       -0.2620
     29  C         22.8150  -21.2940  -13.3130 C.2     1  UNL1        0.0350
     30  C         23.2020  -20.6570  -14.4930 C.2     1  UNL1        0.0300
     31  C         24.4200  -20.9640  -15.1010 C.2     1  UNL1        0.0090
     32  C         25.2790  -21.9240  -14.5450 C.2     1  UNL1       -0.0560
     33  C         26.5790  -22.2400  -15.2320 C.3     1  UNL1        0.0490
     34  C         24.9020  -22.5660  -13.3490 C.2     1  UNL1       -0.0540
     35  C         23.6700  -22.2440  -12.7470 C.2     1  UNL1        0.0370
     36  C         25.7740  -23.6170  -12.7130 C.3     1  UNL1        0.0490
@<TRIPOS>BOND
     1    33    32    1
     2    31    32    2
     3    31    30    1
     4    32    34    1
     5    30    29    2
     6    34    35    2
     7    34    36    1
     8    29    26    1
     9    29    35    1
    10    27    26    1
    11    26    25   am
    12    25    22    1
    13    25    28    2
    14    22    23    2
    15    22    21   am
    16    24    21    1
    17    21    20    1
    18    20    18    1
    19    17    18    2
    20    17    16    1
    21    18    19    1
    22    11    12    2
    23    11    10    1
    24    16    15    2
    25    12    13    1
    26    19    15    1
    27    10     9    2
    28    13    14    2
    29    15     1    1
    30     9    14    1
    31     9     7    1
    32     8     7    1
    33     7     5   am
    34     1     2    2
    35     5     2    1
    36     5     6    2
    37     2     3    1
    38     3     4    3
