@<TRIPOS>MOLECULE
54195_out_ligand_01.pdbqt
 31 34 0 0 0
SMALL
GASTEIGER

@<TRIPOS>ATOM
      1  C         21.4140  -22.2440  -10.6360 C.2     1  UNL1        0.0320
      2  C         21.1140  -23.3470   -9.8270 C.2     1  UNL1        0.0170
      3  C         19.7900  -23.6360   -9.4890 C.2     1  UNL1        0.0100
      4  C         18.7460  -22.8180   -9.9450 C.2     1  UNL1       -0.0300
      5  C         19.0540  -21.7080  -10.7470 C.2     1  UNL1        0.0100
      6  C         20.3780  -21.4150  -11.0850 C.2     1  UNL1        0.0170
      7  C         22.8430  -21.9740  -10.9670 C.2     1  UNL1        0.2560
      8  O         23.4980  -21.2880  -10.1910 O.2     1  UNL1       -0.2670
      9  N         23.2980  -22.5750  -12.1240 N.am    1  UNL1       -0.3220
     10  H         22.6680  -23.2270  -12.5880 H       1  UNL1        0.1690
     11  C         24.5770  -22.4840  -12.7260 C.2     1  UNL1        0.0510
     12  C         25.6910  -23.1440  -12.1910 C.2     1  UNL1        0.0300
     13  C         26.9510  -23.0450  -12.7910 C.2     1  UNL1        0.0020
     14  C         27.1210  -22.2810  -13.9380 C.2     1  UNL1        0.0010
     15  C         26.0290  -21.6120  -14.4850 C.2     1  UNL1        0.0200
     16  C         24.7550  -21.7020  -13.8900 C.2     1  UNL1        0.0640
     17  C         23.6770  -20.9360  -14.5790 C.2     1  UNL1        0.1780
     18  O         22.5800  -20.6820  -14.1140 O.2     1  UNL1       -0.6460
     19  O         23.9890  -20.5150  -15.8210 O.3     1  UNL1       -0.7730
     20  H         23.1040  -20.3780  -16.2270 H       1  UNL1        0.1670
     21  C         17.3070  -23.1350   -9.5870 C.3     1  UNL1        0.3110
     22  N         17.0020  -22.9460   -8.1590 N.3     1  UNL1        0.0970
     23  C         16.7790  -24.2460   -7.5080 C.3     1  UNL1        0.2770
     24  C         16.2680  -24.0550   -6.0740 C.3     1  UNL1        0.0690
     25  C         17.1060  -23.0810   -5.2890 C.2     1  UNL1       -0.0490
     26  C         17.0040  -23.0260   -3.8930 C.2     1  UNL1        0.0070
     27  C         17.9460  -22.1780   -5.9650 C.2     1  UNL1       -0.0240
     28  C         17.7530  -22.1010   -3.1670 C.2     1  UNL1        0.0010
     29  C         18.6020  -21.2180   -3.8310 C.2     1  UNL1        0.0010
     30  C         18.7010  -21.2580   -5.2220 C.2     1  UNL1        0.0090
     31  C         18.1000  -22.2330   -7.4720 C.3     1  UNL1        0.3110
@<TRIPOS>BOND
     1    20    19    1
     2    19    17    1
     3    17    18    2
     4    17    16    1
     5    15    14    2
     6    15    16    1
     7    14    13    1
     8    16    11    2
     9    13    12    2
    10    11    12    1
    11    11     9    1
    12    10     9    1
    13     9     7   am
    14     6     5    1
    15     6     1    2
    16     7     1    1
    17     7     8    2
    18     5     4    2
    19     1     2    1
    20     4    21    1
    21     4     3    1
    22     2     3    2
    23    21    22    1
    24    22    23    1
    25    22    31    1
    26    23    24    1
    27    31    27    1
    28    24    25    1
    29    27    25    2
    30    27    30    1
    31    25    26    1
    32    30    29    2
    33    26    28    2
    34    29    28    1
