@<TRIPOS>MOLECULE
54299_out_ligand_01.pdbqt
 35 38 0 0 0
SMALL
GASTEIGER

@<TRIPOS>ATOM
      1  N         23.4600  -23.1840  -11.4160 N.3     1  UNL1       -0.3110
      2  H         22.9970  -24.0690  -11.6020 H       1  UNL1        0.1720
      3  S         23.4020  -22.6440   -9.8410 S.O2    1  UNL1        0.2590
      4  O         23.8990  -21.2870   -9.8160 O.2     1  UNL1       -0.2010
      5  O         23.9830  -23.6860   -9.0250 O.2     1  UNL1       -0.2010
      6  C         21.6590  -22.6060   -9.5080 C.2     1  UNL1        0.0800
      7  C         20.7720  -22.1320  -10.4730 C.2     1  UNL1        0.0340
      8  C         19.3900  -22.0980  -10.2050 C.2     1  UNL1       -0.0300
      9  C         18.4750  -21.6480  -11.3170 C.3     1  UNL1        0.0420
     10  C         18.8970  -22.5210   -8.9480 C.2     1  UNL1        0.0430
     11  C         17.0620  -21.3700  -10.8360 C.3     1  UNL1        0.0250
     12  C         16.6260  -22.4690   -9.8840 C.3     1  UNL1        0.1320
     13  N         17.4870  -22.4890   -8.6990 N.am    1  UNL1       -0.3180
     14  C         16.8440  -22.5590   -7.4650 C.2     1  UNL1        0.2200
     15  C         17.5540  -22.0440   -6.2360 C.3     1  UNL1        0.1170
     16  O         15.6770  -22.9500   -7.3510 O.2     1  UNL1       -0.2730
     17  C         19.8140  -23.0190   -8.0100 C.2     1  UNL1        0.0320
     18  C         21.1880  -23.0480   -8.2750 C.2     1  UNL1        0.0270
     19  C         23.6290  -22.2330  -12.5050 C.3     1  UNL1        0.1700
     20  C         24.6350  -22.7480  -13.5050 C.2     1  UNL1       -0.0390
     21  C         25.2910  -23.9660  -13.3020 C.2     1  UNL1        0.0090
     22  C         26.2340  -24.4120  -14.2250 C.2     1  UNL1        0.0010
     23  C         26.5310  -23.6460  -15.3530 C.2     1  UNL1        0.0100
     24  C         25.8900  -22.4170  -15.5900 C.2     1  UNL1       -0.0210
     25  C         24.9460  -21.9810  -14.6420 C.2     1  UNL1        0.0190
     26  C         26.2510  -21.5850  -16.8180 C.3     1  UNL1        0.1390
     27  C         27.1200  -22.3670  -17.8040 C.3     1  UNL1        0.0540
     28  N         26.8870  -20.3230  -16.4870 N.am    1  UNL1       -0.3210
     29  C         26.1690  -19.2340  -16.9060 C.2     1  UNL1        0.3240
     30  H         27.7990  -20.2130  -16.0640 H       1  UNL1        0.1650
     31  O         26.5230  -18.0750  -16.7860 O.2     1  UNL1       -0.2470
     32  N         25.0310  -19.6620  -17.4900 N.am    1  UNL1       -0.2770
     33  C         25.0040  -21.0220  -17.5490 C.2     1  UNL1        0.2580
     34  H         24.3560  -19.0550  -17.9210 H       1  UNL1        0.1730
     35  O         24.1300  -21.6650  -18.1160 O.2     1  UNL1       -0.2700
@<TRIPOS>BOND
     1    35    33    2
     2    34    32    1
     3    27    26    1
     4    33    32   am
     5    33    26    1
     6    32    29   am
     7    29    31    2
     8    29    28   am
     9    26    28    1
    10    26    24    1
    11    28    30    1
    12    24    23    2
    13    24    25    1
    14    23    22    1
    15    25    20    2
    16    22    21    2
    17    20    21    1
    18    20    19    1
    19    19     1    1
    20     2     1    1
    21     1     3    1
    22     9    11    1
    23     9     8    1
    24    11    12    1
    25     7     8    1
    26     7     6    2
    27     8    10    2
    28    12    13    1
    29     3     4    2
    30     3     6    1
    31     3     5    2
    32     6    18    1
    33    10    13    1
    34    10    17    1
    35    13    14   am
    36    18    17    2
    37    14    16    2
    38    14    15    1
