@<TRIPOS>MOLECULE
54340_out_ligand_01.pdbqt
 35 37 0 0 0
SMALL
GASTEIGER

@<TRIPOS>ATOM
      1  N         21.9790  -21.9110  -10.1550 N.am    1  UNL1       -0.3260
      2  C         21.4300  -23.0210   -9.5310 C.2     1  UNL1        0.2400
      3  O         21.9500  -24.1350   -9.4750 O.2     1  UNL1       -0.2720
      4  H         21.3990  -21.0780  -10.1480 H       1  UNL1        0.1690
      5  C         20.0720  -22.7670   -8.8470 C.3     1  UNL1        0.1770
      6  S         19.4070  -24.2890   -8.0290 S.3     1  UNL1       -0.1110
      7  C         18.4270  -23.5660   -6.7230 C.2     1  UNL1        0.0040
      8  C         18.7930  -22.3560   -6.1170 C.2     1  UNL1        0.0220
      9  C         18.0120  -21.8160   -5.0900 C.2     1  UNL1        0.0470
     10  C         16.8640  -22.4820   -4.6790 C.2     1  UNL1        0.1540
     11  F         16.1210  -21.9640   -3.6920 F       1  UNL1       -0.2030
     12  C         16.4890  -23.6720   -5.2880 C.2     1  UNL1        0.1560
     13  F         15.3820  -24.3140   -4.8910 F       1  UNL1       -0.2030
     14  C         17.2580  -24.2150   -6.3140 C.2     1  UNL1        0.0640
     15  C         19.0570  -22.1500   -9.7980 C.2     1  UNL1       -0.0350
     16  C         19.4370  -21.3710  -10.9040 C.2     1  UNL1        0.0090
     17  C         18.4760  -20.8080  -11.7460 C.2     1  UNL1        0.0010
     18  C         17.1210  -21.0120  -11.4970 C.2     1  UNL1        0.0000
     19  C         16.7250  -21.7780  -10.4040 C.2     1  UNL1        0.0010
     20  C         17.6850  -22.3420   -9.5600 C.2     1  UNL1        0.0090
     21  C         23.1950  -21.8180  -10.8570 C.2     1  UNL1        0.0350
     22  C         24.4480  -21.7410  -10.2470 C.2     1  UNL1        0.0290
     23  C         25.6110  -21.6440  -11.0190 C.2     1  UNL1        0.0030
     24  C         25.5350  -21.6310  -12.4110 C.2     1  UNL1        0.0170
     25  C         24.2860  -21.7220  -13.0320 C.2     1  UNL1        0.0340
     26  C         23.1220  -21.8010  -12.2540 C.2     1  UNL1        0.0460
     27  C         24.1280  -21.7140  -14.5120 C.2     1  UNL1        0.2590
     28  N         25.1370  -22.3270  -15.2270 N.am    1  UNL1       -0.2800
     29  C         24.9280  -22.8980  -16.4530 C.2     1  UNL1        0.2980
     30  H         25.8470  -22.8150  -14.7070 H       1  UNL1        0.1730
     31  N         26.0750  -23.4450  -16.9570 N.am    1  UNL1       -0.2540
     32  O         23.8850  -22.9830  -17.0810 O.2     1  UNL1       -0.2540
     33  H         26.9030  -22.8700  -16.8820 H       1  UNL1        0.1280
     34  H         25.9290  -23.7930  -17.9010 H       1  UNL1        0.1280
     35  O         23.1700  -21.1190  -14.9890 O.2     1  UNL1       -0.2670
@<TRIPOS>BOND
     1    34    31    1
     2    32    29    2
     3    31    33    1
     4    31    29   am
     5    29    28   am
     6    28    30    1
     7    28    27   am
     8    35    27    2
     9    27    25    1
    10    25    24    2
    11    25    26    1
    12    24    23    1
    13    26    21    2
    14    17    18    2
    15    17    16    1
    16    18    19    1
    17    23    22    2
    18    16    15    2
    19    21    22    1
    20    21     1    1
    21    19    20    2
    22     1     4    1
    23     1     2   am
    24    15    20    1
    25    15     5    1
    26     2     3    2
    27     2     5    1
    28     5     6    1
    29     6     7    1
    30     7    14    2
    31     7     8    1
    32    14    12    1
    33     8     9    2
    34    12    13    1
    35    12    10    2
    36     9    10    1
    37    10    11    1
