@<TRIPOS>MOLECULE
54344_out_ligand_01.pdbqt
 35 38 0 0 0
SMALL
GASTEIGER

@<TRIPOS>ATOM
      1  C         18.7300  -22.4350  -10.6120 C.2     1  UNL1       -0.0340
      2  C         18.3290  -21.3650  -11.4220 C.2     1  UNL1        0.0090
      3  C         19.2710  -20.6390  -12.1500 C.2     1  UNL1        0.0030
      4  C         20.6280  -20.9620  -12.0750 C.2     1  UNL1        0.0290
      5  C         21.0580  -22.0130  -11.2680 C.2     1  UNL1        0.0350
      6  C         20.1050  -22.7360  -10.5370 C.2     1  UNL1        0.0380
      7  C         17.7540  -23.2420   -9.7700 C.3     1  UNL1        0.1120
      8  C         16.4880  -22.4780   -9.3750 C.3     1  UNL1        0.0370
      9  N         18.4580  -23.6870   -8.5770 N.pl3   1  UNL1       -0.3650
     10  H         19.1560  -24.4050   -8.7390 H       1  UNL1        0.1620
     11  C         18.4390  -23.0290   -7.3740 C.2     1  UNL1        0.1440
     12  C         19.5230  -22.0230   -7.1100 C.2     1  UNL1        0.0560
     13  C         19.5290  -21.3680   -5.9430 C.2     1  UNL1        0.0580
     14  C         18.5160  -21.6410   -5.0070 C.ar    1  UNL1        0.1750
     15  N         18.2530  -21.1590   -3.8130 N.ar    1  UNL1       -0.1280
     16  N         17.5730  -22.5850   -5.3490 N.ar    1  UNL1       -0.1880
     17  N         17.1240  -21.7940   -3.3490 N.ar    1  UNL1       -0.1230
     18  C         16.7260  -22.6480   -4.2770 C.ar    1  UNL1        0.2580
     19  N         17.4980  -23.2960   -6.5080 N.2     1  UNL1       -0.1460
     20  C         15.5750  -23.5620   -4.2730 C.3     1  UNL1        0.4540
     21  F         15.5220  -24.3310   -3.1530 F       1  UNL1       -0.1630
     22  F         15.5840  -24.4150   -5.3330 F       1  UNL1       -0.1630
     23  F         14.3870  -22.9020   -4.3310 F       1  UNL1       -0.1630
     24  N         22.4040  -22.4030  -11.1290 N.am    1  UNL1       -0.3270
     25  C         23.2990  -22.0250  -10.1410 C.2     1  UNL1        0.2260
     26  O         23.0710  -21.2770   -9.1940 O.2     1  UNL1       -0.2730
     27  H         22.7780  -22.9790  -11.8770 H       1  UNL1        0.1690
     28  C         24.6750  -22.6470  -10.3250 C.3     1  UNL1        0.1440
     29  C         25.5030  -21.9210  -11.3510 C.2     1  UNL1       -0.0110
     30  C         25.9930  -20.6320  -11.1040 C.2     1  UNL1        0.0110
     31  C         26.7440  -19.9670  -12.0760 C.2     1  UNL1        0.0010
     32  C         27.0050  -20.5760  -13.3040 C.2     1  UNL1        0.0030
     33  C         26.5100  -21.8520  -13.5650 C.2     1  UNL1        0.0430
     34  C         25.7640  -22.5090  -12.5920 C.2     1  UNL1        0.1230
     35  F         25.2740  -23.7300  -12.8600 F       1  UNL1       -0.2060
@<TRIPOS>BOND
     1    33    32    2
     2    33    34    1
     3    32    31    1
     4    35    34    1
     5    34    29    2
     6     3     4    2
     7     3     2    1
     8    31    30    2
     9     4     5    1
    10    27    24    1
    11     2     1    2
    12    29    30    1
    13    29    28    1
    14     5    24    1
    15     5     6    2
    16    24    25   am
    17     1     6    1
    18     1     7    1
    19    28    25    1
    20    25    26    2
    21     7     8    1
    22     7     9    1
    23    10     9    1
    24     9    11    1
    25    11    12    1
    26    11    19    2
    27    12    13    2
    28    19    16    1
    29    13    14    1
    30    16    14   ar
    31    16    18   ar
    32    22    20    1
    33    14    15   ar
    34    23    20    1
    35    18    20    1
    36    18    17   ar
    37    20    21    1
    38    15    17   ar
