@<TRIPOS>MOLECULE
54357_out_ligand_01.pdbqt
 34 37 0 0 0
SMALL
GASTEIGER

@<TRIPOS>ATOM
      1  C         20.6270  -22.0110  -11.0310 C.2     1  UNL1        0.2560
      2  O         20.5950  -21.4120  -12.0970 O.2     1  UNL1       -0.2670
      3  N         21.7470  -22.5170  -10.3940 N.am    1  UNL1       -0.3230
      4  H         21.5850  -23.0690   -9.5620 H       1  UNL1        0.1690
      5  C         19.3410  -22.2710  -10.3240 C.2     1  UNL1        0.0330
      6  C         18.1940  -22.6690  -11.0200 C.2     1  UNL1        0.0190
      7  C         16.9910  -22.9040  -10.3460 C.2     1  UNL1        0.0310
      8  C         16.9810  -22.7360   -8.9560 C.ar    1  UNL1        0.0430
      9  N         15.9540  -22.9030   -8.0500 N.ar    1  UNL1       -0.3580
     10  C         18.1160  -22.3550   -8.2330 C.ar    1  UNL1       -0.0000
     11  C         16.4040  -22.6410   -6.7870 C.ar    1  UNL1        0.0170
     12  H         15.0130  -23.1810   -8.2920 H       1  UNL1        0.1660
     13  C         15.5780  -22.6960   -5.5530 C.3     1  UNL1        0.0580
     14  C         17.7370  -22.2960   -6.8630 C.ar    1  UNL1       -0.0230
     15  C         16.4940  -22.6950   -4.3140 C.3     1  UNL1        0.0100
     16  C         17.6440  -21.6650   -4.4340 C.3     1  UNL1       -0.0140
     17  C         18.4740  -21.6270   -3.1530 C.3     1  UNL1        0.0100
     18  C         18.5510  -21.9670   -5.6560 C.3     1  UNL1        0.0450
     19  C         19.3190  -22.1280   -8.9280 C.2     1  UNL1        0.0310
     20  C         23.0900  -22.4190  -10.8150 C.2     1  UNL1        0.0350
     21  C         23.8770  -21.4370  -10.1970 C.2     1  UNL1        0.0290
     22  C         25.2170  -21.2600  -10.5490 C.2     1  UNL1        0.0030
     23  C         25.7870  -22.0640  -11.5330 C.2     1  UNL1        0.0170
     24  C         25.0070  -23.0410  -12.1620 C.2     1  UNL1        0.0340
     25  C         23.6670  -23.2280  -11.7970 C.2     1  UNL1        0.0460
     26  C         25.5890  -23.9180  -13.2120 C.2     1  UNL1        0.2590
     27  O         26.3840  -24.7860  -12.8790 O.2     1  UNL1       -0.2670
     28  N         25.2330  -23.5820  -14.5030 N.am    1  UNL1       -0.2800
     29  C         25.2190  -24.4830  -15.5330 C.2     1  UNL1        0.2980
     30  H         24.5300  -22.8680  -14.6110 H       1  UNL1        0.1730
     31  N         24.8050  -23.9040  -16.7020 N.am    1  UNL1       -0.2540
     32  O         25.5060  -25.6680  -15.5130 O.2     1  UNL1       -0.2540
     33  H         25.2210  -23.0070  -16.9150 H       1  UNL1        0.1280
     34  H         24.8810  -24.5600  -17.4740 H       1  UNL1        0.1280
@<TRIPOS>BOND
     1    34    31    1
     2    33    31    1
     3    31    29   am
     4    29    32    2
     5    29    28   am
     6    30    28    1
     7    28    26   am
     8    26    27    2
     9    26    24    1
    10    24    25    1
    11    24    23    2
    12     2     1    2
    13    25    20    2
    14    23    22    1
    15     1     3   am
    16     1     5    1
    17     6     7    1
    18     6     5    2
    19    20     3    1
    20    20    21    1
    21    22    21    2
    22     3     4    1
    23     7     8    2
    24     5    19    1
    25     8    10   ar
    26     8     9   ar
    27    19    10    2
    28    12     9    1
    29    10    14   ar
    30     9    11   ar
    31    14    11   ar
    32    14    18    1
    33    11    13    1
    34    18    16    1
    35    13    15    1
    36    16    15    1
    37    16    17    1
