@<TRIPOS>MOLECULE
54368_out_ligand_01.pdbqt
 35 39 0 0 0
SMALL
GASTEIGER

@<TRIPOS>ATOM
      1  C         22.1870  -21.5630  -12.7560 C.2     1  UNL1        0.0330
      2  C         22.6940  -21.9080  -11.5040 C.2     1  UNL1        0.0190
      3  C         21.8210  -22.1370  -10.4330 C.2     1  UNL1        0.0310
      4  C         20.4280  -22.0300  -10.5740 C.2     1  UNL1        0.0430
      5  C         19.9310  -21.6140  -11.8270 C.2     1  UNL1       -0.0300
      6  C         20.8090  -21.4010  -12.9090 C.2     1  UNL1        0.0260
      7  C         18.4590  -21.4170  -12.0640 C.3     1  UNL1        0.0420
      8  C         17.7880  -21.0110  -10.7700 C.3     1  UNL1        0.0250
      9  C         18.0900  -22.0490   -9.7070 C.3     1  UNL1        0.1330
     10  N         19.5240  -22.2880   -9.4750 N.am    1  UNL1       -0.3130
     11  C         19.9300  -23.0300   -8.3440 C.2     1  UNL1        0.2580
     12  O         20.9900  -23.6330   -8.1960 O.2     1  UNL1       -0.2670
     13  C         23.0720  -21.3190  -13.9310 C.2     1  UNL1        0.2560
     14  O         23.0570  -20.2110  -14.4540 O.2     1  UNL1       -0.2670
     15  N         23.8120  -22.4100  -14.3420 N.am    1  UNL1       -0.3190
     16  H         23.6340  -23.3040  -13.8950 H       1  UNL1        0.1690
     17  C         24.7560  -22.4650  -15.3950 C.2     1  UNL1        0.0880
     18  C         24.4280  -22.4010  -16.7470 C.2     1  UNL1        0.0350
     19  C         25.4390  -22.4510  -17.7080 C.2     1  UNL1        0.0220
     20  C         26.7540  -22.5570  -17.2860 C.2     1  UNL1        0.1190
     21  N         27.1210  -22.6190  -15.9900 N.2     1  UNL1       -0.2350
     22  C         26.1190  -22.5810  -15.0770 C.2     1  UNL1        0.1970
     23  O         26.4340  -22.5960  -13.7160 O.2     1  UNL1       -0.2900
     24  C         26.5240  -21.3850  -13.0720 C.2     1  UNL1        0.0770
     25  C         26.9830  -20.2320  -13.7140 C.2     1  UNL1        0.0370
     26  C         27.1210  -19.0460  -12.9920 C.2     1  UNL1        0.0030
     27  C         26.8170  -19.0170  -11.6310 C.2     1  UNL1        0.0000
     28  C         26.3810  -20.1760  -10.9870 C.2     1  UNL1        0.0030
     29  C         26.2430  -21.3640  -11.7060 C.2     1  UNL1        0.0370
     30  C         18.9900  -23.1310   -7.2080 C.2     1  UNL1        0.0320
     31  C         18.2350  -24.2960   -7.0470 C.2     1  UNL1        0.0170
     32  C         17.3620  -24.4030   -5.9650 C.2     1  UNL1        0.0010
     33  C         17.2580  -23.3570   -5.0440 C.2     1  UNL1        0.0000
     34  C         18.0320  -22.2040   -5.1960 C.2     1  UNL1        0.0010
     35  C         18.9080  -22.0900   -6.2760 C.2     1  UNL1        0.0170
@<TRIPOS>BOND
     1    19    20    2
     2    19    18    1
     3    20    21    1
     4    18    17    2
     5    21    22    2
     6    17    22    1
     7    17    15    1
     8    22    23    1
     9    14    13    2
    10    15    13   am
    11    15    16    1
    12    13     1    1
    13    23    24    1
    14    25    24    2
    15    25    26    1
    16    24    29    1
    17    26    27    2
    18     6     1    2
    19     6     5    1
    20     1     2    1
    21     7     5    1
    22     7     8    1
    23     5     4    2
    24    29    28    2
    25    27    28    1
    26     2     3    2
    27     8     9    1
    28     4     3    1
    29     4    10    1
    30     9    10    1
    31    10    11   am
    32    11    12    2
    33    11    30    1
    34    30    31    2
    35    30    35    1
    36    31    32    1
    37    35    34    2
    38    32    33    2
    39    34    33    1
