@<TRIPOS>MOLECULE
54369_out_ligand_01.pdbqt
 37 41 0 0 0
SMALL
GASTEIGER

@<TRIPOS>ATOM
      1  C         22.9560  -21.8200  -10.2620 C.2     1  UNL1        0.2770
      2  O         22.9960  -21.0530   -9.3040 O.2     1  UNL1       -0.2660
      3  N         21.9210  -22.7150  -10.5110 N.am    1  UNL1       -0.3220
      4  H         22.0460  -23.3360  -11.2970 H       1  UNL1        0.1690
      5  C         20.7450  -22.9110   -9.7560 C.2     1  UNL1        0.0360
      6  C         20.7060  -23.5180   -8.5010 C.2     1  UNL1        0.0300
      7  C         19.4910  -23.6780   -7.8160 C.2     1  UNL1        0.0160
      8  C         18.2860  -23.2320   -8.3700 C.2     1  UNL1       -0.0030
      9  C         16.9860  -23.3630   -7.6800 C.2     1  UNL1        0.0580
     10  C         18.3370  -22.6140   -9.6310 C.2     1  UNL1        0.0450
     11  C         15.8790  -22.9150   -8.2990 C.2     1  UNL1        0.1090
     12  N         15.9280  -22.3080   -9.5290 N.am    1  UNL1       -0.3320
     13  C         17.0820  -22.1160  -10.2530 C.2     1  UNL1        0.2560
     14  H         15.0760  -21.9850   -9.9740 H       1  UNL1        0.1680
     15  O         17.0760  -21.5620  -11.3470 O.2     1  UNL1       -0.2670
     16  C         19.5480  -22.4560  -10.3190 C.2     1  UNL1        0.0470
     17  C         16.8130  -24.0340   -6.3620 C.2     1  UNL1        0.2510
     18  N         16.2660  -23.2600   -5.3810 N.am    1  UNL1       -0.3660
     19  H         16.1630  -22.2580   -5.4750 H       1  UNL1        0.1590
     20  H         16.2510  -23.6550   -4.4490 H       1  UNL1        0.1590
     21  O         17.1690  -25.1840   -6.1410 O.2     1  UNL1       -0.2680
     22  C         24.0430  -21.8720  -11.2700 C.ar    1  UNL1        0.1530
     23  N         23.9760  -21.1430  -12.4050 N.ar    1  UNL1       -0.1610
     24  N         25.1050  -21.3940  -13.1250 N.ar    1  UNL1       -0.2340
     25  C         25.8690  -22.3060  -12.4460 C.ar    1  UNL1        0.0450
     26  C         25.2320  -22.6190  -11.2790 C.ar    1  UNL1        0.0030
     27  C         27.1210  -23.0540  -12.6690 C.3     1  UNL1        0.0600
     28  C         25.9770  -23.6300  -10.5030 C.3     1  UNL1        0.0430
     29  C         27.0070  -24.1510  -11.5580 C.3     1  UNL1        0.0110
     30  C         25.3550  -20.7410  -14.3630 C.2     1  UNL1        0.0970
     31  C         26.1150  -19.5630  -14.4230 C.2     1  UNL1        0.0350
     32  C         26.3490  -18.9240  -15.6490 C.2     1  UNL1        0.0090
     33  C         25.8200  -19.4390  -16.8360 C.2     1  UNL1       -0.0590
     34  C         26.0940  -18.7760  -18.1530 C.3     1  UNL1        0.0480
     35  C         25.0720  -20.6160  -16.7790 C.2     1  UNL1        0.0510
     36  C         24.8370  -21.2550  -15.5580 C.2     1  UNL1        0.1450
     37  F         24.1210  -22.3870  -15.6030 F       1  UNL1       -0.2040
@<TRIPOS>BOND
     1    34    33    1
     2    33    35    2
     3    33    32    1
     4    35    36    1
     5    32    31    2
     6    37    36    1
     7    36    30    2
     8    31    30    1
     9    30    24    1
    10    24    25   ar
    11    24    23   ar
    12    27    25    1
    13    27    29    1
    14    25    26   ar
    15    23    22   ar
    16    29    28    1
    17    15    13    2
    18     4     3    1
    19    26    22   ar
    20    26    28    1
    21    22     1    1
    22     3     1   am
    23     3     5    1
    24    16     5    2
    25    16    10    1
    26     1     2    2
    27    13    10    1
    28    13    12   am
    29    14    12    1
    30     5     6    1
    31    10     8    2
    32    12    11    1
    33     6     7    2
    34     8     7    1
    35     8     9    1
    36    11     9    2
    37     9    17    1
    38    17    21    2
    39    17    18   am
    40    19    18    1
    41    18    20    1
