@<TRIPOS>MOLECULE
54362_out_ligand_01.pdbqt
 34 37 0 0 0
SMALL
GASTEIGER

@<TRIPOS>ATOM
      1  C         24.2440  -22.3190  -11.0610 C.2     1  UNL1        0.2520
      2  O         25.0000  -22.8490  -10.2570 O.2     1  UNL1       -0.2680
      3  N         23.0950  -21.6550  -10.7040 N.am    1  UNL1       -0.3530
      4  H         22.4530  -21.3290  -11.4130 H       1  UNL1        0.1630
      5  C         22.6720  -21.5570   -9.3230 C.3     1  UNL1        0.1610
      6  C         21.6860  -22.6450   -8.9740 C.2     1  UNL1       -0.0380
      7  C         21.8460  -23.9400   -9.4840 C.2     1  UNL1        0.0090
      8  C         20.9480  -24.9490   -9.1410 C.2     1  UNL1        0.0030
      9  C         19.8840  -24.6790   -8.2730 C.2     1  UNL1        0.0290
     10  C         19.7140  -23.4020   -7.7400 C.2     1  UNL1        0.0350
     11  C         20.6250  -22.3930   -8.0890 C.2     1  UNL1        0.0380
     12  N         18.6860  -23.0590   -6.8380 N.am    1  UNL1       -0.3230
     13  C         17.3610  -22.7900   -7.1410 C.2     1  UNL1        0.2560
     14  O         16.8600  -22.7120   -8.2560 O.2     1  UNL1       -0.2670
     15  H         18.9750  -22.9210   -5.8790 H       1  UNL1        0.1690
     16  C         16.4840  -22.5210   -5.9650 C.2     1  UNL1        0.0350
     17  C         16.9800  -22.5420   -4.6590 C.2     1  UNL1        0.0360
     18  C         16.0860  -22.2950   -3.6290 C.2     1  UNL1        0.1170
     19  N         14.7740  -22.0320   -3.8180 N.2     1  UNL1       -0.2730
     20  C         14.3220  -22.0330   -5.0920 C.2     1  UNL1        0.1170
     21  C         15.1270  -22.2760   -6.1890 C.2     1  UNL1        0.0360
     22  C         24.5250  -22.4220  -12.5180 C.2     1  UNL1        0.0340
     23  C         24.1040  -21.3640  -13.3350 C.2     1  UNL1        0.0470
     24  C         24.3720  -21.4610  -14.6850 C.2     1  UNL1        0.0430
     25  N         24.0700  -20.5300  -15.6650 N.am    1  UNL1       -0.3260
     26  C         25.0150  -22.5620  -15.2500 C.2     1  UNL1       -0.0140
     27  C         24.4960  -20.9520  -16.9180 C.2     1  UNL1        0.2340
     28  H         23.6120  -19.6430  -15.5120 H       1  UNL1        0.1690
     29  C         25.1390  -22.3530  -16.7460 C.3     1  UNL1        0.0630
     30  O         24.3740  -20.3190  -17.9550 O.2     1  UNL1       -0.2720
     31  C         26.5960  -22.3180  -17.1980 C.3     1  UNL1        0.0300
     32  C         24.3270  -23.3840  -17.5320 C.3     1  UNL1        0.0300
     33  C         25.4210  -23.6220  -14.4540 C.2     1  UNL1        0.0120
     34  C         25.1710  -23.5490  -13.0760 C.2     1  UNL1        0.0180
@<TRIPOS>BOND
     1    30    27    2
     2    32    29    1
     3    31    29    1
     4    27    29    1
     5    27    25   am
     6    29    26    1
     7    25    28    1
     8    25    24    1
     9    26    24    2
    10    26    33    1
    11    24    23    1
    12    33    34    2
    13    23    22    2
    14    34    22    1
    15    22     1    1
    16     4     3    1
    17     1     3   am
    18     1     2    2
    19     3     5    1
    20     7     8    1
    21     7     6    2
    22     5     6    1
    23     8     9    2
    24     6    11    1
    25     9    10    1
    26    14    13    2
    27    11    10    2
    28    10    12    1
    29    13    12   am
    30    13    16    1
    31    12    15    1
    32    21    16    2
    33    21    20    1
    34    16    17    1
    35    20    19    2
    36    17    18    2
    37    19    18    1
