@<TRIPOS>MOLECULE
54375_out_ligand_01.pdbqt
 34 37 0 0 0
SMALL
GASTEIGER

@<TRIPOS>ATOM
      1  C         19.9380  -22.1680   -9.9330 C.2     1  UNL1        0.0350
      2  C         19.2670  -21.3870  -10.8800 C.2     1  UNL1        0.0290
      3  C         19.8740  -21.0640  -12.0940 C.2     1  UNL1        0.0030
      4  C         21.1650  -21.5100  -12.3700 C.2     1  UNL1        0.0090
      5  C         21.8690  -22.2710  -11.4270 C.2     1  UNL1       -0.0380
      6  C         21.2380  -22.5990  -10.2120 C.2     1  UNL1        0.0380
      7  C         23.2570  -22.7970  -11.7060 C.3     1  UNL1        0.1610
      8  N         23.8260  -22.2600  -12.9250 N.am    1  UNL1       -0.3530
      9  C         25.1670  -21.9800  -13.0350 C.2     1  UNL1        0.2530
     10  O         26.0050  -22.2010  -12.1720 O.2     1  UNL1       -0.2680
     11  H         23.1890  -21.8910  -13.6170 H       1  UNL1        0.1630
     12  C         25.5670  -21.3000  -14.2780 C.2     1  UNL1        0.0500
     13  C         25.8900  -19.9390  -14.2190 C.2     1  UNL1        0.0440
     14  C         26.2190  -19.2680  -15.3940 C.2     1  UNL1        0.0340
     15  C         26.5600  -17.8060  -15.3320 C.3     1  UNL1        0.0700
     16  N         26.2490  -19.8460  -16.6180 N.2     1  UNL1       -0.2340
     17  C         25.9660  -21.1610  -16.6060 C.ar    1  UNL1        0.1570
     18  N         25.9560  -21.9830  -17.6920 N.ar    1  UNL1       -0.2600
     19  C         25.6350  -21.9540  -15.5180 C.ar    1  UNL1        0.0530
     20  N         25.6640  -23.2660  -17.4010 N.ar    1  UNL1       -0.1770
     21  H         26.1500  -21.7240  -18.6500 H       1  UNL1        0.1910
     22  C         25.5010  -23.2630  -16.0680 C.ar    1  UNL1        0.0660
     23  C         25.2400  -24.5480  -15.3700 C.3     1  UNL1        0.0730
     24  N         19.2520  -22.4600   -8.7350 N.am    1  UNL1       -0.3230
     25  C         19.6970  -22.2500   -7.4410 C.2     1  UNL1        0.2560
     26  O         20.8130  -21.8700   -7.1030 O.2     1  UNL1       -0.2670
     27  H         18.3770  -22.9550   -8.8410 H       1  UNL1        0.1690
     28  C         18.7090  -22.5840   -6.3760 C.2     1  UNL1        0.0320
     29  C         18.0260  -23.8020   -6.4550 C.2     1  UNL1        0.0170
     30  C         17.0920  -24.1500   -5.4750 C.2     1  UNL1        0.0070
     31  C         16.8460  -23.2920   -4.3960 C.2     1  UNL1       -0.0620
     32  C         15.8210  -23.6550   -3.3610 C.3     1  UNL1        0.0480
     33  C         17.5340  -22.0760   -4.3180 C.2     1  UNL1        0.0070
     34  C         18.4700  -21.7260   -5.2960 C.2     1  UNL1        0.0170
@<TRIPOS>BOND
     1    21    18    1
     2    18    20   ar
     3    18    17   ar
     4    20    22   ar
     5    16    17    2
     6    16    14    1
     7    17    19   ar
     8    22    19   ar
     9    22    23    1
    10    19    12    2
    11    14    15    1
    12    14    13    2
    13    12    13    1
    14    12     9    1
    15    11     8    1
    16     9     8   am
    17     9    10    2
    18     8     7    1
    19     4     3    2
    20     4     5    1
    21     3     2    1
    22     7     5    1
    23     5     6    2
    24     2     1    2
    25     6     1    1
    26     1    24    1
    27    27    24    1
    28    24    25   am
    29    25    26    2
    30    25    28    1
    31    29    28    2
    32    29    30    1
    33    28    34    1
    34    30    31    2
    35    34    33    2
    36    31    33    1
    37    31    32    1
