@<TRIPOS>MOLECULE
54376_out_ligand_01.pdbqt
 33 36 0 0 0
SMALL
GASTEIGER

@<TRIPOS>ATOM
      1  N         15.2670  -24.7830   -9.0510 N.1     1  UNL1       -0.1910
      2  C         15.9680  -24.1740   -8.3540 C.1     1  UNL1        0.1000
      3  C         16.8630  -23.4820   -7.4660 C.2     1  UNL1        0.0550
      4  C         16.8010  -23.7820   -6.0960 C.2     1  UNL1        0.0230
      5  C         17.6570  -23.1500   -5.1940 C.2     1  UNL1        0.0020
      6  C         18.5800  -22.2170   -5.6550 C.2     1  UNL1        0.0010
      7  C         18.6500  -21.9140   -7.0160 C.2     1  UNL1        0.0140
      8  C         17.7930  -22.5360   -7.9440 C.2     1  UNL1       -0.0040
      9  C         17.8860  -22.1770   -9.3710 C.2     1  UNL1       -0.0090
     10  C         16.8680  -21.4100   -9.9640 C.2     1  UNL1        0.0130
     11  C         16.9420  -21.0300  -11.3080 C.2     1  UNL1        0.0010
     12  C         18.0380  -21.4030  -12.0830 C.2     1  UNL1        0.0010
     13  C         19.0580  -22.1680  -11.5200 C.2     1  UNL1        0.0180
     14  C         18.9710  -22.5670  -10.1800 C.2     1  UNL1        0.0430
     15  C         20.0790  -23.3700   -9.6140 C.2     1  UNL1        0.2540
     16  O         19.7790  -24.3630   -8.9570 O.2     1  UNL1       -0.2670
     17  N         21.3930  -22.9520   -9.8560 N.am    1  UNL1       -0.3470
     18  C         22.4550  -23.8710   -9.4700 C.3     1  UNL1        0.1260
     19  C         21.7230  -21.9430  -10.8780 C.3     1  UNL1        0.1370
     20  C         23.7490  -23.1660   -9.0740 C.3     1  UNL1        0.0210
     21  C         23.9380  -21.7870   -9.7020 C.3     1  UNL1        0.0140
     22  C         23.2240  -21.6310  -11.0480 C.3     1  UNL1        0.0590
     23  C         23.9140  -22.3900  -12.1630 C.2     1  UNL1        0.0770
     24  N         24.3200  -23.6560  -11.9910 N.2     1  UNL1       -0.1780
     25  N         24.8900  -23.9870  -13.1530 N.pl3   1  UNL1       -0.2880
     26  C         24.8490  -22.9930  -14.0820 C.2     1  UNL1        0.1280
     27  H         25.2860  -24.9180  -13.2450 H       1  UNL1        0.1880
     28  C         24.2140  -21.9190  -13.4820 C.2     1  UNL1        0.0750
     29  C         23.9170  -20.6190  -14.0620 C.2     1  UNL1        0.2520
     30  N         22.6110  -20.3850  -14.3820 N.am    1  UNL1       -0.3660
     31  H         21.9010  -21.0990  -14.3510 H       1  UNL1        0.1590
     32  H         22.4050  -19.5160  -14.8550 H       1  UNL1        0.1590
     33  O         24.7640  -19.7590  -14.2740 O.2     1  UNL1       -0.2680
@<TRIPOS>BOND
     1    32    30    1
     2    30    31    1
     3    30    29   am
     4    33    29    2
     5    26    28    2
     6    26    25    1
     7    29    28    1
     8    28    23    1
     9    27    25    1
    10    25    24    1
    11    23    24    2
    12    23    22    1
    13    12    13    2
    14    12    11    1
    15    13    14    1
    16    11    10    2
    17    22    19    1
    18    22    21    1
    19    19    17    1
    20    14    15    1
    21    14     9    2
    22    10     9    1
    23    17    15   am
    24    17    18    1
    25    21    20    1
    26    15    16    2
    27    18    20    1
    28     9     8    1
    29     1     2    3
    30     2     3    1
    31     8     3    2
    32     8     7    1
    33     3     4    1
    34     7     6    2
    35     4     5    2
    36     6     5    1
