@<TRIPOS>MOLECULE
54378_out_ligand_01.pdbqt
 30 33 0 0 0
SMALL
GASTEIGER

@<TRIPOS>ATOM
      1  C         21.1660  -21.9350  -11.7880 C.2     1  UNL1        0.0320
      2  C         21.0230  -22.8370  -10.7270 C.2     1  UNL1        0.0170
      3  C         19.7930  -22.9560  -10.0740 C.2     1  UNL1        0.0100
      4  C         18.6950  -22.1740  -10.4650 C.2     1  UNL1       -0.0410
      5  C         18.8490  -21.2690  -11.5250 C.2     1  UNL1        0.0100
      6  C         20.0780  -21.1450  -12.1760 C.2     1  UNL1        0.0170
      7  C         17.3670  -22.3170   -9.7570 C.3     1  UNL1        0.1600
      8  N         17.4640  -23.3800   -8.7690 N.pl3   1  UNL1       -0.3690
      9  H         17.4860  -24.3110   -9.1690 H       1  UNL1        0.1610
     10  C         16.9940  -23.1900   -7.5090 C.2     1  UNL1        0.1480
     11  N         15.8290  -23.6810   -7.0560 N.2     1  UNL1       -0.1410
     12  S         15.8070  -23.1870   -5.5790 S.O2    1  UNL1        0.2860
     13  O         15.7150  -24.4620   -4.5950 O.2     1  UNL1       -0.1980
     14  O         14.4340  -22.4190   -5.2410 O.2     1  UNL1       -0.1980
     15  C         17.1220  -22.3080   -5.2720 C.2     1  UNL1        0.0950
     16  C         17.6340  -21.6100   -4.1720 C.2     1  UNL1        0.0260
     17  C         17.7870  -22.3720   -6.5210 C.2     1  UNL1        0.0340
     18  C         18.8570  -20.9500   -4.3270 C.2     1  UNL1        0.0020
     19  C         19.5390  -20.9840   -5.5400 C.2     1  UNL1        0.0010
     20  C         19.0210  -21.6860   -6.6350 C.2     1  UNL1        0.0170
     21  C         22.4580  -21.7630  -12.5080 C.2     1  UNL1        0.2510
     22  O         22.4960  -21.1390  -13.5610 O.2     1  UNL1       -0.2680
     23  N         23.5570  -22.3680  -11.9370 N.am    1  UNL1       -0.3530
     24  H         23.4140  -23.0610  -11.2160 H       1  UNL1        0.1630
     25  C         24.8420  -22.3690  -12.5980 C.3     1  UNL1        0.1630
     26  C         25.5800  -21.1420  -12.2020 C.2     1  UNL1       -0.0160
     27  C         26.1030  -20.1360  -13.0660 C.2     1  UNL1        0.0350
     28  C         26.6940  -19.1940  -12.2580 C.2     1  UNL1        0.1420
     29  O         26.5730  -19.5480  -10.9530 O.2     1  UNL1       -0.3340
     30  C         25.8970  -20.7250  -10.9250 C.2     1  UNL1        0.1500
@<TRIPOS>BOND
     1    22    21    2
     2    27    28    2
     3    27    26    1
     4    25    26    1
     5    25    23    1
     6    21    23   am
     7    21     1    1
     8    28    29    1
     9    26    30    2
    10     6     1    2
    11     6     5    1
    12    23    24    1
    13     1     2    1
    14     5     4    2
    15    29    30    1
    16     2     3    2
    17     4     3    1
    18     4     7    1
    19     7     8    1
    20     9     8    1
    21     8    10    1
    22    10    11    2
    23    10    17    1
    24    11    12    1
    25    20    17    1
    26    20    19    2
    27    17    15    2
    28    12    15    1
    29    12    14    2
    30    12    13    2
    31    19    18    1
    32    15    16    1
    33    18    16    2
