@<TRIPOS>MOLECULE
54373_out_ligand_01.pdbqt
 35 38 0 0 0
SMALL
GASTEIGER

@<TRIPOS>ATOM
      1  C         22.7920  -21.5980   -9.2770 C.3     1  UNL1        0.1610
      2  N         23.1560  -21.7010  -10.6710 N.am    1  UNL1       -0.3530
      3  C         24.3000  -22.3660  -11.0520 C.2     1  UNL1        0.2520
      4  O         25.0750  -22.8990  -10.2690 O.2     1  UNL1       -0.2680
      5  H         22.4980  -21.3730  -11.3640 H       1  UNL1        0.1630
      6  C         24.5460  -22.4540  -12.5140 C.2     1  UNL1        0.0340
      7  C         24.1630  -21.3650  -13.3070 C.2     1  UNL1        0.0470
      8  C         24.4010  -21.4600  -14.6600 C.2     1  UNL1        0.0430
      9  N         24.1340  -20.5040  -15.6270 N.am    1  UNL1       -0.3260
     10  C         24.9780  -22.5890  -15.2480 C.2     1  UNL1       -0.0140
     11  C         24.5230  -20.9360  -16.8920 C.2     1  UNL1        0.2340
     12  H         23.7260  -19.5920  -15.4630 H       1  UNL1        0.1690
     13  C         25.0900  -22.3710  -16.7430 C.3     1  UNL1        0.0630
     14  O         24.4220  -20.2870  -17.9190 O.2     1  UNL1       -0.2720
     15  C         24.2110  -23.3460  -17.5260 C.3     1  UNL1        0.0300
     16  C         26.5400  -22.4120  -17.2200 C.3     1  UNL1        0.0300
     17  C         25.3450  -23.6770  -14.4730 C.2     1  UNL1        0.0120
     18  C         25.1270  -23.6060  -13.0920 C.2     1  UNL1        0.0180
     19  C         21.8150  -22.6800   -8.8980 C.2     1  UNL1       -0.0380
     20  C         22.0440  -24.0040   -9.2970 C.2     1  UNL1        0.0090
     21  C         21.1300  -25.0020   -8.9700 C.2     1  UNL1        0.0030
     22  C         19.9800  -24.6920   -8.2390 C.2     1  UNL1        0.0290
     23  C         19.7350  -23.3830   -7.8230 C.2     1  UNL1        0.0350
     24  C         20.6560  -22.3810   -8.1610 C.2     1  UNL1        0.0380
     25  N         18.6180  -22.9970   -7.0520 N.am    1  UNL1       -0.3230
     26  C         17.3070  -22.8780   -7.4800 C.2     1  UNL1        0.2560
     27  O         16.8990  -22.9650   -8.6320 O.2     1  UNL1       -0.2670
     28  H         18.8150  -22.7450   -6.0930 H       1  UNL1        0.1690
     29  C         16.3170  -22.5730   -6.4060 C.2     1  UNL1        0.0350
     30  C         16.7120  -22.7140   -5.0650 C.2     1  UNL1        0.0170
     31  C         15.8190  -22.4250   -4.0290 C.2     1  UNL1        0.0040
     32  C         14.5300  -21.9900   -4.3300 C.2     1  UNL1        0.0420
     33  C         14.1500  -21.8340   -5.6630 C.2     1  UNL1        0.1170
     34  F         12.9150  -21.4000   -5.9490 F       1  UNL1       -0.2060
     35  C         15.0290  -22.1130   -6.7050 C.2     1  UNL1        0.0590
@<TRIPOS>BOND
     1    14    11    2
     2    15    13    1
     3    16    13    1
     4    11    13    1
     5    11     9   am
     6    13    10    1
     7     9    12    1
     8     9     8    1
     9    10     8    2
    10    10    17    1
    11     8     7    1
    12    17    18    2
    13     7     6    2
    14    18     6    1
    15     6     3    1
    16     5     2    1
    17     3     2   am
    18     3     4    2
    19     2     1    1
    20    20    21    1
    21    20    19    2
    22     1    19    1
    23    21    22    2
    24    19    24    1
    25    27    26    2
    26    22    23    1
    27    24    23    2
    28    23    25    1
    29    26    25   am
    30    26    29    1
    31    25    28    1
    32    35    29    2
    33    35    33    1
    34    29    30    1
    35    34    33    1
    36    33    32    2
    37    30    31    2
    38    32    31    1
