@<TRIPOS>MOLECULE
54381_out_ligand_01.pdbqt
 33 36 0 0 0
SMALL
GASTEIGER

@<TRIPOS>ATOM
      1  C         23.9540  -23.1800  -10.0340 C.3     1  UNL1        0.1610
      2  C         24.1230  -22.8540  -11.4970 C.2     1  UNL1       -0.0400
      3  C         23.1880  -22.0390  -12.1510 C.2     1  UNL1        0.0100
      4  C         23.3190  -21.7520  -13.5110 C.2     1  UNL1        0.0170
      5  C         24.3920  -22.2780  -14.2370 C.2     1  UNL1        0.0320
      6  C         25.3130  -23.1150  -13.5980 C.2     1  UNL1        0.0170
      7  C         25.1820  -23.3990  -12.2360 C.2     1  UNL1        0.0100
      8  C         24.5770  -21.9940  -15.6860 C.2     1  UNL1        0.2520
      9  N         25.6880  -21.2570  -16.0310 N.am    1  UNL1       -0.3480
     10  H         26.4220  -21.1180  -15.3500 H       1  UNL1        0.1630
     11  O         23.8060  -22.4610  -16.5210 O.2     1  UNL1       -0.2680
     12  C         25.9930  -20.9300  -17.4170 C.3     1  UNL1        0.2250
     13  C         25.3130  -19.6500  -17.9030 C.2     1  UNL1        0.2330
     14  N         23.9700  -19.7380  -18.1530 N.am    1  UNL1       -0.3690
     15  H         23.4500  -20.5090  -17.7300 H       1  UNL1        0.1590
     16  H         23.4800  -18.8690  -18.3110 H       1  UNL1        0.1590
     17  O         25.8920  -18.5690  -17.9750 O.2     1  UNL1       -0.2720
     18  N         22.5600  -23.3750   -9.7100 N.am    1  UNL1       -0.3530
     19  C         21.9180  -22.5590   -8.8020 C.2     1  UNL1        0.2520
     20  O         22.4790  -21.7230   -8.1060 O.2     1  UNL1       -0.2680
     21  H         21.9930  -23.8800  -10.3770 H       1  UNL1        0.1630
     22  C         20.4500  -22.7430   -8.7420 C.2     1  UNL1        0.0430
     23  C         19.9050  -23.5310   -7.6970 C.2     1  UNL1        0.0180
     24  C         18.5240  -23.7540   -7.6090 C.2     1  UNL1        0.0090
     25  C         17.7010  -23.1890   -8.5710 C.2     1  UNL1       -0.0460
     26  C         18.2470  -22.4280   -9.5740 C.2     1  UNL1       -0.0120
     27  C         16.2060  -23.2790   -8.7050 C.2     1  UNL1        0.0440
     28  C         17.2630  -21.9810  -10.4180 C.2     1  UNL1       -0.0460
     29  C         19.6100  -22.1550   -9.7220 C.2     1  UNL1       -0.0090
     30  C         17.6000  -21.1990  -11.5080 C.2     1  UNL1        0.0080
     31  C         15.9070  -22.4590   -9.9840 C.2     1  UNL1        0.0440
     32  C         18.9500  -20.8840  -11.7160 C.2     1  UNL1        0.0010
     33  C         19.9470  -21.3520  -10.8400 C.2     1  UNL1        0.0130
@<TRIPOS>BOND
     1    16    14    1
     2    14    13   am
     3    14    15    1
     4    17    13    2
     5    13    12    1
     6    12     9    1
     7    11     8    2
     8     9     8   am
     9     9    10    1
    10     8     5    1
    11     5     6    2
    12     5     4    1
    13     6     7    1
    14     4     3    2
    15     7     2    2
    16     3     2    1
    17    32    30    1
    18    32    33    2
    19    30    28    2
    20     2     1    1
    21    33    29    1
    22    28    31    1
    23    28    26    1
    24    21    18    1
    25     1    18    1
    26    31    27    2
    27    29    26    1
    28    29    22    2
    29    18    19   am
    30    26    25    2
    31    19    22    1
    32    19    20    2
    33    22    23    1
    34    27    25    1
    35    25    24    1
    36    23    24    2
