@<TRIPOS>MOLECULE
54390_out_ligand_01.pdbqt
 32 35 0 0 0
SMALL
GASTEIGER

@<TRIPOS>ATOM
      1  C         19.7930  -21.7680  -11.0900 C.2     1  UNL1        0.0360
      2  C         18.7500  -21.2780  -11.8710 C.2     1  UNL1        0.0310
      3  C         17.4220  -21.4520  -11.4650 C.2     1  UNL1        0.0270
      4  C         17.1160  -22.1160  -10.2720 C.2     1  UNL1        0.0490
      5 CL         15.4340  -22.2990   -9.9140 Cl      1  UNL1       -0.0830
      6  C         18.1510  -22.6070   -9.4660 C.2     1  UNL1        0.0550
      7  C         19.4840  -22.4310   -9.8970 C.2     1  UNL1        0.0480
      8  N         21.1570  -21.6520  -11.4280 N.am    1  UNL1       -0.3230
      9  C         22.1960  -22.4540  -10.9990 C.2     1  UNL1        0.2570
     10  O         22.1150  -23.4570  -10.3020 O.2     1  UNL1       -0.2670
     11  H         21.3820  -20.9230  -12.0960 H       1  UNL1        0.1690
     12  C         23.5330  -22.0270  -11.5230 C.2     1  UNL1        0.0480
     13  C         24.5340  -21.4840  -10.6040 C.2     1  UNL1        0.0220
     14  C         25.7380  -21.0620  -11.0360 C.2     1  UNL1        0.0540
     15  C         26.0480  -21.1330  -12.4210 C.ar    1  UNL1        0.1580
     16  N         27.1210  -20.8090  -13.1100 N.ar    1  UNL1       -0.1290
     17  N         25.0690  -21.6270  -13.2770 N.ar    1  UNL1       -0.2820
     18  N         26.8660  -21.0770  -14.4380 N.ar    1  UNL1       -0.1220
     19  C         25.6480  -21.5580  -14.5210 C.ar    1  UNL1        0.1930
     20  C         23.8170  -22.0680  -12.8400 C.2     1  UNL1        0.1180
     21  S         24.8700  -22.0500  -15.9810 S.3     1  UNL1       -0.1030
     22  H         24.8480  -23.3630  -15.7070 H       1  UNL1        0.1100
     23  C         17.9850  -23.3290   -8.1700 C.2     1  UNL1        0.2530
     24  O         18.7220  -24.2770   -7.9110 O.2     1  UNL1       -0.2680
     25  N         17.0370  -22.8650   -7.2890 N.am    1  UNL1       -0.3520
     26  H         16.5160  -22.0270   -7.5230 H       1  UNL1        0.1630
     27  C         16.8720  -23.4230   -5.9540 C.3     1  UNL1        0.0840
     28  C         15.3840  -23.5040   -5.5950 C.3     1  UNL1        0.0250
     29  C         15.1750  -24.0280   -4.1760 C.3     1  UNL1        0.0020
     30  C         15.9450  -23.2000   -3.1530 C.3     1  UNL1        0.0000
     31  C         17.4270  -23.1100   -3.5030 C.3     1  UNL1        0.0020
     32  C         17.6410  -22.5890   -4.9210 C.3     1  UNL1        0.0250
@<TRIPOS>BOND
     1    21    22    1
     2    21    19    1
     3    19    18   ar
     4    19    17   ar
     5    18    16   ar
     6    17    20    1
     7    17    15   ar
     8    16    15   ar
     9    20    12    2
    10    15    14    1
    11    11     8    1
    12     2     3    1
    13     2     1    2
    14    12     9    1
    15    12    13    1
    16     3     4    2
    17     8     1    1
    18     8     9   am
    19     1     7    1
    20    14    13    2
    21     9    10    2
    22     4     5    1
    23     4     6    1
    24     7     6    2
    25     6    23    1
    26    23    24    2
    27    23    25   am
    28    26    25    1
    29    25    27    1
    30    27    28    1
    31    27    32    1
    32    28    29    1
    33    32    31    1
    34    29    30    1
    35    31    30    1
