@<TRIPOS>MOLECULE
54395_out_ligand_01.pdbqt
 33 35 0 0 0
SMALL
GASTEIGER

@<TRIPOS>ATOM
      1  C         22.2290  -22.4600   -9.5600 C.2     1  UNL1        0.0780
      2  C         23.5320  -22.0650   -9.2270 C.2     1  UNL1        0.0220
      3  C         24.4010  -21.6740  -10.2360 C.2     1  UNL1        0.0200
      4  C         23.9310  -21.6900  -11.5350 C.2     1  UNL1        0.1190
      5  N         22.6770  -22.0600  -11.8770 N.2     1  UNL1       -0.2420
      6  C         21.8090  -22.4280  -10.9020 C.2     1  UNL1        0.1430
      7  C         21.2780  -22.8560   -8.4900 C.2     1  UNL1        0.2600
      8  N         20.7510  -21.8050   -7.7610 N.am    1  UNL1       -0.3230
      9  H         21.1600  -20.8910   -7.9150 H       1  UNL1        0.1690
     10  O         21.0690  -24.0520   -8.3190 O.2     1  UNL1       -0.2670
     11  C         19.7880  -21.8810   -6.7320 C.2     1  UNL1        0.0350
     12  C         19.8120  -20.8720   -5.7600 C.2     1  UNL1        0.0290
     13  C         18.8930  -20.8660   -4.7100 C.2     1  UNL1        0.0030
     14  C         17.9330  -21.8720   -4.6200 C.2     1  UNL1        0.0170
     15  C         17.8980  -22.8850   -5.5850 C.2     1  UNL1        0.0340
     16  C         18.8180  -22.8820   -6.6450 C.2     1  UNL1        0.0460
     17  C         16.8770  -23.9630   -5.5350 C.2     1  UNL1        0.2490
     18  N         15.6920  -23.6680   -4.9160 N.am    1  UNL1       -0.3660
     19  H         15.6130  -22.8930   -4.2740 H       1  UNL1        0.1590
     20  H         15.0760  -24.4580   -4.7650 H       1  UNL1        0.1590
     21  O         17.0850  -25.0770   -5.9960 O.2     1  UNL1       -0.2680
     22  N         20.4980  -22.8500  -11.2310 N.pl3   1  UNL1       -0.3400
     23  H         20.4470  -23.8710  -11.1590 H       1  UNL1        0.1670
     24  C         19.2490  -22.2280  -11.0400 C.2     1  UNL1        0.0340
     25  C         18.8740  -21.0350  -11.6640 C.2     1  UNL1        0.0290
     26  C         17.5980  -20.4940  -11.4880 C.2     1  UNL1        0.0030
     27  C         16.6610  -21.1520  -10.6940 C.2     1  UNL1        0.0160
     28  C         16.9950  -22.3610  -10.0730 C.2     1  UNL1        0.0500
     29  C         18.2820  -22.8930  -10.2680 C.2     1  UNL1        0.0450
     30  C         15.9810  -23.1070   -9.2440 C.3     1  UNL1        0.4170
     31  F         16.4510  -24.2920   -8.7630 F       1  UNL1       -0.1660
     32  F         14.8560  -23.4100   -9.9510 F       1  UNL1       -0.1660
     33  F         15.5580  -22.4070   -8.1530 F       1  UNL1       -0.1660
@<TRIPOS>BOND
     1     5     4    2
     2     5     6    1
     3    25    26    1
     4    25    24    2
     5     4     3    1
     6    26    27    2
     7    22    23    1
     8    22    24    1
     9    22     6    1
    10    24    29    1
    11     6     1    2
    12    27    28    1
    13    29    28    2
    14     3     2    2
    15    28    30    1
    16    32    30    1
    17     1     2    1
    18     1     7    1
    19    30    31    1
    20    30    33    1
    21     7    10    2
    22     7     8   am
    23     9     8    1
    24     8    11    1
    25    11    16    2
    26    11    12    1
    27    16    15    1
    28    21    17    2
    29    12    13    2
    30    15    17    1
    31    15    14    2
    32    17    18   am
    33    18    20    1
    34    18    19    1
    35    13    14    1
