@<TRIPOS>MOLECULE
54394_out_ligand_01.pdbqt
 37 40 0 0 0
SMALL
GASTEIGER

@<TRIPOS>ATOM
      1  C         21.2530  -22.6800   -8.0200 C.2     1  UNL1       -0.0390
      2  C         21.4910  -23.9170   -8.6410 C.2     1  UNL1        0.0090
      3  C         20.5380  -24.9370   -8.6010 C.2     1  UNL1        0.0020
      4  C         19.3270  -24.7310   -7.9460 C.2     1  UNL1        0.0250
      5  C         19.0770  -23.4970   -7.3390 C.2     1  UNL1        0.0800
      6  C         20.0340  -22.4760   -7.3620 C.2     1  UNL1        0.0340
      7  C         22.3050  -21.6030   -8.0620 C.3     1  UNL1        0.1620
      8  N         23.5130  -22.0930   -8.6830 N.am    1  UNL1       -0.3390
      9  C         23.7980  -21.7390   -9.9750 C.2     1  UNL1        0.3160
     10  N         25.0140  -22.2410  -10.3660 N.am    1  UNL1       -0.3380
     11  O         23.0570  -21.0870  -10.6930 O.2     1  UNL1       -0.2470
     12  H         25.2910  -23.0810   -9.8770 H       1  UNL1        0.1640
     13  H         24.3160  -22.1870   -8.0800 H       1  UNL1        0.1640
     14  C         25.4610  -22.1040  -11.7480 C.3     1  UNL1        0.0900
     15  C         24.4450  -22.7480  -12.6940 C.3     1  UNL1        0.0310
     16  C         24.9550  -22.7080  -14.1320 C.3     1  UNL1        0.0620
     17  C         25.4250  -21.3400  -14.5450 C.2     1  UNL1        0.0440
     18  C         25.7970  -20.3960  -13.6020 C.2     1  UNL1       -0.0140
     19  N         25.5020  -21.1100  -15.8720 N.2     1  UNL1       -0.2380
     20  C         26.2320  -19.1900  -14.1090 C.2     1  UNL1        0.1280
     21  C         25.6860  -20.6260  -12.1270 C.3     1  UNL1        0.0670
     22  N         26.3140  -18.9150  -15.4230 N.2     1  UNL1       -0.2450
     23  C         25.9370  -19.8970  -16.2600 C.2     1  UNL1        0.1220
     24  C         26.0520  -19.6370  -17.7310 C.3     1  UNL1        0.0930
     25  S         17.5260  -23.2470   -6.5090 S.O2    1  UNL1        0.2590
     26  O         16.9830  -24.5520   -6.2030 O.2     1  UNL1       -0.2010
     27  O         17.7190  -22.2390   -5.4920 O.2     1  UNL1       -0.2010
     28  N         16.5680  -22.5940   -7.7150 N.3     1  UNL1       -0.3110
     29  H         15.7050  -22.1690   -7.3860 H       1  UNL1        0.1720
     30  C         16.5700  -23.2160   -9.0330 C.3     1  UNL1        0.1700
     31  C         17.2920  -22.3500  -10.0400 C.2     1  UNL1       -0.0370
     32  C         16.7080  -21.1710  -10.5250 C.2     1  UNL1        0.0090
     33  C         17.3810  -20.3740  -11.4550 C.2     1  UNL1        0.0040
     34  C         18.6430  -20.7490  -11.9090 C.2     1  UNL1        0.0420
     35  C         19.2200  -21.9190  -11.4340 C.2     1  UNL1        0.1170
     36  F         20.4360  -22.2760  -11.8690 F       1  UNL1       -0.2060
     37  C         18.5600  -22.7200  -10.5090 C.2     1  UNL1        0.0510
@<TRIPOS>BOND
     1    24    23    1
     2    23    19    2
     3    23    22    1
     4    19    17    1
     5    22    20    2
     6    17    16    1
     7    17    18    2
     8    16    15    1
     9    20    18    1
    10    18    21    1
    11    15    14    1
    12    21    14    1
    13    34    33    2
    14    34    35    1
    15    36    35    1
    16    14    10    1
    17    33    32    1
    18    35    37    2
    19    11     9    2
    20    32    31    2
    21    37    31    1
    22    10     9   am
    23    10    12    1
    24    31    30    1
    25     9     8   am
    26    30    28    1
    27     8    13    1
    28     8     7    1
    29     2     3    1
    30     2     1    2
    31     3     4    2
    32     7     1    1
    33     1     6    1
    34     4     5    1
    35    28    29    1
    36    28    25    1
    37     6     5    2
    38     5    25    1
    39    25    26    2
    40    25    27    2
