@<TRIPOS>MOLECULE
54406_out_ligand_01.pdbqt
 31 34 0 0 0
SMALL
GASTEIGER

@<TRIPOS>ATOM
      1  C         22.8240  -22.8760  -10.2340 C.2     1  UNL1        0.1590
      2  N         24.1020  -23.2470   -9.9610 N.2     1  UNL1       -0.2220
      3  C         25.0700  -22.9770  -10.8440 C.2     1  UNL1        0.2360
      4  N         24.9430  -22.3740  -12.0260 N.2     1  UNL1       -0.2340
      5  C         23.6730  -22.0230  -12.2840 C.2     1  UNL1        0.1130
      6  S         23.2940  -21.2350  -13.7460 S.3     1  UNL1       -0.0800
      7  C         21.6400  -21.1390  -13.3350 C.2     1  UNL1        0.0650
      8  C         21.3770  -21.7020  -12.1020 C.2     1  UNL1       -0.0020
      9  C         22.5690  -22.2290  -11.4690 C.2     1  UNL1        0.0590
     10  N         21.7940  -23.1820   -9.3210 N.pl3   1  UNL1       -0.2610
     11  H         21.9140  -22.7140   -8.4280 H       1  UNL1        0.1910
     12  N         21.3330  -24.4620   -9.2690 N.2     1  UNL1       -0.1850
     13  C         20.3750  -24.6970   -8.4220 C.2     1  UNL1        0.1500
     14  C         19.6280  -23.7130   -7.6150 C.2     1  UNL1       -0.0160
     15  C         20.2020  -22.4760   -7.3020 C.2     1  UNL1        0.0130
     16  C         19.4690  -21.5340   -6.5850 C.2     1  UNL1        0.0020
     17  C         18.1640  -21.8280   -6.1840 C.2     1  UNL1        0.0170
     18  C         17.5950  -23.0730   -6.4890 C.2     1  UNL1        0.0320
     19  C         18.3220  -24.0160   -7.2260 C.2     1  UNL1        0.0300
     20  C         16.2080  -23.3410   -6.0380 C.2     1  UNL1        0.2490
     21  N         15.2420  -22.4600   -6.4390 N.am    1  UNL1       -0.3660
     22  H         14.2900  -22.7490   -6.2500 H       1  UNL1        0.1590
     23  H         15.3800  -21.8670   -7.2470 H       1  UNL1        0.1590
     24  O         15.9320  -24.3270   -5.3680 O.2     1  UNL1       -0.2680
     25  C         20.0240  -21.6940  -11.5700 C.2     1  UNL1       -0.0240
     26  C         19.3100  -20.4920  -11.4870 C.2     1  UNL1        0.0150
     27  C         17.9750  -20.5050  -11.0810 C.2     1  UNL1        0.0430
     28  C         17.3640  -21.7130  -10.7600 C.2     1  UNL1        0.1160
     29  F         16.0710  -21.7270  -10.4110 F       1  UNL1       -0.2060
     30  C         18.0700  -22.9090  -10.8140 C.2     1  UNL1        0.0430
     31  C         19.4040  -22.9010  -11.2230 C.2     1  UNL1        0.0150
@<TRIPOS>BOND
     1     6     7    1
     2     6     5    1
     3     7     8    2
     4     5     4    2
     5     5     9    1
     6     8    25    1
     7     8     9    1
     8     4     3    1
     9    25    26    2
    10    25    31    1
    11    26    27    1
    12     9     1    2
    13    31    30    2
    14    27    28    2
    15     3     2    2
    16    30    28    1
    17    28    29    1
    18     1     2    1
    19     1    10    1
    20    10    12    1
    21    10    11    1
    22    12    13    2
    23    13    14    1
    24    14    15    2
    25    14    19    1
    26    15    16    1
    27    23    21    1
    28    19    18    2
    29    16    17    2
    30    18    17    1
    31    18    20    1
    32    21    22    1
    33    21    20   am
    34    20    24    2
