@<TRIPOS>MOLECULE
54417_out_ligand_01.pdbqt
 35 38 0 0 0
SMALL
GASTEIGER

@<TRIPOS>ATOM
      1  C         20.8550  -22.4010  -10.3620 C.2     1  UNL1       -0.0340
      2  C         20.2900  -21.6650  -11.4140 C.2     1  UNL1        0.0090
      3  C         18.9050  -21.5220  -11.5100 C.2     1  UNL1        0.0030
      4  C         18.0680  -22.1180  -10.5620 C.2     1  UNL1        0.0290
      5  C         18.6060  -22.8790   -9.5220 C.2     1  UNL1        0.0350
      6  C         19.9950  -23.0090   -9.4250 C.2     1  UNL1        0.0380
      7  C         22.3570  -22.5820  -10.2340 C.3     1  UNL1        0.1140
      8  C         23.0460  -21.4450   -9.4870 C.3     1  UNL1        0.0370
      9  N         22.9320  -22.9290  -11.5280 N.am    1  UNL1       -0.3490
     10  C         24.2780  -23.0230  -11.7910 C.2     1  UNL1        0.2520
     11  O         25.1670  -23.0620  -10.9530 O.2     1  UNL1       -0.2680
     12  H         22.2980  -22.8610  -12.3110 H       1  UNL1        0.1630
     13  C         24.6330  -23.0880  -13.2260 C.2     1  UNL1        0.0340
     14  C         25.2420  -24.2270  -13.7560 C.2     1  UNL1        0.0200
     15  C         25.5060  -24.2920  -15.1250 C.2     1  UNL1        0.0400
     16  C         25.1980  -23.2100  -15.9490 C.2     1  UNL1        0.1020
     17  C         24.5920  -22.0710  -15.4140 C.2     1  UNL1        0.1030
     18  O         25.4060  -23.3970  -17.2860 O.2     1  UNL1       -0.3480
     19  C         24.2850  -22.0220  -14.0550 C.2     1  UNL1        0.0560
     20  O         24.1690  -21.0120  -16.1660 O.2     1  UNL1       -0.3480
     21  C         25.2350  -20.3860  -16.8730 C.3     1  UNL1        0.1780
     22  C         25.5810  -21.1260  -18.1520 C.3     1  UNL1        0.0530
     23  C         26.2890  -22.4320  -17.8500 C.3     1  UNL1        0.1780
     24  N         17.7040  -23.4570   -8.6070 N.am    1  UNL1       -0.3270
     25  C         16.3220  -23.4010   -8.6470 C.2     1  UNL1        0.2260
     26  O         15.6370  -22.7570   -9.4370 O.2     1  UNL1       -0.2730
     27  H         18.1150  -23.8930   -7.7890 H       1  UNL1        0.1690
     28  C         15.6680  -24.2510   -7.5740 C.3     1  UNL1        0.1440
     29  C         15.7770  -23.6440   -6.2020 C.2     1  UNL1       -0.0110
     30  C         14.8240  -22.7300   -5.7430 C.2     1  UNL1        0.0110
     31  C         14.9240  -22.1880   -4.4560 C.2     1  UNL1        0.0010
     32  C         15.9810  -22.5530   -3.6170 C.2     1  UNL1        0.0030
     33  C         16.9480  -23.4430   -4.0730 C.2     1  UNL1        0.0430
     34  C         16.8470  -23.9720   -5.3580 C.2     1  UNL1        0.1230
     35  F         17.8050  -24.7960   -5.7950 F       1  UNL1       -0.2060
@<TRIPOS>BOND
     1    22    23    1
     2    22    21    1
     3    23    18    1
     4    18    16    1
     5    21    20    1
     6    20    17    1
     7    16    17    2
     8    16    15    1
     9    17    19    1
    10    15    14    2
    11    19    13    2
    12    14    13    1
    13    13    10    1
    14    12     9    1
    15    10     9   am
    16    10    11    2
    17     9     7    1
    18     3     2    1
    19     3     4    2
    20     2     1    2
    21     4     5    1
    22     1     7    1
    23     1     6    1
    24     7     8    1
    25     5     6    2
    26     5    24    1
    27    26    25    2
    28    25    24   am
    29    25    28    1
    30    24    27    1
    31    28    29    1
    32    29    30    2
    33    29    34    1
    34    35    34    1
    35    30    31    1
    36    34    33    2
    37    31    32    2
    38    33    32    1
