@<TRIPOS>MOLECULE
54410_out_ligand_01.pdbqt
 29 32 0 0 0
SMALL
GASTEIGER

@<TRIPOS>ATOM
      1  C         20.5370  -22.2220  -11.4190 C.3     1  UNL1        0.0920
      2  C         19.8790  -20.8520  -11.5670 C.3     1  UNL1        0.1170
      3  C         18.4330  -21.1360  -11.2400 C.2     1  UNL1        0.2200
      4  O         17.5050  -20.3710  -11.4470 O.2     1  UNL1       -0.2730
      5  N         18.3640  -22.3780  -10.6290 N.am    1  UNL1       -0.3470
      6  C         19.6760  -22.9240  -10.3800 C.3     1  UNL1        0.1390
      7  C         21.9640  -22.1600  -11.0470 C.ar    1  UNL1        0.1790
      8  O         22.3280  -21.2680  -10.0800 O.2     1  UNL1       -0.1960
      9  N         23.7020  -21.4070   -9.9080 N.ar    1  UNL1       -0.1080
     10  C         24.0320  -22.3670  -10.7830 C.ar    1  UNL1        0.1940
     11  N         22.9720  -22.8580  -11.5170 N.ar    1  UNL1       -0.2060
     12  C         25.4910  -22.9090  -10.9870 C.3     1  UNL1        0.2180
     13  C         26.6180  -21.8930  -11.2740 C.3     1  UNL1        0.0500
     14  C         26.4070  -22.1800  -12.7780 C.3     1  UNL1        0.0060
     15  C         25.7760  -23.5310  -12.3730 C.3     1  UNL1        0.0500
     16  N         25.9300  -23.8310   -9.9320 N.3     1  UNL1        0.0950
     17  H         25.2660  -24.5660   -9.7010 H       1  UNL1        0.3140
     18  H         26.1310  -23.3400   -9.0590 H       1  UNL1        0.3140
     19  C         17.1710  -22.8750   -9.9680 C.3     1  UNL1        0.1640
     20  C         17.2050  -22.6510   -8.4750 C.2     1  UNL1       -0.0400
     21  C         18.4320  -22.5010   -7.8120 C.2     1  UNL1        0.0090
     22  C         18.4730  -22.3160   -6.4300 C.2     1  UNL1        0.0010
     23  C         17.2890  -22.2810   -5.6940 C.2     1  UNL1        0.0160
     24  C         16.0480  -22.4250   -6.3340 C.2     1  UNL1        0.0480
     25  C         16.0200  -22.6190   -7.7250 C.2     1  UNL1        0.0250
     26  C         14.7720  -22.4070   -5.5290 C.3     1  UNL1        0.4170
     27  F         13.8110  -21.6310   -6.1000 F       1  UNL1       -0.1660
     28  F         14.9400  -21.9240   -4.2660 F       1  UNL1       -0.1660
     29  F         14.2190  -23.6430   -5.3830 F       1  UNL1       -0.1660
@<TRIPOS>BOND
     1    14    15    1
     2    14    13    1
     3    15    12    1
     4     2     1    1
     5     2     3    1
     6    11     7   ar
     7    11    10   ar
     8     4     3    2
     9     1     7    1
    10     1     6    1
    11    13    12    1
    12     3     5   am
    13     7     8   ar
    14    12    10    1
    15    12    16    1
    16    10     9   ar
    17     5     6    1
    18     5    19    1
    19     8     9   ar
    20    19    20    1
    21    16    17    1
    22    16    18    1
    23    20    21    2
    24    20    25    1
    25    21    22    1
    26    25    24    2
    27    22    23    2
    28    24    23    1
    29    24    26    1
    30    27    26    1
    31    26    29    1
    32    26    28    1
