@<TRIPOS>MOLECULE
54433_out_ligand_01.pdbqt
 36 39 0 0 0
SMALL
GASTEIGER

@<TRIPOS>ATOM
      1  C         18.2270  -23.0860   -6.2310 C.2     1  UNL1        0.0860
      2  C         19.3690  -23.2200   -7.0410 C.2     1  UNL1        0.0420
      3  C         20.3250  -22.2030   -7.0910 C.2     1  UNL1        0.0330
      4  C         20.1450  -21.0470   -6.3300 C.2     1  UNL1        0.0170
      5  C         19.0220  -20.9250   -5.5060 C.2     1  UNL1        0.0090
      6  C         18.0490  -21.9390   -5.4350 C.2     1  UNL1       -0.0390
      7  C         16.8740  -21.7260   -4.5230 C.3     1  UNL1        0.0500
      8  C         21.4800  -22.3720   -8.0070 C.2     1  UNL1        0.2520
      9  O         22.4220  -21.5890   -7.9410 O.2     1  UNL1       -0.2680
     10  N         21.3990  -23.4170   -8.9020 N.am    1  UNL1       -0.3490
     11  H         20.6090  -24.0450   -8.8700 H       1  UNL1        0.1630
     12  C         22.5230  -23.7940   -9.7420 C.3     1  UNL1        0.1140
     13  C         23.8230  -23.7580   -8.9380 C.3     1  UNL1        0.0370
     14  C         22.5500  -22.9040  -10.9760 C.2     1  UNL1       -0.0350
     15  C         21.4120  -22.1700  -11.3940 C.2     1  UNL1        0.0110
     16  C         21.4400  -21.3730  -12.5440 C.2     1  UNL1        0.0310
     17  C         22.6130  -21.3400  -13.2630 C.2     1  UNL1        0.0410
     18  C         23.7410  -22.0570  -12.8830 C.2     1  UNL1       -0.0220
     19  N         22.8740  -20.6420  -14.4310 N.am    1  UNL1       -0.3260
     20  C         23.7270  -22.8480  -11.7470 C.2     1  UNL1        0.0190
     21  C         24.8410  -21.8140  -13.8710 C.3     1  UNL1        0.1440
     22  C         24.1710  -20.8640  -14.8720 C.2     1  UNL1        0.2260
     23  O         24.6730  -20.3860  -15.8750 O.2     1  UNL1       -0.2730
     24  H         22.2250  -20.0460  -14.9240 H       1  UNL1        0.1690
     25  S         17.0680  -24.4500   -6.3050 S.O2    1  UNL1        0.2630
     26  O         16.3080  -24.5260   -5.0790 O.2     1  UNL1       -0.2000
     27  O         17.8080  -25.5950   -6.7910 O.2     1  UNL1       -0.2000
     28  N         16.0290  -23.9880   -7.5590 N.pl3   1  UNL1       -0.2810
     29  H         15.3330  -24.7020   -7.7640 H       1  UNL1        0.1790
     30  C         16.5510  -23.2400   -8.6500 C.2     1  UNL1        0.0420
     31  C         16.0580  -21.9570   -8.8890 C.2     1  UNL1        0.0300
     32  C         16.5340  -21.2180   -9.9730 C.2     1  UNL1        0.0090
     33  C         17.5040  -21.7560  -10.8280 C.2     1  UNL1       -0.0620
     34  C         18.0360  -20.9460  -11.9690 C.3     1  UNL1        0.0480
     35  C         18.0040  -23.0370  -10.5670 C.2     1  UNL1        0.0090
     36  C         17.5240  -23.7790   -9.4860 C.2     1  UNL1        0.0300
@<TRIPOS>BOND
     1    23    22    2
     2    24    19    1
     3    22    19   am
     4    22    21    1
     5    19    17    1
     6    21    18    1
     7    17    18    2
     8    17    16    1
     9    18    20    1
    10    16    15    2
    11    34    33    1
    12    20    14    2
    13    15    14    1
    14    14    12    1
    15    33    35    2
    16    33    32    1
    17    35    36    1
    18    32    31    2
    19    12    13    1
    20    12    10    1
    21    36    30    2
    22    10    11    1
    23    10     8   am
    24    31    30    1
    25    30    28    1
    26     8     9    2
    27     8     3    1
    28    29    28    1
    29    28    25    1
    30     3     2    1
    31     3     4    2
    32     2     1    2
    33    27    25    2
    34     4     5    1
    35    25     1    1
    36    25    26    2
    37     1     6    1
    38     5     6    2
    39     6     7    1
