@<TRIPOS>MOLECULE
54442_out_ligand_01.pdbqt
 37 41 0 0 0
SMALL
GASTEIGER

@<TRIPOS>ATOM
      1  C         21.2390  -22.9720   -9.6530 C.2     1  UNL1        0.0320
      2  C         22.3930  -22.7680   -8.8890 C.2     1  UNL1        0.0190
      3  C         23.5430  -22.2510   -9.4890 C.2     1  UNL1        0.0310
      4  C         23.5450  -21.9510  -10.8530 C.2     1  UNL1        0.0420
      5  C         22.4160  -22.2200  -11.6290 C.2     1  UNL1        0.0310
      6  C         21.2590  -22.7260  -11.0310 C.2     1  UNL1        0.0190
      7  C         20.0090  -23.4340   -8.9630 C.2     1  UNL1        0.2520
      8  N         18.9880  -22.5160   -8.9050 N.am    1  UNL1       -0.3490
      9  H         19.1310  -21.5750   -9.2540 H       1  UNL1        0.1630
     10  O         19.9690  -24.5450   -8.4510 O.2     1  UNL1       -0.2680
     11  C         17.7410  -22.7850   -8.2070 C.3     1  UNL1        0.1140
     12  C         16.5630  -22.2010   -9.0000 C.3     1  UNL1        0.0370
     13  C         17.8640  -22.2900   -6.7650 C.2     1  UNL1       -0.0250
     14  C         18.9270  -21.4340   -6.4080 C.2     1  UNL1        0.0100
     15  C         19.0790  -20.9810   -5.1010 C.2     1  UNL1        0.0020
     16  C         18.1830  -21.3850   -4.1170 C.2     1  UNL1        0.0120
     17  C         17.1250  -22.2530   -4.4210 C.2     1  UNL1       -0.0250
     18  C         16.2420  -22.6500   -3.4010 C.2     1  UNL1        0.0120
     19  C         16.9550  -22.7300   -5.7480 C.2     1  UNL1       -0.0180
     20  C         15.1900  -23.5270   -3.6610 C.2     1  UNL1        0.0010
     21  C         15.0120  -24.0200   -4.9450 C.2     1  UNL1        0.0010
     22  C         15.8810  -23.6290   -5.9710 C.2     1  UNL1        0.0130
     23  N         24.6790  -21.2940  -11.4060 N.pl3   1  UNL1       -0.2810
     24  H         24.5090  -20.5510  -12.0790 H       1  UNL1        0.1790
     25  S         26.0080  -22.2380  -11.8790 S.O2    1  UNL1        0.2630
     26  O         26.0920  -23.4010  -11.0200 O.2     1  UNL1       -0.2000
     27  O         27.1200  -21.3230  -12.0220 O.2     1  UNL1       -0.2000
     28  C         25.5500  -22.7860  -13.5100 C.2     1  UNL1        0.0820
     29  C         25.6040  -24.1510  -13.8200 C.2     1  UNL1        0.0280
     30  C         25.2980  -24.5680  -15.1170 C.2     1  UNL1        0.0410
     31  C         24.9350  -23.6290  -16.0860 C.2     1  UNL1        0.1020
     32  C         24.8880  -22.2660  -15.7640 C.2     1  UNL1        0.1030
     33  O         24.6460  -24.1140  -17.3360 O.2     1  UNL1       -0.3460
     34  C         25.1650  -21.8420  -14.4680 C.2     1  UNL1        0.0650
     35  O         24.5790  -21.2860  -16.6720 O.2     1  UNL1       -0.3460
     36  C         24.6600  -21.7770  -18.0180 C.3     1  UNL1        0.2020
     37  C         23.9760  -23.1300  -18.1360 C.3     1  UNL1        0.2020
@<TRIPOS>BOND
     1    37    36    1
     2    37    33    1
     3    36    35    1
     4    33    31    1
     5    35    32    1
     6    31    32    2
     7    31    30    1
     8    32    34    1
     9    30    29    2
    10    34    28    2
    11    29    28    1
    12    28    25    1
    13    24    23    1
    14    27    25    2
    15    25    23    1
    16    25    26    2
    17     5     6    1
    18     5     4    2
    19    23     4    1
    20     6     1    2
    21     4     3    1
    22     1     7    1
    23     1     2    1
    24     3     2    2
    25     9     8    1
    26    12    11    1
    27     7     8   am
    28     7    10    2
    29     8    11    1
    30    11    13    1
    31    13    14    2
    32    13    19    1
    33    14    15    1
    34    22    19    1
    35    22    21    2
    36    19    17    2
    37    15    16    2
    38    21    20    1
    39    17    16    1
    40    17    18    1
    41    20    18    2
