@<TRIPOS>MOLECULE
54453_out_ligand_01.pdbqt
 33 36 0 0 0
SMALL
GASTEIGER

@<TRIPOS>ATOM
      1  C         22.4620  -23.3010   -9.0590 C.2     1  UNL1        0.0420
      2  C         21.6170  -24.4070   -9.1220 C.2     1  UNL1        0.0300
      3  C         20.3830  -24.3760   -8.4690 C.2     1  UNL1        0.0090
      4  C         19.9890  -23.2440   -7.7410 C.2     1  UNL1       -0.0580
      5  C         20.8470  -22.1350   -7.6980 C.2     1  UNL1        0.0090
      6  C         22.0800  -22.1630   -8.3530 C.2     1  UNL1        0.0300
      7  N         23.7010  -23.3250   -9.7580 N.pl3   1  UNL1       -0.2810
      8  H         24.5420  -23.4370   -9.1930 H       1  UNL1        0.1790
      9  S         23.9490  -22.1690  -10.9670 S.O2    1  UNL1        0.2630
     10  O         24.6570  -21.0780  -10.3270 O.2     1  UNL1       -0.2000
     11  O         22.7230  -21.9280  -11.6930 O.2     1  UNL1       -0.2000
     12  C         25.1010  -22.9820  -12.0500 C.2     1  UNL1        0.0820
     13  C         26.1800  -23.6830  -11.5060 C.2     1  UNL1        0.0250
     14  C         27.0960  -24.3020  -12.3550 C.2     1  UNL1        0.0040
     15  C         26.9400  -24.2190  -13.7430 C.2     1  UNL1        0.0310
     16  C         25.8610  -23.5070  -14.2900 C.2     1  UNL1        0.0570
     17  C         24.9450  -22.8720  -13.4370 C.2     1  UNL1        0.0560
     18  N         25.6760  -23.4310  -15.6920 N.pl3   1  UNL1       -0.2340
     19  C         24.5600  -23.7080  -16.4430 C.2     1  UNL1        0.2490
     20  N         24.8130  -23.4600  -17.7070 N.2     1  UNL1       -0.1560
     21  N         26.1140  -23.0310  -17.7490 N.2     1  UNL1        0.0170
     22  N         26.6480  -23.0130  -16.5370 N.2     1  UNL1        0.0020
     23  C         18.6430  -23.2010   -7.0580 C.3     1  UNL1        0.0410
     24  C         17.5230  -24.0120   -7.7320 C.3     1  UNL1        0.0410
     25  C         16.5600  -23.2290   -8.6400 C.3     1  UNL1        0.1510
     26  O         15.4970  -24.0620   -9.0960 O.3     1  UNL1       -0.3910
     27  H         14.7420  -23.9080   -8.5020 H       1  UNL1        0.2100
     28  C         17.2460  -22.5090   -9.7870 C.2     1  UNL1       -0.0300
     29  C         16.7680  -21.2570  -10.2030 C.2     1  UNL1        0.0100
     30  C         17.3930  -20.5610  -11.2410 C.2     1  UNL1        0.0010
     31  C         18.5070  -21.1080  -11.8750 C.2     1  UNL1        0.0000
     32  C         18.9940  -22.3500  -11.4740 C.2     1  UNL1        0.0010
     33  C         18.3690  -23.0450  -10.4340 C.2     1  UNL1        0.0100
@<TRIPOS>BOND
     1    21    20    1
     2    21    22    2
     3    20    19    2
     4    22    18    1
     5    19    18    1
     6    18    16    1
     7    16    15    2
     8    16    17    1
     9    15    14    1
    10    17    12    2
    11    14    13    2
    12    12    13    1
    13    12     9    1
    14    31    32    2
    15    31    30    1
    16    11     9    2
    17    32    33    1
    18    30    29    2
    19     9    10    2
    20     9     7    1
    21    33    28    2
    22    29    28    1
    23    28    25    1
    24     7     8    1
    25     7     1    1
    26     2     1    2
    27     2     3    1
    28    26    25    1
    29    26    27    1
    30     1     6    1
    31    25    24    1
    32     3     4    2
    33     6     5    2
    34     4     5    1
    35     4    23    1
    36    24    23    1
