@<TRIPOS>MOLECULE
54463_out_ligand_01.pdbqt
 32 35 0 0 0
SMALL
GASTEIGER

@<TRIPOS>ATOM
      1  C         17.0800  -22.8870   -9.0400 C.2     1  UNL1        0.0800
      2  C         16.3830  -22.0530   -9.9210 C.2     1  UNL1        0.0250
      3  C         17.0660  -21.4310  -10.9660 C.2     1  UNL1        0.0030
      4  C         18.4400  -21.6360  -11.1250 C.2     1  UNL1        0.0170
      5  C         19.1370  -22.4540  -10.2240 C.2     1  UNL1        0.0330
      6  C         18.4560  -23.0840   -9.1790 C.2     1  UNL1        0.0420
      7  C         20.5920  -22.7230  -10.3810 C.2     1  UNL1        0.2560
      8  O         21.0500  -23.7130   -9.8240 O.2     1  UNL1       -0.2670
      9  N         21.2780  -21.7840  -11.1280 N.am    1  UNL1       -0.3230
     10  H         20.7680  -20.9570  -11.4060 H       1  UNL1        0.1690
     11  C         22.6460  -21.8010  -11.4730 C.2     1  UNL1        0.0370
     12  C         23.5680  -21.6360  -10.4290 C.2     1  UNL1        0.0320
     13  C         24.9430  -21.6400  -10.6800 C.2     1  UNL1        0.0420
     14  C         25.4070  -21.8120  -11.9790 C.2     1  UNL1        0.1020
     15  C         24.4960  -21.9470  -13.0300 C.2     1  UNL1        0.1040
     16  O         26.7660  -21.8290  -12.1510 O.2     1  UNL1       -0.3460
     17  C         23.1220  -21.9560  -12.7770 C.2     1  UNL1        0.0690
     18  O         24.8820  -22.0830  -14.3420 O.2     1  UNL1       -0.3460
     19  C         26.2560  -21.7220  -14.5230 C.3     1  UNL1        0.2020
     20  C         27.1210  -22.3460  -13.4400 C.3     1  UNL1        0.2020
     21  S         16.2200  -23.7110   -7.7200 S.O2    1  UNL1        0.2630
     22  O         15.4330  -22.7060   -7.0360 O.2     1  UNL1       -0.2000
     23  O         15.6050  -24.9040   -8.2580 O.2     1  UNL1       -0.2000
     24  N         17.4670  -24.1450   -6.6670 N.pl3   1  UNL1       -0.2810
     25  H         17.4740  -25.1460   -6.4770 H       1  UNL1        0.1790
     26  C         17.8090  -23.2680   -5.5990 C.2     1  UNL1        0.0430
     27  C         17.4700  -23.6300   -4.2950 C.2     1  UNL1        0.0300
     28  C         17.7680  -22.7720   -3.2360 C.2     1  UNL1        0.0030
     29  C         18.4010  -21.5530   -3.4810 C.2     1  UNL1        0.0070
     30  C         18.7350  -21.1760   -4.7880 C.2     1  UNL1       -0.0600
     31  C         19.4510  -19.8850   -5.0490 C.3     1  UNL1        0.0480
     32  C         18.4460  -22.0510   -5.8440 C.2     1  UNL1        0.0370
@<TRIPOS>BOND
     1    19    18    1
     2    19    20    1
     3    18    15    1
     4    20    16    1
     5    15    17    1
     6    15    14    2
     7    17    11    2
     8    16    14    1
     9    14    13    1
    10    11     9    1
    11    11    12    1
    12    10     9    1
    13     9     7   am
    14     4     3    2
    15     4     5    1
    16     3     2    1
    17    13    12    2
    18     7     5    1
    19     7     8    2
    20     5     6    2
    21     2     1    2
    22     6     1    1
    23     1    21    1
    24    23    21    2
    25    21    22    2
    26    21    24    1
    27    24    25    1
    28    24    26    1
    29    32    26    2
    30    32    30    1
    31    26    27    1
    32    31    30    1
    33    30    29    2
    34    27    28    2
    35    29    28    1
