@<TRIPOS>MOLECULE
54467_out_ligand_01.pdbqt
 29 32 0 0 0
SMALL
GASTEIGER

@<TRIPOS>ATOM
      1  C         20.3440  -22.8560   -7.8840 C.2     1  UNL1        0.0320
      2  C         20.1370  -21.7580   -7.0400 C.2     1  UNL1        0.0180
      3  C         19.1400  -21.8190   -6.0660 C.2     1  UNL1        0.0260
      4  C         18.3580  -22.9760   -5.9520 C.2     1  UNL1        0.0790
      5  C         18.5420  -24.0600   -6.8200 C.2     1  UNL1        0.0260
      6  C         19.5410  -23.9990   -7.7930 C.2     1  UNL1        0.0180
      7  C         21.3890  -22.7900   -8.9250 C.2     1  UNL1        0.2580
      8  O         22.5010  -23.1540   -8.5470 O.2     1  UNL1       -0.2670
      9  N         21.0190  -22.3110  -10.2010 N.am    1  UNL1       -0.3130
     10  C         19.7290  -21.6210  -10.3720 C.3     1  UNL1        0.1330
     11  C         21.9630  -22.2360  -11.2980 C.2     1  UNL1        0.0430
     12  C         19.2770  -21.4790  -11.8130 C.3     1  UNL1        0.0250
     13  C         20.3490  -20.7560  -12.5960 C.3     1  UNL1        0.0420
     14  C         21.6530  -21.4900  -12.4570 C.2     1  UNL1       -0.0310
     15  C         22.5810  -21.3840  -13.5120 C.2     1  UNL1        0.0090
     16  C         23.8030  -22.0450  -13.4500 C.2     1  UNL1        0.0010
     17  C         24.1040  -22.8140  -12.3370 C.2     1  UNL1        0.0020
     18  C         23.1930  -22.9110  -11.2780 C.2     1  UNL1        0.0300
     19  S         17.0780  -23.0430   -4.7210 S.O2    1  UNL1        0.2630
     20  O         16.9400  -24.4270   -4.3160 O.2     1  UNL1       -0.2000
     21  O         17.3110  -22.0010   -3.7440 O.2     1  UNL1       -0.2000
     22  N         15.6890  -22.6820   -5.6180 N.pl3   1  UNL1       -0.2810
     23  H         15.3170  -21.7720   -5.3450 H       1  UNL1        0.1790
     24  C         15.6940  -22.9890   -7.0050 C.2     1  UNL1        0.0420
     25  C         15.3720  -24.2810   -7.4190 C.2     1  UNL1        0.0300
     26  C         15.4020  -24.6010   -8.7760 C.2     1  UNL1        0.0020
     27  C         15.7600  -23.6320   -9.7140 C.2     1  UNL1        0.0000
     28  C         16.0880  -22.3420   -9.2950 C.2     1  UNL1        0.0020
     29  C         16.0570  -22.0200   -7.9380 C.2     1  UNL1        0.0300
@<TRIPOS>BOND
     1    15    16    2
     2    15    14    1
     3    16    17    1
     4    13    14    1
     5    13    12    1
     6    14    11    2
     7    17    18    2
     8    12    10    1
     9    11    18    1
    10    11     9    1
    11    10     9    1
    12     9     7   am
    13    27    28    2
    14    27    26    1
    15    28    29    1
    16     7     8    2
    17     7     1    1
    18    26    25    2
    19    29    24    2
    20     1     6    2
    21     1     2    1
    22     6     5    1
    23    25    24    1
    24     2     3    2
    25    24    22    1
    26     5     4    2
    27     3     4    1
    28     4    19    1
    29    22    23    1
    30    22    19    1
    31    19    20    2
    32    19    21    2
