@<TRIPOS>MOLECULE
54479_out_ligand_01.pdbqt
 31 34 0 0 0
SMALL
GASTEIGER

@<TRIPOS>ATOM
      1  C         21.4420  -21.7550  -11.9800 C.2     1  UNL1       -0.0020
      2  C         21.7540  -21.2220  -13.2160 C.2     1  UNL1        0.0650
      3  S         23.4180  -21.3460  -13.5730 S.3     1  UNL1       -0.0800
      4  C         23.7390  -22.1150  -12.0860 C.2     1  UNL1        0.1130
      5  N         24.9920  -22.4940  -11.7890 N.2     1  UNL1       -0.2340
      6  C         25.0700  -23.0810  -10.5950 C.2     1  UNL1        0.2360
      7  N         24.0740  -23.2910   -9.7230 N.2     1  UNL1       -0.2240
      8  C         22.8200  -22.8910  -10.0370 C.2     1  UNL1        0.1390
      9  C         22.6090  -22.2760  -11.2950 C.2     1  UNL1        0.0570
     10  N         21.7880  -23.1020   -9.1330 N.pl3   1  UNL1       -0.3700
     11  H         20.9470  -23.4960   -9.5340 H       1  UNL1        0.1610
     12  C         21.5770  -22.1540   -8.0580 C.3     1  UNL1        0.1600
     13  C         20.2600  -22.4380   -7.3730 C.2     1  UNL1       -0.0410
     14  C         19.5690  -23.6310   -7.6310 C.2     1  UNL1        0.0100
     15  C         18.3480  -23.8940   -7.0040 C.2     1  UNL1        0.0170
     16  C         17.7930  -22.9590   -6.1250 C.2     1  UNL1        0.0310
     17  C         18.4750  -21.7640   -5.8610 C.2     1  UNL1        0.0170
     18  C         19.6990  -21.5050   -6.4870 C.2     1  UNL1        0.0100
     19  C         16.4920  -23.2800   -5.4820 C.2     1  UNL1        0.2490
     20  N         15.4490  -22.4230   -5.7100 N.am    1  UNL1       -0.3660
     21  H         15.4550  -21.7840   -6.4910 H       1  UNL1        0.1590
     22  H         14.5460  -22.7430   -5.3820 H       1  UNL1        0.1590
     23  O         16.3350  -24.2890   -4.8050 O.2     1  UNL1       -0.2680
     24  C         20.0600  -21.7620  -11.5260 C.2     1  UNL1       -0.0240
     25  C         19.4800  -22.9390  -11.0480 C.2     1  UNL1        0.0150
     26  C         18.1440  -22.9390  -10.6370 C.2     1  UNL1        0.0370
     27  C         17.3780  -21.7710  -10.6950 C.2     1  UNL1        0.0680
     28  C         17.9600  -20.5950  -11.1720 C.2     1  UNL1        0.0370
     29  C         19.2970  -20.5900  -11.5860 C.2     1  UNL1        0.0150
     30  O         16.0880  -21.9130  -10.2660 O.2     1  UNL1       -0.3560
     31  C         15.7880  -23.0750   -9.5020 C.3     1  UNL1        0.2100
@<TRIPOS>BOND
     1     3     2    1
     2     3     4    1
     3     2     1    2
     4     4     5    2
     5     4     9    1
     6     1    24    1
     7     1     9    1
     8     5     6    1
     9    29    24    2
    10    29    28    1
    11    24    25    1
    12     9     8    2
    13    28    27    2
    14    25    26    2
    15    27    26    1
    16    27    30    1
    17     6     7    2
    18    30    31    1
    19     8     7    1
    20     8    10    1
    21    11    10    1
    22    10    12    1
    23    12    13    1
    24    14    13    2
    25    14    15    1
    26    13    18    1
    27    15    16    2
    28    21    20    1
    29    18    17    2
    30    16    17    1
    31    16    19    1
    32    20    19   am
    33    20    22    1
    34    19    23    2
