@<TRIPOS>MOLECULE
54517_out_ligand_01.pdbqt
 29 32 0 0 0
SMALL
GASTEIGER

@<TRIPOS>ATOM
      1  C         19.9610  -22.4460   -8.8780 C.2     1  UNL1       -0.0070
      2  C         21.0950  -22.4640   -8.0440 C.2     1  UNL1        0.0150
      3  C         22.3900  -22.3730   -8.5660 C.2     1  UNL1        0.0180
      4  C         22.5770  -22.2810   -9.9440 C.2     1  UNL1        0.0320
      5  C         21.4740  -22.2980  -10.7990 C.2     1  UNL1        0.0180
      6  C         20.1820  -22.3750  -10.2680 C.2     1  UNL1        0.0150
      7  C         18.6040  -22.5090   -8.2970 C.2     1  UNL1        0.0680
      8  C         17.4580  -22.6510   -9.0680 C.2     1  UNL1        0.0330
      9  C         16.2180  -22.6790   -8.4360 C.2     1  UNL1        0.0160
     10  C         16.1370  -22.5630   -7.0480 C.2     1  UNL1       -0.0040
     11  C         14.8920  -22.5810   -6.3950 C.2     1  UNL1        0.0140
     12  C         17.3350  -22.4220   -6.3190 C.2     1  UNL1        0.1010
     13  C         14.8170  -22.4540   -5.0160 C.2     1  UNL1        0.0040
     14  C         15.9870  -22.3180   -4.2780 C.2     1  UNL1        0.0390
     15  C         17.2340  -22.3200   -4.9220 C.2     1  UNL1        0.0970
     16  N         18.5350  -22.3960   -6.9490 N.2     1  UNL1       -0.2450
     17  O         18.4200  -22.1770   -4.2350 O.2     1  UNL1       -0.3540
     18  C         18.4070  -21.2600   -3.1530 C.3     1  UNL1        0.2100
     19  C         23.9340  -22.1600  -10.5300 C.2     1  UNL1        0.2510
     20  O         24.6150  -21.1620  -10.3380 O.2     1  UNL1       -0.2680
     21  N         24.3640  -23.2580  -11.2280 N.am    1  UNL1       -0.3540
     22  H         23.8940  -24.1440  -11.0540 H       1  UNL1        0.1620
     23  C         25.7310  -23.3430  -11.7200 C.3     1  UNL1        0.1550
     24  C         25.8150  -23.4550  -13.2460 C.3     1  UNL1        0.1390
     25  C         24.9740  -22.3990  -13.9730 C.3     1  UNL1        0.0340
     26  C         25.0430  -22.6080  -15.4810 C.3     1  UNL1        0.0050
     27  C         24.7210  -24.0540  -15.8470 C.3     1  UNL1        0.0260
     28  C         25.5690  -25.0100  -15.0190 C.3     1  UNL1        0.1680
     29  O         25.3750  -24.7670  -13.6300 O.3     1  UNL1       -0.3840
@<TRIPOS>BOND
     1    27    26    1
     2    27    28    1
     3    26    25    1
     4    28    29    1
     5    25    24    1
     6    29    24    1
     7    24    23    1
     8    23    21    1
     9    21    22    1
    10    21    19   am
    11     5     6    1
    12     5     4    2
    13    19    20    2
    14    19     4    1
    15     6     1    2
    16     4     3    1
    17     8     9    1
    18     8     7    2
    19     1     7    1
    20     1     2    1
    21     3     2    2
    22     9    10    2
    23     7    16    1
    24    10    11    1
    25    10    12    1
    26    16    12    2
    27    11    13    2
    28    12    15    1
    29    13    14    1
    30    15    14    2
    31    15    17    1
    32    17    18    1
