@<TRIPOS>MOLECULE
5454_out_ligand_01.pdbqt
 38 40 0 0 0
SMALL
GASTEIGER

@<TRIPOS>ATOM
      1  N         23.1260  -22.8610  -10.4390 N.3     1  UNL1       -0.1970
      2  S         24.7190  -22.3890  -10.8620 S.O2    1  UNL1        0.2440
      3  O         25.6470  -23.2500  -10.1670 O.2     1  UNL1       -0.2060
      4  O         24.8140  -20.9500  -10.7640 O.2     1  UNL1       -0.2060
      5  C         24.7910  -22.7980  -12.5880 C.2     1  UNL1        0.0770
      6  C         24.3370  -21.8670  -13.5240 C.2     1  UNL1        0.0280
      7  C         24.3360  -22.2010  -14.8800 C.2     1  UNL1        0.0410
      8  C         24.7970  -23.4570  -15.2980 C.2     1  UNL1        0.1010
      9  C         25.2860  -24.3760  -14.3430 C.2     1  UNL1        0.1020
     10  C         25.2710  -24.0480  -12.9850 C.2     1  UNL1        0.0640
     11  O         24.8340  -23.8740  -16.6040 O.2     1  UNL1       -0.3530
     12  C         24.6850  -22.8870  -17.6140 C.3     1  UNL1        0.2100
     13  O         25.7100  -25.5970  -14.8140 O.2     1  UNL1       -0.3530
     14  C         27.1200  -25.7780  -14.8720 C.3     1  UNL1        0.2100
     15  C         22.1280  -21.7420  -10.5360 C.3     1  UNL1        0.1120
     16  C         21.2320  -21.9560  -11.7620 C.3     1  UNL1        0.0540
     17  C         19.7670  -21.7840  -11.4480 C.2     1  UNL1       -0.0570
     18  C         19.0470  -22.8320  -10.8540 C.2     1  UNL1        0.0070
     19  C         17.6950  -22.6730  -10.5440 C.2     1  UNL1        0.0010
     20  C         17.0540  -21.4660  -10.8120 C.2     1  UNL1        0.0000
     21  C         17.7600  -20.4210  -11.4070 C.2     1  UNL1        0.0010
     22  C         19.1100  -20.5790  -11.7250 C.2     1  UNL1        0.0070
     23  C         22.9790  -23.6420   -9.1780 C.3     1  UNL1        0.2100
     24  C         21.5480  -24.0080   -8.7910 C.2     1  UNL1        0.2360
     25  O         21.0330  -25.0340   -9.2290 O.2     1  UNL1       -0.2720
     26  N         20.9610  -23.0780   -7.9410 N.am    1  UNL1       -0.3260
     27  H         21.5050  -22.2590   -7.6950 H       1  UNL1        0.1690
     28  C         19.6440  -23.0990   -7.4370 C.2     1  UNL1        0.0340
     29  C         19.1630  -21.9160   -6.8650 C.2     1  UNL1        0.0300
     30  C         17.8680  -21.8500   -6.3320 C.2     1  UNL1        0.0190
     31  C         17.0330  -22.9690   -6.3800 C.2     1  UNL1        0.0320
     32  C         17.5150  -24.1540   -6.9430 C.2     1  UNL1        0.0190
     33  C         18.8110  -24.2170   -7.4710 C.2     1  UNL1        0.0300
     34  C         15.6540  -22.9650   -5.8230 C.2     1  UNL1        0.2490
     35  N         15.3220  -23.9560   -4.9420 N.am    1  UNL1       -0.3660
     36  H         14.4130  -23.8660   -4.5000 H       1  UNL1        0.1590
     37  H         16.0020  -24.5530   -4.4940 H       1  UNL1        0.1590
     38  O         14.8450  -22.0940   -6.1150 O.2     1  UNL1       -0.2680
@<TRIPOS>BOND
     1    12    11    1
     2    11     8    1
     3     8     7    2
     4     8     9    1
     5     7     6    1
     6    14    13    1
     7    13     9    1
     8     9    10    2
     9     6     5    2
    10    10     5    1
    11     5     2    1
    12    16    17    1
    13    16    15    1
    14    22    17    2
    15    22    21    1
    16    17    18    1
    17    21    20    2
    18     2     4    2
    19     2     1    1
    20     2     3    2
    21    18    19    2
    22    20    19    1
    23    15     1    1
    24     1    23    1
    25    25    24    2
    26    23    24    1
    27    24    26   am
    28    26    27    1
    29    26    28    1
    30    33    28    2
    31    33    32    1
    32    28    29    1
    33    32    31    2
    34    29    30    2
    35    31    30    1
    36    31    34    1
    37    38    34    2
    38    34    35   am
    39    35    36    1
    40    35    37    1
