@<TRIPOS>MOLECULE
54544_out_ligand_01.pdbqt
 29 32 0 0 0
SMALL
GASTEIGER

@<TRIPOS>ATOM
      1  C         22.2600  -22.1820   -9.7670 C.2     1  UNL1        0.0320
      2  C         21.0450  -22.4870  -10.3910 C.2     1  UNL1        0.0180
      3  C         19.8850  -22.6620   -9.6230 C.2     1  UNL1        0.0160
      4  C         19.9220  -22.5290   -8.2260 C.2     1  UNL1        0.0100
      5  C         21.1470  -22.2170   -7.6160 C.2     1  UNL1        0.0160
      6  C         22.3050  -22.0330   -8.3780 C.2     1  UNL1        0.0180
      7  C         23.5120  -21.9780  -10.5410 C.2     1  UNL1        0.2520
      8  N         23.6770  -22.7730  -11.6570 N.am    1  UNL1       -0.3510
      9  H         22.9610  -23.4410  -11.9060 H       1  UNL1        0.1630
     10  O         24.3400  -21.1570  -10.1670 O.2     1  UNL1       -0.2680
     11  C         24.8060  -22.5850  -12.5610 C.3     1  UNL1        0.1020
     12  C         25.6250  -23.8770  -12.6770 C.3     1  UNL1        0.0280
     13  C         26.5450  -23.9080  -13.8990 C.3     1  UNL1        0.0220
     14  C         26.7380  -22.5390  -14.5420 C.3     1  UNL1        0.1260
     15  N         25.4500  -21.9480  -14.9030 N.am    1  UNL1       -0.3500
     16  C         25.1890  -21.2700  -16.0850 C.2     1  UNL1        0.2150
     17  C         24.3520  -22.0920  -13.9460 C.3     1  UNL1        0.1500
     18  C         26.3480  -21.0250  -17.0150 C.3     1  UNL1        0.1170
     19  O         24.0590  -20.8810  -16.3850 O.2     1  UNL1       -0.2740
     20  C         18.7320  -22.7060   -7.3870 C.ar    1  UNL1        0.1390
     21  N         17.6710  -23.4300   -7.6960 N.ar    1  UNL1       -0.2280
     22  C         16.8100  -23.3250   -6.6320 C.ar    1  UNL1        0.0860
     23  C         15.5400  -23.8900   -6.4430 C.2     1  UNL1        0.0340
     24  C         17.3520  -22.5260   -5.6360 C.ar    1  UNL1        0.0620
     25  C         14.8610  -23.6270   -5.2470 C.2     1  UNL1        0.0020
     26  C         15.4340  -22.8190   -4.2610 C.2     1  UNL1        0.0020
     27  C         16.7010  -22.2470   -4.4330 C.2     1  UNL1        0.0320
     28  N         18.5730  -22.1520   -6.1360 N.ar    1  UNL1       -0.3380
     29  H         19.2510  -21.5830   -5.6550 H       1  UNL1        0.1670
@<TRIPOS>BOND
     1    18    16    1
     2    19    16    2
     3    16    15   am
     4    15    14    1
     5    15    17    1
     6    14    13    1
     7    17    11    1
     8    13    12    1
     9    12    11    1
    10    11     8    1
    11     9     8    1
    12     8     7   am
    13     7    10    2
    14     7     1    1
    15     2     1    2
    16     2     3    1
    17     1     6    1
    18     3     4    2
    19     6     5    2
    20     4     5    1
    21     4    20    1
    22    21    20   ar
    23    21    22   ar
    24    20    28   ar
    25    22    23    2
    26    22    24   ar
    27    23    25    1
    28    28    29    1
    29    28    24   ar
    30    24    27    2
    31    25    26    2
    32    27    26    1
