@<TRIPOS>MOLECULE
5456_out_ligand_01.pdbqt
 36 38 0 0 0
SMALL
GASTEIGER

@<TRIPOS>ATOM
      1  N         22.9880  -22.5080  -10.6140 N.3     1  UNL1       -0.2980
      2  S         24.6250  -22.2830  -10.9280 S.O2    1  UNL1        0.2610
      3  O         24.9090  -20.8720  -10.7860 O.2     1  UNL1       -0.2000
      4  O         25.3650  -23.2800  -10.1760 O.2     1  UNL1       -0.2000
      5  C         24.7630  -22.7190  -12.6440 C.2     1  UNL1        0.0790
      6  C         25.2070  -23.9910  -13.0050 C.2     1  UNL1        0.0280
      7  C         25.3220  -24.3140  -14.3590 C.2     1  UNL1        0.0380
      8  C         25.0010  -23.3780  -15.3480 C.2     1  UNL1        0.0680
      9  C         24.5540  -22.1080  -14.9740 C.2     1  UNL1        0.0380
     10  C         24.4310  -21.7770  -13.6220 C.2     1  UNL1        0.0280
     11  O         25.1660  -23.8260  -16.6300 O.2     1  UNL1       -0.3560
     12  C         24.5200  -23.0840  -17.6600 C.3     1  UNL1        0.2100
     13  C         22.0180  -21.4270  -10.8810 C.3     1  UNL1        0.1400
     14  C         21.0280  -21.7790  -11.9960 C.3     1  UNL1        0.0590
     15  C         19.6060  -21.7300  -11.4940 C.2     1  UNL1       -0.0570
     16  C         18.8320  -20.5770  -11.6790 C.2     1  UNL1        0.0070
     17  C         17.5090  -20.5400  -11.2460 C.2     1  UNL1        0.0010
     18  C         16.9430  -21.6560  -10.6290 C.2     1  UNL1        0.0000
     19  C         17.7040  -22.8090  -10.4430 C.2     1  UNL1        0.0010
     20  C         19.0300  -22.8470  -10.8750 C.2     1  UNL1        0.0070
     21  C         22.5900  -23.5430   -9.6390 C.3     1  UNL1        0.2380
     22  C         21.8160  -22.8910   -8.4950 C.2     1  UNL1        0.2400
     23  O         22.2730  -21.9150   -7.9050 O.2     1  UNL1       -0.2710
     24  N         20.5830  -23.4800   -8.2660 N.am    1  UNL1       -0.3260
     25  H         20.2790  -24.1660   -8.9630 H       1  UNL1        0.1690
     26  C         19.6090  -23.0990   -7.3250 C.2     1  UNL1        0.0340
     27  C         19.6010  -21.8700   -6.6610 C.2     1  UNL1        0.0300
     28  C         18.5790  -21.5550   -5.7540 C.2     1  UNL1        0.0190
     29  C         17.5550  -22.4740   -5.4890 C.2     1  UNL1        0.0320
     30  C         17.5750  -23.7110   -6.1470 C.2     1  UNL1        0.0190
     31  C         18.5900  -24.0190   -7.0560 C.2     1  UNL1        0.0300
     32  C         16.4370  -22.2110   -4.5360 C.2     1  UNL1        0.2490
     33  N         16.7370  -21.9510   -3.2280 N.am    1  UNL1       -0.3660
     34  H         15.9490  -21.8420   -2.6020 H       1  UNL1        0.1590
     35  H         17.6510  -22.0270   -2.8160 H       1  UNL1        0.1590
     36  O         15.2660  -22.2340   -4.9010 O.2     1  UNL1       -0.2680
@<TRIPOS>BOND
     1    12    11    1
     2    11     8    1
     3     8     9    2
     4     8     7    1
     5     9    10    1
     6     7     6    2
     7    10     5    2
     8     6     5    1
     9     5     2    1
    10    14    15    1
    11    14    13    1
    12    16    15    2
    13    16    17    1
    14    15    20    1
    15    17    18    2
    16     2     3    2
    17     2     1    1
    18     2     4    2
    19    13     1    1
    20    20    19    2
    21    18    19    1
    22     1    21    1
    23    21    22    1
    24    25    24    1
    25    22    24   am
    26    22    23    2
    27    24    26    1
    28    26    31    2
    29    26    27    1
    30    31    30    1
    31    27    28    2
    32    30    29    2
    33    28    29    1
    34    29    32    1
    35    36    32    2
    36    32    33   am
    37    33    35    1
    38    33    34    1
