@<TRIPOS>MOLECULE
5457_out_ligand_01.pdbqt
 34 36 0 0 0
SMALL
GASTEIGER

@<TRIPOS>ATOM
      1  N         22.6520  -22.6950  -10.4410 N.3     1  UNL1       -0.2980
      2  C         22.2810  -23.6360   -9.3480 C.3     1  UNL1        0.2380
      3  C         21.4350  -22.9670   -8.2720 C.2     1  UNL1        0.2400
      4  N         20.2210  -23.5950   -8.0530 N.am    1  UNL1       -0.3260
      5  H         20.0860  -24.4650   -8.5610 H       1  UNL1        0.1690
      6  O         21.8740  -21.9960   -7.6610 O.2     1  UNL1       -0.2710
      7  C         19.1980  -23.2210   -7.1680 C.2     1  UNL1        0.0340
      8  C         19.1480  -21.9920   -6.5090 C.2     1  UNL1        0.0300
      9  C         18.0910  -21.7040   -5.6360 C.2     1  UNL1        0.0190
     10  C         17.0660  -22.6370   -5.4130 C.2     1  UNL1        0.0320
     11  C         17.1030  -23.8590   -6.0910 C.2     1  UNL1        0.0190
     12  C         18.1650  -24.1520   -6.9510 C.2     1  UNL1        0.0300
     13  C         15.9790  -22.2720   -4.4670 C.2     1  UNL1        0.2490
     14  N         16.3120  -22.0840   -3.1530 N.am    1  UNL1       -0.3660
     15  H         15.5830  -21.6810   -2.5730 H       1  UNL1        0.1590
     16  H         17.2680  -21.9440   -2.8500 H       1  UNL1        0.1590
     17  O         14.8320  -22.0920   -4.8500 O.2     1  UNL1       -0.2680
     18  C         21.7030  -21.5660  -10.6350 C.3     1  UNL1        0.1400
     19  C         20.7310  -21.8550  -11.7880 C.3     1  UNL1        0.0590
     20  C         19.2880  -21.8060  -11.3470 C.2     1  UNL1       -0.0570
     21  C         18.6940  -22.9200  -10.7370 C.2     1  UNL1        0.0070
     22  C         17.3740  -22.8620  -10.2840 C.2     1  UNL1        0.0010
     23  C         16.6350  -21.6890  -10.4340 C.2     1  UNL1        0.0000
     24  C         17.2150  -20.5790  -11.0440 C.2     1  UNL1        0.0010
     25  C         18.5350  -20.6390  -11.5000 C.2     1  UNL1        0.0070
     26  S         24.3000  -22.4190  -10.6870 S.O2    1  UNL1        0.2610
     27  O         25.0540  -23.4720  -10.0450 O.2     1  UNL1       -0.2000
     28  O         24.5220  -21.0340  -10.3240 O.2     1  UNL1       -0.2000
     29  C         24.5050  -22.5840  -12.4410 C.2     1  UNL1        0.0790
     30  C         25.0880  -23.7490  -12.9590 C.2     1  UNL1        0.0250
     31  C         25.2750  -23.8690  -14.3370 C.2     1  UNL1        0.0020
     32  C         24.8920  -22.8250  -15.1830 C.2     1  UNL1        0.0000
     33  C         24.3410  -21.6550  -14.6630 C.2     1  UNL1        0.0020
     34  C         24.1540  -21.5240  -13.2880 C.2     1  UNL1        0.0250
@<TRIPOS>BOND
     1    32    33    2
     2    32    31    1
     3    33    34    1
     4    31    30    2
     5    34    29    2
     6    30    29    1
     7    29    26    1
     8    19    20    1
     9    19    18    1
    10    25    20    2
    11    25    24    1
    12    20    21    1
    13    24    23    2
    14    21    22    2
    15    26     1    1
    16    26    28    2
    17    26    27    2
    18    18     1    1
    19     1     2    1
    20    23    22    1
    21     2     3    1
    22     5     4    1
    23     3     4   am
    24     3     6    2
    25     4     7    1
    26     7    12    2
    27     7     8    1
    28    12    11    1
    29     8     9    2
    30    11    10    2
    31     9    10    1
    32    10    13    1
    33    17    13    2
    34    13    14   am
    35    14    16    1
    36    14    15    1
