@<TRIPOS>MOLECULE
5458_out_ligand_01.pdbqt
 28 30 0 0 0
SMALL
GASTEIGER

@<TRIPOS>ATOM
      1  N         19.8340  -22.9620   -9.3710 N.am    1  UNL1       -0.3260
      2  C         19.9940  -22.7960   -8.0020 C.2     1  UNL1        0.2350
      3  O         20.9760  -22.2840   -7.4640 O.2     1  UNL1       -0.2720
      4  H         18.9840  -23.4210   -9.6750 H       1  UNL1        0.1690
      5  C         18.7910  -23.2570   -7.1430 C.3     1  UNL1        0.1440
      6  C         17.4910  -23.3970   -7.9440 C.2     1  UNL1       -0.0410
      7  C         17.0920  -22.4620   -8.9140 C.2     1  UNL1        0.0080
      8  C         15.9210  -22.6550   -9.6510 C.2     1  UNL1        0.0010
      9  C         15.1360  -23.7850   -9.4340 C.2     1  UNL1        0.0000
     10  C         15.5180  -24.7240   -8.4800 C.2     1  UNL1        0.0010
     11  C         16.6870  -24.5320   -7.7400 C.2     1  UNL1        0.0080
     12  C         18.6530  -22.4810   -5.8310 C.2     1  UNL1       -0.0410
     13  C         18.0280  -23.1030   -4.7350 C.2     1  UNL1        0.0080
     14  C         17.8570  -22.4240   -3.5280 C.2     1  UNL1        0.0010
     15  C         18.3030  -21.1120   -3.3970 C.2     1  UNL1        0.0000
     16  C         18.9190  -20.4780   -4.4730 C.2     1  UNL1        0.0010
     17  C         19.0920  -21.1550   -5.6830 C.2     1  UNL1        0.0080
     18  C         20.7310  -22.6070  -10.3980 C.2     1  UNL1        0.0340
     19  C         20.2530  -21.7410  -11.3880 C.2     1  UNL1        0.0300
     20  C         21.0780  -21.3340  -12.4420 C.2     1  UNL1        0.0190
     21  C         22.3990  -21.7850  -12.5170 C.2     1  UNL1        0.0320
     22  C         22.8770  -22.6630  -11.5390 C.2     1  UNL1        0.0190
     23  C         22.0470  -23.0670  -10.4850 C.2     1  UNL1        0.0300
     24  C         23.2390  -21.3250  -13.6560 C.2     1  UNL1        0.2490
     25  N         22.7410  -20.3320  -14.4530 N.am    1  UNL1       -0.3660
     26  H         23.2770  -20.1260  -15.2870 H       1  UNL1        0.1590
     27  H         21.7640  -20.0790  -14.4560 H       1  UNL1        0.1590
     28  O         24.3240  -21.8380  -13.9020 O.2     1  UNL1       -0.2680
@<TRIPOS>BOND
     1    26    25    1
     2    27    25    1
     3    25    24   am
     4    28    24    2
     5    24    21    1
     6    21    20    2
     7    21    22    1
     8    20    19    1
     9    22    23    2
    10    19    18    2
    11    23    18    1
    12    18     1    1
    13     4     1    1
    14     8     9    2
    15     8     7    1
    16     9    10    1
    17     1     2   am
    18     7     6    2
    19    10    11    2
    20     2     3    2
    21     2     5    1
    22     6    11    1
    23     6     5    1
    24     5    12    1
    25    12    17    2
    26    12    13    1
    27    17    16    1
    28    13    14    2
    29    16    15    2
    30    14    15    1
