@<TRIPOS>MOLECULE
5459_out_ligand_01.pdbqt
 29 31 0 0 0
SMALL
GASTEIGER

@<TRIPOS>ATOM
      1  N         20.1470  -22.8760   -9.5230 N.am    1  UNL1       -0.3260
      2  C         20.2010  -22.6690   -8.1450 C.2     1  UNL1        0.2350
      3  O         21.1470  -22.1590   -7.5510 O.2     1  UNL1       -0.2720
      4  H         19.2560  -23.1880   -9.8940 H       1  UNL1        0.1690
      5  C         18.9200  -23.1720   -7.4300 C.3     1  UNL1        0.1440
      6  C         17.6740  -23.0800   -8.3130 C.2     1  UNL1       -0.0410
      7  C         17.5040  -22.0420   -9.2450 C.2     1  UNL1        0.0080
      8  C         16.3600  -21.9810  -10.0410 C.2     1  UNL1        0.0010
      9  C         15.3660  -22.9490   -9.9110 C.2     1  UNL1        0.0000
     10  C         15.5120  -23.9750   -8.9810 C.2     1  UNL1        0.0010
     11  C         16.6560  -24.0400   -8.1830 C.2     1  UNL1        0.0080
     12  C         18.6820  -22.5810   -6.0430 C.2     1  UNL1       -0.0410
     13  C         19.0560  -21.2660   -5.7230 C.2     1  UNL1        0.0080
     14  C         18.8040  -20.7390   -4.4550 C.2     1  UNL1        0.0010
     15  C         18.1680  -21.5150   -3.4890 C.2     1  UNL1        0.0000
     16  C         17.7840  -22.8190   -3.7900 C.2     1  UNL1        0.0010
     17  C         18.0360  -23.3490   -5.0570 C.2     1  UNL1        0.0080
     18  C         21.1500  -22.6000  -10.4750 C.2     1  UNL1        0.0340
     19  C         20.8030  -21.7480  -11.5340 C.2     1  UNL1        0.0310
     20  C         21.7340  -21.4220  -12.5250 C.2     1  UNL1        0.0270
     21  C         23.0220  -21.9530  -12.4550 C.2     1  UNL1        0.0740
     22  C         23.3770  -22.8190  -11.4200 C.2     1  UNL1        0.0270
     23  C         22.4400  -23.1360  -10.4300 C.2     1  UNL1        0.0310
     24  S         24.2180  -21.5560  -13.7020 S.O2    1  UNL1        0.2390
     25  O         24.5380  -22.7610  -14.4330 O.2     1  UNL1       -0.2060
     26  O         25.2280  -20.7120  -13.1110 O.2     1  UNL1       -0.2060
     27  N         23.3050  -20.6190  -14.7610 N.3     1  UNL1       -0.2250
     28  H         23.2610  -19.6630  -14.4040 H       1  UNL1        0.1360
     29  H         23.6390  -20.6530  -15.7240 H       1  UNL1        0.1360
@<TRIPOS>BOND
     1    29    27    1
     2    27    28    1
     3    27    24    1
     4    25    24    2
     5    24    26    2
     6    24    21    1
     7    20    21    2
     8    20    19    1
     9    21    22    1
    10    19    18    2
    11    22    23    2
    12    18    23    1
    13    18     1    1
    14     8     9    2
    15     8     7    1
    16     9    10    1
    17     4     1    1
    18     1     2   am
    19     7     6    2
    20    10    11    2
    21     6    11    1
    22     6     5    1
    23     2     3    2
    24     2     5    1
    25     5    12    1
    26    12    13    2
    27    12    17    1
    28    13    14    1
    29    17    16    2
    30    14    15    2
    31    16    15    1
