@<TRIPOS>MOLECULE
54612_out_ligand_01.pdbqt
 32 35 0 0 0
SMALL
GASTEIGER

@<TRIPOS>ATOM
      1  C         22.0650  -22.1760   -9.4520 C.2     1  UNL1        0.0320
      2  C         20.9610  -22.7760  -10.0660 C.2     1  UNL1        0.0180
      3  C         19.8030  -23.0480   -9.3290 C.2     1  UNL1        0.0130
      4  C         19.7250  -22.7320   -7.9630 C.2     1  UNL1       -0.0260
      5  C         20.8490  -22.1480   -7.3540 C.2     1  UNL1        0.0130
      6  C         22.0110  -21.8750   -8.0870 C.2     1  UNL1        0.0180
      7  C         23.2690  -21.9000  -10.2830 C.2     1  UNL1        0.2520
      8  N         23.3920  -22.6260  -11.4510 N.am    1  UNL1       -0.3520
      9  H         22.7160  -23.3420  -11.6710 H       1  UNL1        0.1630
     10  O         24.1020  -21.0820   -9.9080 O.2     1  UNL1       -0.2680
     11  C         24.5390  -22.4550  -12.3380 C.3     1  UNL1        0.0880
     12  C         24.3530  -21.2630  -13.2900 C.3     1  UNL1        0.0550
     13  C         23.8800  -21.7160  -14.6680 C.3     1  UNL1        0.2750
     14  N         24.7910  -22.6620  -15.3240 N.3     1  UNL1        0.0970
     15  C         25.5890  -23.4640  -14.3860 C.3     1  UNL1        0.2750
     16  C         24.8270  -23.7560  -13.0980 C.3     1  UNL1        0.0550
     17  C         25.6720  -22.0430  -16.3340 C.3     1  UNL1        0.3740
     18  C         24.8830  -21.2090  -17.3490 C.2     1  UNL1        0.2430
     19  N         25.1480  -19.8640  -17.3310 N.am    1  UNL1       -0.3690
     20  H         24.5760  -19.2940  -17.9430 H       1  UNL1        0.1590
     21  H         25.5270  -19.4200  -16.5080 H       1  UNL1        0.1590
     22  O         24.0760  -21.6680  -18.1530 O.2     1  UNL1       -0.2720
     23  C         18.5020  -23.0100   -7.1910 C.2     1  UNL1       -0.0240
     24  C         17.6160  -24.0220   -7.5930 C.2     1  UNL1        0.0130
     25  C         16.4420  -24.3020   -6.8790 C.2     1  UNL1        0.0140
     26  C         16.1410  -23.5510   -5.7290 C.2     1  UNL1       -0.0080
     27  C         15.0710  -23.5590   -4.7930 C.2     1  UNL1        0.0300
     28  C         17.0240  -22.5480   -5.3350 C.2     1  UNL1        0.0430
     29  C         15.3190  -22.5760   -3.8630 C.2     1  UNL1        0.0890
     30  N         16.5010  -21.9700   -4.2010 N.pl3   1  UNL1       -0.3650
     31  H         16.9320  -21.2090   -3.6960 H       1  UNL1        0.1650
     32  C         18.2020  -22.2590   -6.0390 C.2     1  UNL1        0.0420
@<TRIPOS>BOND
     1    22    18    2
     2    20    19    1
     3    18    19   am
     4    18    17    1
     5    19    21    1
     6    17    14    1
     7    14    13    1
     8    14    15    1
     9    13    12    1
    10    15    16    1
    11    12    11    1
    12    16    11    1
    13    11     8    1
    14     9     8    1
    15     8     7   am
    16     7    10    2
    17     7     1    1
    18     2     1    2
    19     2     3    1
    20     1     6    1
    21     3     4    2
    22     6     5    2
    23     4     5    1
    24     4    23    1
    25    24    23    2
    26    24    25    1
    27    23    32    1
    28    25    26    2
    29    32    28    2
    30    26    28    1
    31    26    27    1
    32    28    30    1
    33    27    29    2
    34    30    29    1
    35    30    31    1
