@<TRIPOS>MOLECULE
54616_out_ligand_01.pdbqt
 32 34 0 0 0
SMALL
GASTEIGER

@<TRIPOS>ATOM
      1  N         20.9930  -22.3300  -10.2980 N.am    1  UNL1       -0.3090
      2  C         20.6260  -23.2970   -9.3880 C.2     1  UNL1        0.3200
      3  O         21.3460  -24.1730   -8.9270 O.2     1  UNL1       -0.2470
      4  N         19.2890  -23.1770   -9.0580 N.am    1  UNL1       -0.3420
      5  H         20.2330  -21.8540  -10.7600 H       1  UNL1        0.1700
      6  H         18.8400  -22.3010   -9.2730 H       1  UNL1        0.1640
      7  C         22.2890  -22.0530  -10.7750 C.2     1  UNL1        0.0370
      8  C         23.3980  -21.8800   -9.9550 C.2     1  UNL1        0.0320
      9  C         24.6550  -21.5930  -10.5040 C.2     1  UNL1        0.0400
     10  C         24.8290  -21.4690  -11.8880 C.2     1  UNL1        0.0840
     11  C         23.7080  -21.6330  -12.7270 C.2     1  UNL1        0.0670
     12  C         22.4510  -21.9210  -12.1570 C.2     1  UNL1        0.0490
     13  O         26.0400  -21.1890  -12.4720 O.2     1  UNL1       -0.3550
     14  C         26.5550  -19.8690  -12.3380 C.3     1  UNL1        0.2100
     15  C         23.7310  -21.5240  -14.2200 C.2     1  UNL1        0.2520
     16  N         23.1350  -20.4470  -14.8040 N.am    1  UNL1       -0.3660
     17  H         22.6820  -19.7300  -14.2510 H       1  UNL1        0.1590
     18  H         23.1470  -20.3720  -15.8120 H       1  UNL1        0.1590
     19  O         24.2700  -22.3770  -14.9170 O.2     1  UNL1       -0.2680
     20  C         18.6810  -24.0070   -8.0290 C.3     1  UNL1        0.1380
     21  C         17.4330  -23.3600   -7.3450 C.3     1  UNL1        0.0030
     22  C         16.3950  -24.4630   -7.0100 C.3     1  UNL1        0.0160
     23  C         15.6800  -24.7820   -8.3200 C.3     1  UNL1        0.0010
     24  C         15.8360  -23.5470   -9.2000 C.3     1  UNL1        0.0010
     25  C         16.6040  -22.5310   -8.3580 C.3     1  UNL1        0.0160
     26  C         17.8470  -22.5830   -6.0920 C.2     1  UNL1       -0.0450
     27  C         17.5200  -23.0690   -4.8110 C.2     1  UNL1        0.0080
     28  C         17.9120  -22.3910   -3.6520 C.2     1  UNL1        0.0040
     29  C         18.6480  -21.2150   -3.7490 C.2     1  UNL1        0.0420
     30  C         18.9900  -20.7340   -5.0040 C.2     1  UNL1        0.1170
     31  F         19.7090  -19.6070   -5.1050 F       1  UNL1       -0.2060
     32  C         18.6040  -21.4020   -6.1640 C.2     1  UNL1        0.0500
@<TRIPOS>BOND
     1    18    16    1
     2    19    15    2
     3    16    17    1
     4    16    15   am
     5    15    11    1
     6    11    12    1
     7    11    10    2
     8    13    14    1
     9    13    10    1
    10    12     7    2
    11    10     9    1
    12     7     1    1
    13     7     8    1
    14     5     1    1
    15     9     8    2
    16     1     2   am
    17     2     4   am
    18     2     3    2
    19     6     4    1
    20    24    25    1
    21    24    23    1
    22     4    20    1
    23    25    21    1
    24    23    22    1
    25    20    21    1
    26    21    22    1
    27    21    26    1
    28    32    26    2
    29    32    30    1
    30    26    27    1
    31    31    30    1
    32    30    29    2
    33    27    28    2
    34    29    28    1
