@<TRIPOS>MOLECULE
5462_out_ligand_01.pdbqt
 35 37 0 0 0
SMALL
GASTEIGER

@<TRIPOS>ATOM
      1  N         23.2090  -22.3180  -10.5050 N.3     1  UNL1       -0.2980
      2  S         24.8600  -22.1910  -10.9320 S.O2    1  UNL1        0.2610
      3  O         25.5700  -23.2850  -10.3090 O.2     1  UNL1       -0.2000
      4  O         25.2530  -20.8190  -10.7000 O.2     1  UNL1       -0.2000
      5  C         24.8310  -22.4470  -12.6860 C.2     1  UNL1        0.0790
      6  C         25.0970  -23.7120  -13.2130 C.2     1  UNL1        0.0260
      7  C         25.0740  -23.8970  -14.5960 C.2     1  UNL1        0.0080
      8  C         24.7900  -22.8240  -15.4520 C.2     1  UNL1       -0.0620
      9  C         24.8080  -23.0190  -16.9400 C.3     1  UNL1        0.0480
     10  C         24.5600  -21.5520  -14.9100 C.2     1  UNL1        0.0080
     11  C         24.5790  -21.3590  -13.5280 C.2     1  UNL1        0.0260
     12  C         22.2040  -22.5720  -11.5800 C.3     1  UNL1        0.1400
     13  C         21.3560  -21.3560  -11.9650 C.3     1  UNL1        0.0590
     14  C         19.9270  -21.5300  -11.5090 C.2     1  UNL1       -0.0570
     15  C         19.0110  -20.4750  -11.6240 C.2     1  UNL1        0.0070
     16  C         17.6850  -20.6460  -11.2270 C.2     1  UNL1        0.0010
     17  C         17.2600  -21.8710  -10.7170 C.2     1  UNL1        0.0000
     18  C         18.1630  -22.9270  -10.6010 C.2     1  UNL1        0.0010
     19  C         19.4900  -22.7590  -10.9970 C.2     1  UNL1        0.0070
     20  C         22.9910  -23.1590   -9.2780 C.3     1  UNL1        0.2380
     21  C         22.0150  -22.5050   -8.3010 C.2     1  UNL1        0.2400
     22  O         22.3270  -21.4840   -7.6940 O.2     1  UNL1       -0.2710
     23  N         20.8460  -23.2290   -8.1510 N.am    1  UNL1       -0.3260
     24  H         20.7910  -24.0430   -8.7550 H       1  UNL1        0.1690
     25  C         19.7420  -22.9500   -7.3300 C.2     1  UNL1        0.0340
     26  C         18.7440  -23.9310   -7.2460 C.2     1  UNL1        0.0300
     27  C         17.6120  -23.7330   -6.4480 C.2     1  UNL1        0.0190
     28  C         17.4670  -22.5490   -5.7190 C.2     1  UNL1        0.0320
     29  C         18.4530  -21.5620   -5.8150 C.2     1  UNL1        0.0190
     30  C         19.5860  -21.7640   -6.6120 C.2     1  UNL1        0.0300
     31  C         16.2820  -22.2880   -4.8580 C.2     1  UNL1        0.2490
     32  N         16.5130  -22.0110   -3.5390 N.am    1  UNL1       -0.3660
     33  H         15.7030  -21.7030   -3.0150 H       1  UNL1        0.1590
     34  H         17.4160  -21.7020   -3.2110 H       1  UNL1        0.1590
     35  O         15.1440  -22.2820   -5.3080 O.2     1  UNL1       -0.2680
@<TRIPOS>BOND
     1     9     8    1
     2     8    10    2
     3     8     7    1
     4    10    11    1
     5     7     6    2
     6    11     5    2
     7     6     5    1
     8     5     2    1
     9    13    12    1
    10    13    14    1
    11    15    14    2
    12    15    16    1
    13    12     1    1
    14    14    19    1
    15    16    17    2
    16    19    18    2
    17     2     4    2
    18     2     1    1
    19     2     3    2
    20    17    18    1
    21     1    20    1
    22    20    21    1
    23    24    23    1
    24    21    23   am
    25    21    22    2
    26    23    25    1
    27    25    26    2
    28    25    30    1
    29    26    27    1
    30    30    29    2
    31    27    28    2
    32    29    28    1
    33    28    31    1
    34    35    31    2
    35    31    32   am
    36    32    34    1
    37    32    33    1
