@<TRIPOS>MOLECULE
5463_out_ligand_01.pdbqt
 35 37 0 0 0
SMALL
GASTEIGER

@<TRIPOS>ATOM
      1  N         23.0120  -22.6830  -10.6370 N.3     1  UNL1       -0.1970
      2  C         22.7060  -23.4690   -9.4140 C.3     1  UNL1        0.2100
      3  C         21.8580  -22.7540   -8.3680 C.2     1  UNL1        0.2360
      4  N         20.5980  -23.3180   -8.2160 N.am    1  UNL1       -0.3260
      5  H         20.3450  -24.0690   -8.8460 H       1  UNL1        0.1690
      6  O         22.2940  -21.7730   -7.7710 O.2     1  UNL1       -0.2720
      7  C         19.6120  -22.9630   -7.2730 C.2     1  UNL1        0.0340
      8  C         19.6300  -21.7810   -6.5320 C.2     1  UNL1        0.0300
      9  C         18.6180  -21.5040   -5.6020 C.2     1  UNL1        0.0190
     10  C         17.5690  -22.4100   -5.4110 C.2     1  UNL1        0.0320
     11  C         17.5580  -23.6030   -6.1410 C.2     1  UNL1        0.0190
     12  C         18.5720  -23.8770   -7.0640 C.2     1  UNL1        0.0300
     13  C         16.4700  -22.1670   -4.4390 C.2     1  UNL1        0.2490
     14  N         16.8120  -21.8520   -3.1530 N.am    1  UNL1       -0.3660
     15  H         16.0500  -21.5810   -2.5460 H       1  UNL1        0.1590
     16  H         17.7400  -21.5520   -2.8950 H       1  UNL1        0.1590
     17  O         15.2930  -22.2130   -4.7780 O.2     1  UNL1       -0.2680
     18  C         22.0910  -21.5170  -10.8190 C.3     1  UNL1        0.1120
     19  C         21.0840  -21.8070  -11.9380 C.3     1  UNL1        0.0540
     20  C         19.6470  -21.7460  -11.4700 C.2     1  UNL1       -0.0570
     21  C         19.0560  -22.8470  -10.8340 C.2     1  UNL1        0.0070
     22  C         17.7230  -22.7950  -10.4260 C.2     1  UNL1        0.0010
     23  C         16.9680  -21.6450  -10.6490 C.2     1  UNL1        0.0000
     24  C         17.5460  -20.5450  -11.2790 C.2     1  UNL1        0.0010
     25  C         18.8790  -20.5940  -11.6880 C.2     1  UNL1        0.0070
     26  S         24.6450  -22.3320  -10.9660 S.O2    1  UNL1        0.2440
     27  O         25.4590  -23.3760  -10.3860 O.2     1  UNL1       -0.2060
     28  O         24.8730  -20.9390  -10.6520 O.2     1  UNL1       -0.2060
     29  C         24.7350  -22.4850  -12.7340 C.2     1  UNL1        0.0740
     30  C         25.1660  -23.6830  -13.3130 C.2     1  UNL1        0.0260
     31  C         25.2120  -23.7960  -14.7030 C.2     1  UNL1        0.0200
     32  C         24.8330  -22.7120  -15.4980 C.2     1  UNL1        0.0110
     33 BR         24.8910  -22.8710  -17.3810 Br      1  UNL1       -0.0510
     34  C         24.4130  -21.5130  -14.9190 C.2     1  UNL1        0.0200
     35  C         24.3670  -21.3950  -13.5300 C.2     1  UNL1        0.0260
@<TRIPOS>BOND
     1    33    32    1
     2    32    34    2
     3    32    31    1
     4    34    35    1
     5    31    30    2
     6    35    29    2
     7    30    29    1
     8    29    26    1
     9    19    20    1
    10    19    18    1
    11    25    20    2
    12    25    24    1
    13    20    21    1
    14    24    23    2
    15    26    28    2
    16    26     1    1
    17    26    27    2
    18    21    22    2
    19    18     1    1
    20    23    22    1
    21     1     2    1
    22     2     3    1
    23     5     4    1
    24     3     4   am
    25     3     6    2
    26     4     7    1
    27     7    12    2
    28     7     8    1
    29    12    11    1
    30     8     9    2
    31    11    10    2
    32     9    10    1
    33    10    13    1
    34    17    13    2
    35    13    14   am
    36    14    16    1
    37    14    15    1
