@<TRIPOS>MOLECULE
54656_out_ligand_01.pdbqt
 24 27 0 0 0
SMALL
GASTEIGER

@<TRIPOS>ATOM
      1  C         20.6480  -22.5720   -8.6480 C.2     1  UNL1       -0.0210
      2  C         21.9420  -22.2990   -8.1760 C.2     1  UNL1        0.0140
      3  C         22.9790  -21.9280   -9.0430 C.2     1  UNL1        0.0330
      4  C         22.6590  -21.8440  -10.3980 C.ar    1  UNL1        0.0620
      5  N         23.4000  -21.5230  -11.5040 N.ar    1  UNL1       -0.3410
      6  C         22.5840  -21.5910  -12.6070 C.ar    1  UNL1        0.1280
      7  N         21.3630  -21.9530  -12.2660 N.ar    1  UNL1       -0.2310
      8  C         21.3900  -22.1070  -10.9000 C.ar    1  UNL1        0.0860
      9  C         20.3630  -22.4770  -10.0200 C.2     1  UNL1        0.0460
     10  H         24.3860  -21.3000  -11.5220 H       1  UNL1        0.1670
     11  C         19.5960  -22.9600   -7.7200 C.2     1  UNL1        0.0020
     12  C         19.1460  -22.3210   -6.5200 C.2     1  UNL1        0.0040
     13  C         19.5080  -21.1350   -5.8480 C.2     1  UNL1        0.0140
     14  C         18.1250  -23.1090   -5.9810 C.2     1  UNL1        0.0490
     15  C         18.8530  -20.7840   -4.6660 C.2     1  UNL1        0.0020
     16  C         17.8440  -21.5940   -4.1500 C.2     1  UNL1        0.0090
     17  C         17.4460  -22.7820   -4.7910 C.2     1  UNL1       -0.0340
     18  C         16.3490  -23.6090   -4.1840 C.3     1  UNL1        0.0500
     19  N         17.9680  -24.1840   -6.8300 N.pl3   1  UNL1       -0.3640
     20  C         18.8420  -24.1040   -7.8790 C.2     1  UNL1        0.1010
     21  H         17.2990  -24.9280   -6.6900 H       1  UNL1        0.1650
     22  C         23.0910  -21.3080  -13.9720 C.3     1  UNL1        0.2420
     23  O         22.4910  -20.0910  -14.3980 O.3     1  UNL1       -0.3930
     24  H         22.4620  -19.5210  -13.6070 H       1  UNL1        0.2090
@<TRIPOS>BOND
     1    23    22    1
     2    23    24    1
     3    22     6    1
     4     6     7   ar
     5     6     5   ar
     6     7     8   ar
     7    10     5    1
     8     5     4   ar
     9     8     4   ar
    10     8     9    1
    11     4     3    1
    12     9     1    2
    13     3     2    2
    14     1     2    1
    15     1    11    1
    16    20    11    2
    17    20    19    1
    18    11    12    1
    19    19    21    1
    20    19    14    1
    21    12    14    2
    22    12    13    1
    23    14    17    1
    24    13    15    2
    25    17    18    1
    26    17    16    2
    27    15    16    1
