@<TRIPOS>MOLECULE
54684_out_ligand_01.pdbqt
 31 34 0 0 0
SMALL
GASTEIGER

@<TRIPOS>ATOM
      1  C         20.1180  -22.1570   -8.2050 C.2     1  UNL1        0.0320
      2  C         19.6240  -22.2660   -9.5090 C.2     1  UNL1        0.0180
      3  C         20.5110  -22.3340  -10.5900 C.2     1  UNL1        0.0130
      4  C         21.9020  -22.3050  -10.3930 C.2     1  UNL1       -0.0260
      5  C         22.3800  -22.2130   -9.0760 C.2     1  UNL1        0.0130
      6  C         21.5000  -22.1440   -7.9930 C.2     1  UNL1        0.0180
      7  C         22.8310  -22.3790  -11.5350 C.2     1  UNL1       -0.0240
      8  C         23.9440  -23.2410  -11.5000 C.2     1  UNL1        0.0140
      9  C         24.8510  -23.3420  -12.5650 C.2     1  UNL1        0.0330
     10  C         24.5990  -22.5380  -13.6750 C.ar    1  UNL1        0.0620
     11  N         25.2500  -22.3800  -14.8700 N.ar    1  UNL1       -0.3410
     12  C         23.5150  -21.6740  -13.7600 C.ar    1  UNL1        0.0860
     13  C         24.5670  -21.4470  -15.6130 C.ar    1  UNL1        0.1280
     14  H         26.0750  -22.8760  -15.1770 H       1  UNL1        0.1670
     15  N         23.5070  -21.0120  -14.9630 N.ar    1  UNL1       -0.2310
     16  C         22.6200  -21.5890  -12.6820 C.2     1  UNL1        0.0460
     17  C         25.0140  -21.0530  -16.9720 C.3     1  UNL1        0.2420
     18  O         24.0890  -20.0840  -17.4530 O.3     1  UNL1       -0.3930
     19  H         24.3220  -19.9420  -18.3900 H       1  UNL1        0.2090
     20  C         19.2160  -22.0810   -7.0220 C.2     1  UNL1        0.2520
     21  O         19.5940  -21.5280   -5.9970 O.2     1  UNL1       -0.2680
     22  N         17.9560  -22.6260   -7.1830 N.am    1  UNL1       -0.3520
     23  H         17.6410  -22.8090   -8.1250 H       1  UNL1        0.1630
     24  C         16.9360  -22.5030   -6.1470 C.3     1  UNL1        0.0840
     25  C         15.5390  -22.3950   -6.7650 C.3     1  UNL1        0.0280
     26  C         14.4480  -22.1980   -5.7060 C.3     1  UNL1        0.0340
     27  C         14.7600  -22.8750   -4.3680 C.3     1  UNL1        0.1180
     28  C         15.6840  -24.0750   -4.5400 C.3     1  UNL1        0.0340
     29  C         17.0260  -23.6910   -5.1750 C.3     1  UNL1        0.0280
     30  O         15.3890  -21.9240   -3.5110 O.3     1  UNL1       -0.3960
     31  H         15.9550  -21.3560   -4.0610 H       1  UNL1        0.2100
@<TRIPOS>BOND
     1    19    18    1
     2    18    17    1
     3    17    13    1
     4    13    15   ar
     5    13    11   ar
     6    14    11    1
     7    15    12   ar
     8    11    10   ar
     9    12    10   ar
    10    12    16    1
    11    10     9    1
    12    16     7    2
    13     9     8    2
    14     7     8    1
    15     7     4    1
    16     3     4    2
    17     3     2    1
    18     4     5    1
    19     2     1    2
    20     5     6    2
    21     1     6    1
    22     1    20    1
    23    23    22    1
    24    22    20   am
    25    22    24    1
    26    20    21    2
    27    25    24    1
    28    25    26    1
    29    24    29    1
    30    26    27    1
    31    29    28    1
    32    28    27    1
    33    27    30    1
    34    31    30    1
