@<TRIPOS>MOLECULE
54698_out_ligand_01.pdbqt
 29 32 0 0 0
SMALL
GASTEIGER

@<TRIPOS>ATOM
      1  C         20.9250  -21.9110  -11.6590 C.2     1  UNL1        0.0090
      2  C         22.1000  -22.5630  -10.9900 C.2     1  UNL1        0.1320
      3  N         23.3310  -22.5660  -11.4100 N.2     1  UNL1       -0.2390
      4  C         23.5610  -21.9070  -12.5870 C.2     1  UNL1        0.1720
      5  C         24.7020  -21.6970  -13.3300 C.2     1  UNL1        0.1110
      6  C         26.0150  -22.1510  -13.0280 C.1     1  UNL1        0.1050
      7  N         27.1020  -22.5020  -12.8180 N.1     1  UNL1       -0.1910
      8  C         24.2920  -20.9450  -14.4400 C.2     1  UNL1        0.1660
      9  N         22.9850  -20.6800  -14.4260 N.2     1  UNL1       -0.1770
     10  N         22.5320  -21.2700  -13.2910 N.pl3   1  UNL1       -0.2250
     11  C         21.2270  -21.2840  -12.8100 C.2     1  UNL1        0.1340
     12  C         19.5740  -21.9430  -11.0870 C.2     1  UNL1       -0.0220
     13  C         18.5660  -21.1160  -11.6010 C.2     1  UNL1        0.0120
     14  C         17.2780  -21.1420  -11.0630 C.2     1  UNL1        0.0020
     15  C         16.9800  -21.9910   -9.9970 C.2     1  UNL1        0.0170
     16  C         17.9780  -22.8110   -9.4590 C.2     1  UNL1        0.0320
     17  C         19.2670  -22.7910  -10.0130 C.2     1  UNL1        0.0290
     18  C         17.7150  -23.7390   -8.3240 C.2     1  UNL1        0.2510
     19  N         16.4130  -23.8160   -7.8760 N.am    1  UNL1       -0.3540
     20  H         15.7640  -23.0820   -8.1310 H       1  UNL1        0.1620
     21  O         18.6370  -24.3620   -7.8100 O.2     1  UNL1       -0.2680
     22  C         16.0840  -24.5790   -6.6820 C.3     1  UNL1        0.1570
     23  C         15.6230  -23.6790   -5.5270 C.3     1  UNL1        0.1780
     24  O         16.1560  -24.1980   -4.2940 O.3     1  UNL1       -0.2490
     25  N         17.3650  -23.5140   -4.0170 N.4     1  UNL1       -0.1430
     26  C         17.3800  -22.4590   -4.7670 C.3     1  UNL1        0.0420
     27  C         16.1730  -22.2740   -5.6120 C.3     1  UNL1        0.0930
     28  C         18.4680  -21.4230   -4.7420 C.3     1  UNL1        0.0520
     29  C         19.2870  -21.3890   -6.0190 C.3     1  UNL1        0.0110
@<TRIPOS>BOND
     1     8     9    2
     2     8     5    1
     3     9    10    1
     4     5     6    1
     5     5     4    2
     6    10    11    1
     7    10     4    1
     8     6     7    3
     9    11     1    2
    10     4     3    1
    11     1    12    1
    12     1     2    1
    13    13    12    2
    14    13    14    1
    15     3     2    2
    16    12    17    1
    17    14    15    2
    18    17    16    2
    19    15    16    1
    20    16    18    1
    21    18    19   am
    22    18    21    2
    23    20    19    1
    24    19    22    1
    25    22    23    1
    26    29    28    1
    27    27    23    1
    28    27    26    1
    29    23    24    1
    30    26    28    1
    31    26    25    1
    32    24    25    1
