@<TRIPOS>MOLECULE
54706_out_ligand_01.pdbqt
 29 32 0 0 0
SMALL
GASTEIGER

@<TRIPOS>ATOM
      1  C         18.7300  -23.6290   -6.9530 C.2     1  UNL1        0.0320
      2  C         19.3400  -24.5290   -7.8270 C.2     1  UNL1        0.0180
      3  C         20.5030  -24.1460   -8.4990 C.2     1  UNL1        0.0160
      4  C         21.0760  -22.8780   -8.2950 C.2     1  UNL1        0.0110
      5  C         20.4570  -21.9950   -7.3930 C.2     1  UNL1        0.0160
      6  C         19.2920  -22.3730   -6.7160 C.2     1  UNL1        0.0180
      7  C         17.5100  -24.0210   -6.2240 C.2     1  UNL1        0.2530
      8  N         16.2680  -23.6070   -6.7230 N.am    1  UNL1       -0.3520
      9  C         15.0930  -23.9810   -5.9480 C.3     1  UNL1        0.1520
     10  O         17.6630  -24.7120   -5.2170 O.2     1  UNL1       -0.2670
     11  C         16.0860  -22.6010   -7.7810 C.3     1  UNL1        0.1310
     12  C         16.1240  -23.1410   -9.2180 C.3     1  UNL1        0.0790
     13  C         17.0440  -22.3800  -10.1390 C.2     1  UNL1        0.0350
     14  C         18.2550  -22.9340  -10.5550 C.2     1  UNL1        0.0270
     15  C         19.0650  -22.2030  -11.4220 C.2     1  UNL1        0.0030
     16  C         18.6500  -20.9460  -11.8470 C.2     1  UNL1        0.0190
     17  C         17.4380  -20.4660  -11.3800 C.2     1  UNL1        0.1170
     18  N         16.6320  -21.1510  -10.5390 N.2     1  UNL1       -0.2660
     19  C         22.2840  -22.5220   -9.0440 C.3     1  UNL1        0.1560
     20  N         22.9750  -23.3130   -9.8480 N.2     1  UNL1       -0.2110
     21  C         23.9960  -22.5150  -10.3020 C.2     1  UNL1        0.1520
     22  N         23.9640  -21.2590   -9.8450 N.pl3   1  UNL1       -0.1570
     23  N         22.8950  -21.2980   -9.0380 N.3     1  UNL1       -0.2590
     24  H         22.6490  -20.4660   -8.5170 H       1  UNL1        0.1910
     25  C         25.0370  -23.0440  -11.2400 C.3     1  UNL1        0.0590
     26  C         26.0930  -22.0160  -11.6480 C.3     1  UNL1        0.0120
     27  C         25.5790  -21.3650  -12.9360 C.3     1  UNL1        0.0010
     28  C         24.4070  -22.2190  -13.4220 C.3     1  UNL1        0.0010
     29  C         24.4560  -23.4900  -12.5840 C.3     1  UNL1        0.0120
@<TRIPOS>BOND
     1    28    27    1
     2    28    29    1
     3    27    26    1
     4    29    25    1
     5    16    15    2
     6    16    17    1
     7    26    25    1
     8    15    14    1
     9    17    18    2
    10    25    21    1
    11    14    13    2
    12    18    13    1
    13    21    20    2
    14    21    22    1
    15    13    12    1
    16    20    19    1
    17    22    23    1
    18    12    11    1
    19    19    23    1
    20    19     4    1
    21    23    24    1
    22     3     4    2
    23     3     2    1
    24     4     5    1
    25     2     1    2
    26    11     8    1
    27     5     6    2
    28     1     6    1
    29     1     7    1
    30     8     7   am
    31     8     9    1
    32     7    10    2
