@<TRIPOS>MOLECULE
54714_out_ligand_01.pdbqt
 31 33 0 0 0
SMALL
GASTEIGER

@<TRIPOS>ATOM
      1  C         20.5170  -22.1670   -7.3120 C.2     1  UNL1        0.2510
      2  O         21.1860  -21.2200   -6.9160 O.2     1  UNL1       -0.2680
      3  N         20.8400  -22.9290   -8.4120 N.am    1  UNL1       -0.3540
      4  H         20.1290  -23.5220   -8.8200 H       1  UNL1        0.1620
      5  C         22.0140  -22.6260   -9.2210 C.3     1  UNL1        0.1630
      6  C         21.6980  -21.6950  -10.4340 C.3     1  UNL1        0.2730
      7  C         20.2130  -21.6800  -10.8140 C.2     1  UNL1       -0.0240
      8  C         19.3740  -22.7910  -10.6130 C.2     1  UNL1        0.0090
      9  C         18.0210  -22.7420  -10.9580 C.2     1  UNL1        0.0010
     10  C         17.4810  -21.5830  -11.5090 C.2     1  UNL1        0.0000
     11  C         18.2930  -20.4710  -11.7130 C.2     1  UNL1        0.0010
     12  C         19.6450  -20.5190  -11.3660 C.2     1  UNL1        0.0090
     13  N         22.6350  -21.9180  -11.5680 N.3     1  UNL1        0.0990
     14  C         21.9940  -21.8790  -12.8810 C.3     1  UNL1        0.2730
     15  C         22.8230  -21.0440  -13.8640 C.3     1  UNL1        0.0300
     16  C         24.0960  -21.6990  -14.3900 C.3     1  UNL1        0.0020
     17  C         25.0530  -22.2050  -13.3160 C.3     1  UNL1        0.0020
     18  C         24.4780  -23.3950  -12.5560 C.3     1  UNL1        0.0300
     19  C         23.5780  -23.0200  -11.3720 C.3     1  UNL1        0.2730
     20  C         19.2610  -22.5390   -6.6080 C.2     1  UNL1        0.0320
     21  C         18.5610  -23.7120   -6.9260 C.2     1  UNL1        0.0180
     22  C         17.3910  -24.0370   -6.2360 C.2     1  UNL1        0.0260
     23  C         16.9330  -23.1920   -5.2210 C.2     1  UNL1        0.0740
     24  C         17.6250  -22.0210   -4.8950 C.2     1  UNL1        0.0260
     25  C         18.7960  -21.7020   -5.5840 C.2     1  UNL1        0.0180
     26  S         15.4440  -23.5900   -4.3410 S.O2    1  UNL1        0.2390
     27  O         15.7880  -24.4340   -3.2200 O.2     1  UNL1       -0.2060
     28  O         14.4310  -23.9500   -5.3050 O.2     1  UNL1       -0.2060
     29  N         15.0340  -22.0990   -3.6780 N.3     1  UNL1       -0.2250
     30  H         15.6080  -21.3280   -4.0180 H       1  UNL1        0.1360
     31  H         15.0550  -22.1710   -2.6590 H       1  UNL1        0.1360
@<TRIPOS>BOND
     1    16    15    1
     2    16    17    1
     3    15    14    1
     4    17    18    1
     5    14    13    1
     6    18    19    1
     7    11    10    2
     8    11    12    1
     9    13    19    1
    10    13     6    1
    11    10     9    1
    12    12     7    2
    13     9     8    2
    14     7     8    1
    15     7     6    1
    16     6     5    1
    17     5     3    1
    18     4     3    1
    19     3     1   am
    20     1     2    2
    21     1    20    1
    22    21    20    2
    23    21    22    1
    24    20    25    1
    25    22    23    2
    26    25    24    2
    27    28    26    2
    28    23    24    1
    29    23    26    1
    30    26    29    1
    31    26    27    2
    32    30    29    1
    33    29    31    1
