@<TRIPOS>MOLECULE
54720_out_ligand_01.pdbqt
 30 33 0 0 0
SMALL
GASTEIGER

@<TRIPOS>ATOM
      1  C         20.9030  -22.5010   -9.8330 C.2     1  UNL1        0.2560
      2  O         21.3810  -22.2770   -8.7270 O.2     1  UNL1       -0.2670
      3  N         19.6520  -23.0280  -10.1040 N.am    1  UNL1       -0.3230
      4  H         19.4530  -23.2590  -11.0690 H       1  UNL1        0.1690
      5  C         21.7410  -22.2190  -11.0330 C.2     1  UNL1        0.0320
      6  C         23.0600  -22.6850  -11.0520 C.2     1  UNL1        0.0190
      7  C         23.8870  -22.4480  -12.1580 C.2     1  UNL1        0.0320
      8  C         23.4110  -21.7260  -13.2570 C.2     1  UNL1        0.0580
      9  C         22.0830  -21.2560  -13.2260 C.2     1  UNL1        0.0320
     10  C         21.2570  -21.4910  -12.1210 C.2     1  UNL1        0.0190
     11  N         24.2050  -21.4550  -14.4190 N.pl3   1  UNL1       -0.2380
     12  C         25.3040  -20.6190  -14.6120 C.2     1  UNL1        0.0350
     13  C         25.7260  -20.8260  -15.9100 C.2     1  UNL1        0.0550
     14  C         25.8740  -19.6580  -13.6360 C.3     1  UNL1        0.0700
     15  C         24.8190  -21.7410  -16.4620 C.2     1  UNL1        0.0530
     16  C         24.7930  -22.2900  -17.8390 C.3     1  UNL1        0.0720
     17  N         23.8870  -22.0970  -15.5800 N.2     1  UNL1       -0.1720
     18  C         18.6490  -23.3700   -9.1740 C.2     1  UNL1        0.0350
     19  C         18.8890  -24.0580   -7.9810 C.2     1  UNL1        0.0320
     20  C         17.8390  -24.3560   -7.1080 C.2     1  UNL1        0.0390
     21  C         16.5450  -23.9470   -7.4200 C.2     1  UNL1        0.0790
     22  C         16.2830  -23.2780   -8.6110 C.2     1  UNL1        0.0390
     23  C         17.3350  -22.9860   -9.4820 C.2     1  UNL1        0.0320
     24  O         15.5030  -24.2280   -6.5750 O.3     1  UNL1       -0.2770
     25  C         15.4110  -23.5890   -5.4100 C.ar    1  UNL1        0.2790
     26  N         15.7160  -24.1110   -4.2440 N.ar    1  UNL1       -0.1170
     27  N         15.4630  -23.1260   -3.3160 N.ar    1  UNL1        0.0200
     28  N         15.0070  -22.0240   -3.8970 N.ar    1  UNL1       -0.0040
     29  N         14.9730  -22.3120   -5.2060 N.ar    1  UNL1       -0.2480
     30  H         14.6550  -21.6210   -5.8720 H       1  UNL1        0.1870
@<TRIPOS>BOND
     1    16    15    1
     2    15    13    1
     3    15    17    2
     4    13    12    2
     5    17    11    1
     6    12    11    1
     7    12    14    1
     8    11     8    1
     9     8     9    2
    10     8     7    1
    11     9    10    1
    12     7     6    2
    13    10     5    2
    14     4     3    1
    15     6     5    1
    16     5     1    1
    17     3     1   am
    18     3    18    1
    19     1     2    2
    20    23    18    2
    21    23    22    1
    22    18    19    1
    23    22    21    2
    24    19    20    2
    25    21    20    1
    26    21    24    1
    27    24    25    1
    28    30    29    1
    29    25    29   ar
    30    25    26   ar
    31    29    28   ar
    32    26    27   ar
    33    28    27   ar
