@<TRIPOS>MOLECULE
54740_out_ligand_01.pdbqt
 34 38 0 0 0
SMALL
GASTEIGER

@<TRIPOS>ATOM
      1  C         20.6690  -22.6670   -7.6490 C.2     1  UNL1        0.0320
      2  C         20.8150  -23.8490   -8.3870 C.2     1  UNL1        0.0170
      3  C         21.9560  -24.0450   -9.1710 C.2     1  UNL1        0.0100
      4  C         22.9720  -23.0780   -9.2150 C.2     1  UNL1       -0.0300
      5  C         22.8230  -21.9030   -8.4660 C.2     1  UNL1        0.0100
      6  C         21.6820  -21.7020   -7.6830 C.2     1  UNL1        0.0170
      7  C         19.4700  -22.4080   -6.7990 C.2     1  UNL1        0.2560
      8  O         19.3130  -21.2820   -6.3420 O.2     1  UNL1       -0.2670
      9  N         18.6250  -23.4860   -6.6450 N.am    1  UNL1       -0.3210
     10  H         18.8100  -24.3280   -7.1770 H       1  UNL1        0.1690
     11  C         17.4360  -23.5650   -5.8830 C.2     1  UNL1        0.0680
     12  C         17.4120  -23.5750   -4.4870 C.2     1  UNL1        0.0320
     13  C         16.1960  -23.6590   -3.8060 C.2     1  UNL1        0.0020
     14  C         15.0000  -23.7390   -4.5160 C.2     1  UNL1        0.0030
     15  C         15.0110  -23.7340   -5.9120 C.2     1  UNL1        0.0390
     16  C         16.2230  -23.6450   -6.6020 C.2     1  UNL1        0.0950
     17  O         16.3500  -23.6370   -7.9730 O.2     1  UNL1       -0.3460
     18  C         16.3570  -22.3630   -8.6190 C.3     1  UNL1        0.2070
     19  C         16.6340  -22.5610  -10.1150 C.3     1  UNL1        0.1450
     20  C         18.0500  -23.0390  -10.4140 C.3     1  UNL1        0.0360
     21  C         18.7890  -21.7500  -10.6700 C.3     1  UNL1        0.0290
     22  C         17.7340  -20.9200  -11.3640 C.3     1  UNL1        0.1680
     23  O         16.4750  -21.2970  -10.7910 O.3     1  UNL1       -0.3840
     24  C         24.2030  -23.2910  -10.0730 C.3     1  UNL1        0.3110
     25  N         24.4660  -22.1850  -11.0080 N.3     1  UNL1        0.0970
     26  C         25.8310  -21.6700  -10.8190 C.3     1  UNL1        0.2770
     27  C         26.0500  -20.3950  -11.6430 C.3     1  UNL1        0.0690
     28  C         25.6180  -20.5540  -13.0770 C.2     1  UNL1       -0.0490
     29  C         26.0360  -19.6330  -14.0470 C.2     1  UNL1        0.0070
     30  C         24.7410  -21.5950  -13.4310 C.2     1  UNL1       -0.0240
     31  C         25.6070  -19.7600  -15.3680 C.2     1  UNL1        0.0010
     32  C         24.7540  -20.8010  -15.7280 C.2     1  UNL1        0.0010
     33  C         24.3250  -21.7150  -14.7650 C.2     1  UNL1        0.0090
     34  C         24.2960  -22.6230  -12.4100 C.3     1  UNL1        0.3110
@<TRIPOS>BOND
     1    32    31    2
     2    32    33    1
     3    31    29    1
     4    33    30    2
     5    29    28    2
     6    30    28    1
     7    30    34    1
     8    28    27    1
     9    34    25    1
    10    27    26    1
    11    22    23    1
    12    22    21    1
    13    25    26    1
    14    25    24    1
    15    23    19    1
    16    21    20    1
    17    20    19    1
    18    19    18    1
    19    24     4    1
    20     4     3    2
    21     4     5    1
    22     3     2    1
    23    18    17    1
    24     5     6    2
    25     2     1    2
    26    17    16    1
    27     6     1    1
    28     1     7    1
    29    10     9    1
    30     7     9   am
    31     7     8    2
    32     9    11    1
    33    16    15    1
    34    16    11    2
    35    15    14    2
    36    11    12    1
    37    14    13    1
    38    12    13    2
