@<TRIPOS>MOLECULE
54756_out_ligand_01.pdbqt
 27 30 0 0 0
SMALL
GASTEIGER

@<TRIPOS>ATOM
      1  C         20.3210  -22.3320  -10.9040 C.2     1  UNL1       -0.0250
      2  C         20.1890  -23.1860   -9.8000 C.2     1  UNL1        0.0130
      3  C         18.9630  -23.3020   -9.1380 C.2     1  UNL1        0.0180
      4  C         17.8510  -22.5760   -9.5830 C.2     1  UNL1        0.0320
      5  C         17.9770  -21.7180  -10.6800 C.2     1  UNL1        0.0180
      6  C         19.2060  -21.5980  -11.3360 C.2     1  UNL1        0.0130
      7  C         21.6280  -22.1790  -11.5720 C.2     1  UNL1       -0.0080
      8  C         22.8850  -22.6550  -10.9850 C.2     1  UNL1        0.0240
      9  C         24.0880  -22.5040  -11.5870 C.2     1  UNL1       -0.0130
     10  C         24.1150  -21.8420  -12.8610 C.3     1  UNL1        0.1580
     11  C         25.3340  -23.0190  -10.9170 C.3     1  UNL1        0.0520
     12  N         25.1110  -21.5390  -13.6670 N.2     1  UNL1       -0.2120
     13  N         22.9130  -21.4000  -13.4090 N.pl3   1  UNL1       -0.2240
     14  C         24.4910  -20.9060  -14.7040 C.2     1  UNL1        0.1450
     15  C         25.2420  -20.3640  -15.8520 C.3     1  UNL1        0.0950
     16  N         23.1660  -20.7980  -14.5970 N.pl3   1  UNL1       -0.1510
     17  C         21.6870  -21.5700  -12.7760 C.2     1  UNL1        0.1330
     18  C         16.5680  -22.7040   -8.8450 C.2     1  UNL1        0.2510
     19  O         15.5170  -22.8330   -9.4550 O.2     1  UNL1       -0.2680
     20  N         16.6520  -22.6390   -7.4720 N.am    1  UNL1       -0.3540
     21  H         17.4720  -22.1900   -7.0720 H       1  UNL1        0.1620
     22  C         15.4480  -22.5630   -6.6630 C.3     1  UNL1        0.1550
     23  C         15.5060  -23.5520   -5.4990 C.3     1  UNL1        0.1390
     24  C         15.1260  -22.9220   -4.1660 C.3     1  UNL1        0.0350
     25  C         16.0370  -23.6410   -3.2000 C.3     1  UNL1        0.0290
     26  C         17.2990  -23.7590   -4.0220 C.3     1  UNL1        0.1680
     27  O         16.8650  -24.0390   -5.3590 O.3     1  UNL1       -0.3840
@<TRIPOS>BOND
     1    15    14    1
     2    14    16    1
     3    14    12    2
     4    16    13    1
     5    12    10    1
     6    13    10    1
     7    13    17    1
     8    10     9    1
     9    17     7    2
    10     9     8    2
    11     9    11    1
    12     7     8    1
    13     7     1    1
    14     6     1    2
    15     6     5    1
    16     1     2    1
    17     5     4    2
    18     2     3    2
    19     4     3    1
    20     4    18    1
    21    19    18    2
    22    18    20   am
    23    20    21    1
    24    20    22    1
    25    22    23    1
    26    23    27    1
    27    23    24    1
    28    27    26    1
    29    24    25    1
    30    26    25    1
