@<TRIPOS>MOLECULE
54760_out_ligand_01.pdbqt
 33 35 0 0 0
SMALL
GASTEIGER

@<TRIPOS>ATOM
      1  C         19.9710  -22.5960  -10.3360 C.2     1  UNL1        0.0420
      2  C         19.0100  -23.2100   -9.5260 C.2     1  UNL1        0.0550
      3  C         17.6670  -22.8230   -9.6030 C.2     1  UNL1        0.0820
      4  C         17.2630  -21.8060  -10.4660 C.2     1  UNL1        0.0260
      5  C         18.2110  -21.1910  -11.2800 C.2     1  UNL1        0.0100
      6  C         19.5640  -21.5770  -11.2300 C.2     1  UNL1       -0.0350
      7  C         20.5370  -20.8590  -12.1310 C.3     1  UNL1        0.0500
      8  N         21.3380  -22.9590  -10.2990 N.am    1  UNL1       -0.3260
      9  C         22.2770  -22.6660   -9.3230 C.2     1  UNL1        0.2260
     10  O         22.0730  -22.0480   -8.2820 O.2     1  UNL1       -0.2730
     11  H         21.6950  -23.4220  -11.1250 H       1  UNL1        0.1690
     12  C         23.6600  -23.2460   -9.5970 C.3     1  UNL1        0.1410
     13  C         24.3820  -22.6300  -10.7750 C.2     1  UNL1       -0.0470
     14  C         24.3290  -23.2330  -12.0430 C.2     1  UNL1        0.0440
     15  C         24.9780  -22.6530  -13.1390 C.2     1  UNL1        0.0740
     16  C         25.6870  -21.4510  -12.9720 C.2     1  UNL1       -0.0290
     17  C         25.7570  -20.8630  -11.7020 C.2     1  UNL1        0.0100
     18  C         26.4160  -20.8150  -14.1240 C.3     1  UNL1        0.0510
     19  C         25.1080  -21.4460  -10.6130 C.2     1  UNL1        0.0080
     20  O         24.9750  -23.1680  -14.4090 O.2     1  UNL1       -0.3550
     21  C         25.3830  -24.5210  -14.5680 C.3     1  UNL1        0.2100
     22  S         16.4550  -23.6140   -8.5760 S.O2    1  UNL1        0.2630
     23  O         17.1590  -24.5830   -7.7620 O.2     1  UNL1       -0.2000
     24  O         15.3220  -24.0000   -9.3860 O.2     1  UNL1       -0.2000
     25  N         15.9820  -22.3960   -7.5260 N.pl3   1  UNL1       -0.2810
     26  H         15.3130  -21.7520   -7.9430 H       1  UNL1        0.1790
     27  C         16.1240  -22.4340   -6.1110 C.2     1  UNL1        0.0440
     28  C         15.0170  -22.8870   -5.3820 C.2     1  UNL1        0.0300
     29  C         15.0470  -22.9300   -3.9870 C.2     1  UNL1        0.0040
     30  C         16.1850  -22.5070   -3.3060 C.2     1  UNL1        0.0240
     31  C         17.2770  -22.0250   -4.0270 C.2     1  UNL1        0.0360
     32 CL         18.6820  -21.4920   -3.1820 Cl      1  UNL1       -0.0840
     33  C         17.2460  -21.9720   -5.4210 C.2     1  UNL1        0.0540
@<TRIPOS>BOND
     1    21    20    1
     2    20    15    1
     3    18    16    1
     4    15    16    2
     5    15    14    1
     6    16    17    1
     7     7     6    1
     8    14    13    2
     9    17    19    2
    10     5     6    1
    11     5     4    2
    12     6     1    2
    13    11     8    1
    14    13    19    1
    15    13    12    1
    16     4     3    1
    17     1     8    1
    18     1     2    1
    19     8     9   am
    20     3     2    2
    21     3    22    1
    22    12     9    1
    23    24    22    2
    24     9    10    2
    25    22    23    2
    26    22    25    1
    27    26    25    1
    28    25    27    1
    29    27    33    2
    30    27    28    1
    31    33    31    1
    32    28    29    2
    33    31    30    2
    34    31    32    1
    35    29    30    1
