@<TRIPOS>MOLECULE
54776_out_ligand_01.pdbqt
 28 30 0 0 0
SMALL
GASTEIGER

@<TRIPOS>ATOM
      1  N         21.9060  -22.1030   -9.5900 N.am    1  UNL1       -0.3220
      2  C         21.5020  -23.3040   -9.0310 C.2     1  UNL1        0.2560
      3  O         22.0390  -24.3970   -9.1610 O.2     1  UNL1       -0.2670
      4  H         21.4410  -21.2760   -9.2500 H       1  UNL1        0.1690
      5  C         22.9410  -21.8930  -10.5350 C.2     1  UNL1        0.0420
      6  C         22.6040  -21.6530  -11.8920 C.2     1  UNL1       -0.0190
      7  C         21.1640  -21.5280  -12.3330 C.3     1  UNL1        0.0520
      8  C         23.6480  -21.5460  -12.8420 C.2     1  UNL1        0.0400
      9  C         24.9910  -21.6230  -12.4470 C.2     1  UNL1        0.0180
     10  C         25.3100  -21.8150  -11.1100 C.2     1  UNL1        0.0030
     11  C         24.2930  -21.9560  -10.1670 C.2     1  UNL1        0.0300
     12  C         23.3690  -21.3960  -14.2950 C.2     1  UNL1        0.2490
     13  N         22.8340  -20.2000  -14.6850 N.am    1  UNL1       -0.3660
     14  H         22.5460  -20.1220  -15.6520 H       1  UNL1        0.1590
     15  H         22.4680  -19.5320  -14.0210 H       1  UNL1        0.1590
     16  O         23.5900  -22.2910  -15.0980 O.2     1  UNL1       -0.2680
     17  C         20.3120  -23.2100   -8.1390 C.2     1  UNL1        0.0350
     18  C         20.2030  -22.1190   -7.2760 C.2     1  UNL1        0.0190
     19  C         19.0970  -21.9980   -6.4230 C.2     1  UNL1        0.0330
     20  C         18.0710  -22.9570   -6.3870 C.2     1  UNL1        0.0690
     21  C         18.2300  -24.0540   -7.2610 C.2     1  UNL1        0.1430
     22  F         17.3060  -25.0280   -7.3120 F       1  UNL1       -0.2040
     23  C         19.3250  -24.1910   -8.1190 C.2     1  UNL1        0.0610
     24  N         16.9920  -22.8140   -5.5420 N.pl3   1  UNL1       -0.3780
     25  C         17.0660  -22.9790   -4.0900 C.3     1  UNL1        0.1230
     26  C         15.7320  -22.4330   -3.5890 C.3     1  UNL1        0.0210
     27  C         14.7840  -22.7350   -4.7360 C.3     1  UNL1        0.0210
     28  C         15.6400  -22.4630   -5.9690 C.3     1  UNL1        0.1230
@<TRIPOS>BOND
     1    14    13    1
     2    16    12    2
     3    13    12   am
     4    13    15    1
     5    12     8    1
     6     8     9    2
     7     8     6    1
     8     9    10    1
     9     7     6    1
    10     6     5    2
    11    10    11    2
    12     5    11    1
    13     5     1    1
    14     1     4    1
    15     1     2   am
    16     3     2    2
    17     2    17    1
    18    17    23    2
    19    17    18    1
    20    23    21    1
    21    22    21    1
    22    18    19    2
    23    21    20    2
    24    19    20    1
    25    20    24    1
    26    28    24    1
    27    28    27    1
    28    24    25    1
    29    27    26    1
    30    25    26    1
