@<TRIPOS>MOLECULE
54777_out_ligand_01.pdbqt
 25 27 0 0 0
SMALL
GASTEIGER

@<TRIPOS>ATOM
      1  C         17.1240  -21.0990  -10.9980 C.3     1  UNL1        0.0270
      2  C         17.2160  -22.4710  -10.3280 C.3     1  UNL1        0.0640
      3  C         15.9740  -22.7480   -9.4480 C.3     1  UNL1        0.0600
      4  C         16.5440  -22.6550   -8.0770 C.2     1  UNL1       -0.0340
      5  C         15.8670  -22.7070   -6.8680 C.2     1  UNL1        0.0330
      6  C         16.6270  -22.6540   -5.6970 C.2     1  UNL1        0.0740
      7  C         18.0260  -22.5390   -5.7440 C.2     1  UNL1        0.0260
      8  C         18.6830  -22.4950   -6.9770 C.2     1  UNL1        0.0260
      9  C         17.9350  -22.5610   -8.1450 C.2     1  UNL1        0.0170
     10  N         18.4300  -22.5000   -9.4640 N.pl3   1  UNL1       -0.2740
     11  C         19.4530  -23.5070   -9.7770 C.3     1  UNL1        0.1360
     12  C         20.8240  -22.8680   -9.8650 C.2     1  UNL1       -0.0230
     13  C         21.7330  -23.0860   -8.8090 C.2     1  UNL1        0.0130
     14  C         23.0120  -22.5340   -8.8370 C.2     1  UNL1        0.0430
     15  C         23.3970  -21.7620   -9.9230 C.2     1  UNL1        0.1180
     16  F         24.6250  -21.2300   -9.9530 F       1  UNL1       -0.2060
     17  C         22.5270  -21.5320  -10.9810 C.2     1  UNL1        0.0660
     18  C         21.2420  -22.0840  -10.9540 C.2     1  UNL1        0.0440
     19 CL         20.2160  -21.7530  -12.3030 Cl      1  UNL1       -0.0840
     20  S         15.8190  -22.7060   -4.1190 S.O2    1  UNL1        0.2390
     21  O         15.8370  -24.0670   -3.6360 O.2     1  UNL1       -0.2060
     22  O         14.6090  -21.9230   -4.1970 O.2     1  UNL1       -0.2060
     23  N         16.9180  -21.8710   -3.1530 N.3     1  UNL1       -0.2250
     24  H         16.5870  -20.9120   -3.0340 H       1  UNL1        0.1360
     25  H         17.0950  -22.3280   -2.2600 H       1  UNL1        0.1360
@<TRIPOS>BOND
     1    19    18    1
     2     1     2    1
     3    17    18    1
     4    17    15    2
     5    18    12    2
     6     2    10    1
     7     2     3    1
     8    16    15    1
     9    15    14    1
    10    12    11    1
    11    12    13    1
    12    11    10    1
    13    10     9    1
    14     3     4    1
    15    14    13    2
    16     9     4    2
    17     9     8    1
    18     4     5    1
    19     8     7    2
    20     5     6    2
    21     7     6    1
    22     6    20    1
    23    22    20    2
    24    20    21    2
    25    20    23    1
    26    23    24    1
    27    23    25    1
