@<TRIPOS>MOLECULE
54798_out_ligand_01.pdbqt
 37 40 0 0 0
SMALL
GASTEIGER

@<TRIPOS>ATOM
      1  C         20.9290  -22.5090   -7.7880 C.2     1  UNL1        0.0320
      2  C         21.0760  -23.7280   -8.4620 C.2     1  UNL1        0.0190
      3  C         22.1830  -23.9410   -9.2880 C.2     1  UNL1        0.0310
      4  C         23.1420  -22.9390   -9.4420 C.2     1  UNL1        0.0420
      5  C         22.9930  -21.7160   -8.7920 C.2     1  UNL1        0.0310
      6  C         21.8850  -21.5000   -7.9680 C.2     1  UNL1        0.0190
      7  N         24.2460  -23.1610  -10.3090 N.pl3   1  UNL1       -0.2810
      8  H         25.1400  -22.7550  -10.0350 H       1  UNL1        0.1790
      9  S         23.9990  -22.9640  -11.9710 S.O2    1  UNL1        0.2630
     10  O         22.6060  -22.6000  -12.1280 O.2     1  UNL1       -0.2000
     11  O         24.5600  -24.0920  -12.6810 O.2     1  UNL1       -0.2000
     12  C         24.9640  -21.5170  -12.3340 C.2     1  UNL1        0.0820
     13  C         25.8180  -20.9830  -11.3350 C.2     1  UNL1        0.0280
     14  C         26.5940  -19.8480  -11.5950 C.2     1  UNL1        0.0330
     15  C         26.4840  -19.3010  -12.8520 C.ar    1  UNL1        0.0630
     16  N         27.1210  -18.1920  -13.3940 N.ar    1  UNL1       -0.3070
     17  C         25.6510  -19.8410  -13.8350 C.ar    1  UNL1        0.0640
     18  C         26.6940  -18.0290  -14.7200 C.ar    1  UNL1        0.3250
     19  H         27.7920  -17.5900  -12.9460 H       1  UNL1        0.1700
     20  O         27.0480  -17.1610  -15.4970 O.2     1  UNL1       -0.2470
     21  N         25.7790  -19.0600  -14.9780 N.ar    1  UNL1       -0.3060
     22  H         25.3200  -19.1910  -15.8640 H       1  UNL1        0.1700
     23  C         24.8770  -20.9520  -13.6140 C.2     1  UNL1        0.0570
     24  C         19.7650  -22.2300   -6.9020 C.2     1  UNL1        0.2510
     25  O         19.7910  -21.2700   -6.1400 O.2     1  UNL1       -0.2680
     26  N         18.7130  -23.1190   -6.9750 N.am    1  UNL1       -0.3570
     27  H         18.8460  -24.0030   -7.4470 H       1  UNL1        0.1620
     28  C         17.5710  -23.0070   -6.0880 C.3     1  UNL1        0.1230
     29  C         16.2570  -22.9830   -6.8660 C.3     1  UNL1        0.0200
     30  C         16.3110  -23.9220   -8.0720 C.3     1  UNL1        0.0060
     31  C         15.8090  -23.2660   -9.3630 C.3     1  UNL1        0.0380
     32  C         16.8810  -22.5190  -10.1190 C.2     1  UNL1       -0.0580
     33  C         18.1440  -23.0930  -10.3170 C.2     1  UNL1        0.0070
     34  C         19.1370  -22.3980  -11.0100 C.2     1  UNL1        0.0010
     35  C         18.8770  -21.1250  -11.5130 C.2     1  UNL1        0.0000
     36  C         17.6240  -20.5450  -11.3230 C.2     1  UNL1        0.0010
     37  C         16.6300  -21.2380  -10.6300 C.2     1  UNL1        0.0070
@<TRIPOS>BOND
     1    22    21    1
     2    20    18    2
     3    21    18   ar
     4    21    17   ar
     5    18    16   ar
     6    17    23    1
     7    17    15   ar
     8    23    12    2
     9    16    19    1
    10    16    15   ar
    11    15    14    1
    12    11     9    2
    13    12     9    1
    14    12    13    1
    15    10     9    2
    16     9     7    1
    17    14    13    2
    18    35    36    2
    19    35    34    1
    20    36    37    1
    21    34    33    2
    22    37    32    2
    23    33    32    1
    24     7     8    1
    25     7     4    1
    26    32    31    1
    27     4     3    2
    28     4     5    1
    29    31    30    1
    30     3     2    1
    31     5     6    2
    32     2     1    2
    33    30    29    1
    34     6     1    1
    35     1    24    1
    36    27    26    1
    37    26    24   am
    38    26    28    1
    39    24    25    2
    40    29    28    1
