@<TRIPOS>MOLECULE
54801_out_ligand_01.pdbqt
 31 33 0 0 0
SMALL
GASTEIGER

@<TRIPOS>ATOM
      1  C         18.1660  -22.7740   -9.4810 C.2     1  UNL1        0.0800
      2  C         17.7090  -22.2250  -10.6810 C.2     1  UNL1        0.0260
      3  C         18.6250  -21.6840  -11.5850 C.2     1  UNL1        0.0090
      4  C         20.0010  -21.6800  -11.3000 C.2     1  UNL1       -0.0460
      5  C         20.9450  -21.0450  -12.2830 C.3     1  UNL1        0.0490
      6  C         20.4420  -22.2650  -10.0960 C.2     1  UNL1        0.0390
      7  C         19.5270  -22.7860   -9.1740 C.2     1  UNL1        0.0420
      8  S         17.0070  -23.4410   -8.3140 S.O2    1  UNL1        0.2630
      9  O         17.6740  -24.4470   -7.5180 O.2     1  UNL1       -0.2000
     10  O         15.7960  -23.7510   -9.0450 O.2     1  UNL1       -0.2000
     11  N         16.6400  -22.0990   -7.3530 N.pl3   1  UNL1       -0.2800
     12  H         15.8990  -21.5460   -7.7810 H       1  UNL1        0.1790
     13  C         16.5960  -22.2760   -5.9400 C.2     1  UNL1        0.0480
     14  C         15.4080  -22.7320   -5.3620 C.2     1  UNL1        0.0300
     15  C         15.3090  -22.8780   -3.9790 C.2     1  UNL1        0.0020
     16  C         16.3970  -22.5610   -3.1710 C.2     1  UNL1        0.0010
     17  C         17.5840  -22.0990   -3.7440 C.2     1  UNL1        0.0090
     18  C         17.7000  -21.9520   -5.1360 C.2     1  UNL1       -0.0350
     19  C         18.9850  -21.4320   -5.7160 C.3     1  UNL1        0.0500
     20  C         21.8760  -22.3480   -9.7290 C.2     1  UNL1        0.2520
     21  O         22.2660  -21.8720   -8.6730 O.2     1  UNL1       -0.2680
     22  N         22.6680  -23.0160  -10.6330 N.am    1  UNL1       -0.3530
     23  H         22.2640  -23.3610  -11.4910 H       1  UNL1        0.1630
     24  C         24.1040  -23.0740  -10.4890 C.3     1  UNL1        0.1610
     25  C         24.7620  -22.0590  -11.3890 C.2     1  UNL1       -0.0400
     26  C         25.6750  -21.1340  -10.8560 C.2     1  UNL1        0.0120
     27  C         26.2650  -20.1720  -11.6750 C.2     1  UNL1        0.0430
     28  C         25.9390  -20.1290  -13.0250 C.2     1  UNL1        0.1160
     29  F         26.5030  -19.2030  -13.8110 F       1  UNL1       -0.2060
     30  C         25.0330  -21.0300  -13.5710 C.2     1  UNL1        0.0430
     31  C         24.4400  -21.9940  -12.7540 C.2     1  UNL1        0.0120
@<TRIPOS>BOND
     1    29    28    1
     2    30    28    2
     3    30    31    1
     4    28    27    1
     5    31    25    2
     6     5     4    1
     7    27    26    2
     8     3     4    2
     9     3     2    1
    10    23    22    1
    11    25    26    1
    12    25    24    1
    13     4     6    1
    14     2     1    2
    15    22    24    1
    16    22    20   am
    17     6    20    1
    18     6     7    2
    19    20    21    2
    20     1     7    1
    21     1     8    1
    22    10     8    2
    23     8     9    2
    24     8    11    1
    25    12    11    1
    26    11    13    1
    27    13    14    2
    28    13    18    1
    29    19    18    1
    30    14    15    1
    31    18    17    2
    32    15    16    2
    33    17    16    1
