@<TRIPOS>MOLECULE
54819_out_ligand_01.pdbqt
 31 33 0 0 0
SMALL
GASTEIGER

@<TRIPOS>ATOM
      1  C         20.1380  -22.4390  -10.1930 C.2     1  UNL1        0.0390
      2  C         19.0890  -22.8550   -9.3620 C.2     1  UNL1        0.0420
      3  C         17.7700  -22.5480   -9.7090 C.2     1  UNL1        0.0800
      4  C         17.4870  -21.8070  -10.8580 C.2     1  UNL1        0.0260
      5  C         18.5330  -21.3970  -11.6850 C.2     1  UNL1        0.0090
      6  C         19.8680  -21.7020  -11.3660 C.2     1  UNL1       -0.0460
      7  C         20.9600  -21.2480  -12.2960 C.3     1  UNL1        0.0490
      8  C         21.5300  -22.8260   -9.8300 C.2     1  UNL1        0.2520
      9  N         22.4360  -21.7920   -9.7800 N.am    1  UNL1       -0.3530
     10  H         22.1720  -20.8870  -10.1450 H       1  UNL1        0.1630
     11  O         21.8080  -23.9960   -9.6040 O.2     1  UNL1       -0.2680
     12  C         23.8510  -22.0350   -9.6060 C.3     1  UNL1        0.1610
     13  C         24.5610  -21.9740  -10.9330 C.2     1  UNL1       -0.0410
     14  C         25.5550  -21.0090  -11.1540 C.2     1  UNL1        0.0090
     15  C         26.2310  -20.9540  -12.3750 C.2     1  UNL1        0.0070
     16  C         25.9350  -21.8700  -13.3900 C.2     1  UNL1       -0.0620
     17  C         26.6310  -21.7970  -14.7180 C.3     1  UNL1        0.0480
     18  C         24.9430  -22.8330  -13.1700 C.2     1  UNL1        0.0070
     19  C         24.2680  -22.8910  -11.9490 C.2     1  UNL1        0.0090
     20  S         16.4470  -23.0760   -8.6460 S.O2    1  UNL1        0.2630
     21  O         16.8260  -24.3370   -8.0460 O.2     1  UNL1       -0.2000
     22  O         15.2200  -22.9510   -9.4060 O.2     1  UNL1       -0.2000
     23  N         16.3900  -21.8770   -7.4650 N.pl3   1  UNL1       -0.2800
     24  H         16.8690  -21.0260   -7.7460 H       1  UNL1        0.1790
     25  C         16.3800  -22.2250   -6.0830 C.2     1  UNL1        0.0480
     26  C         15.1870  -22.6280   -5.4770 C.2     1  UNL1        0.0300
     27  C         15.1600  -22.9780   -4.1270 C.2     1  UNL1        0.0020
     28  C         16.3270  -22.9160   -3.3720 C.2     1  UNL1        0.0010
     29  C         17.5200  -22.5050   -3.9680 C.2     1  UNL1        0.0090
     30  C         17.5650  -22.1600   -5.3290 C.2     1  UNL1       -0.0350
     31  C         18.8690  -21.6950   -5.9150 C.3     1  UNL1        0.0500
@<TRIPOS>BOND
     1    17    16    1
     2    16    18    2
     3    16    15    1
     4    18    19    1
     5    15    14    2
     6     7     6    1
     7    19    13    2
     8     5     6    1
     9     5     4    2
    10     6     1    2
    11    14    13    1
    12    13    12    1
    13     4     3    1
    14     1     8    1
    15     1     2    1
    16    10     9    1
    17     8     9   am
    18     8    11    2
    19     9    12    1
    20     3     2    2
    21     3    20    1
    22    22    20    2
    23    20    21    2
    24    20    23    1
    25    24    23    1
    26    23    25    1
    27    25    26    2
    28    25    30    1
    29    31    30    1
    30    26    27    1
    31    30    29    2
    32    27    28    2
    33    29    28    1
