@<TRIPOS>MOLECULE
54845_out_ligand_01.pdbqt
 35 38 0 0 0
SMALL
GASTEIGER

@<TRIPOS>ATOM
      1  C         20.6970  -22.7040   -9.8510 C.2     1  UNL1        0.0320
      2  C         21.7390  -23.3890   -9.2110 C.2     1  UNL1        0.0190
      3  C         22.9920  -23.4900   -9.8200 C.2     1  UNL1        0.0310
      4  C         23.2030  -22.9110  -11.0700 C.2     1  UNL1        0.0420
      5  C         22.1670  -22.2440  -11.7240 C.2     1  UNL1        0.0310
      6  C         20.9110  -22.1410  -11.1170 C.2     1  UNL1        0.0190
      7  N         24.4670  -23.0600  -11.7030 N.pl3   1  UNL1       -0.2810
      8  H         24.9000  -23.9820  -11.6800 H       1  UNL1        0.1790
      9  S         25.6260  -21.8540  -11.4450 S.O2    1  UNL1        0.2630
     10  O         26.8920  -22.5430  -11.3110 O.2     1  UNL1       -0.2000
     11  O         25.1580  -20.9460  -10.4200 O.2     1  UNL1       -0.2000
     12  C         25.6470  -21.0010  -13.0020 C.2     1  UNL1        0.0820
     13  C         25.0890  -21.6360  -14.1410 C.2     1  UNL1        0.0280
     14  C         25.1000  -20.9990  -15.3870 C.2     1  UNL1        0.0330
     15  C         25.6790  -19.7530  -15.4380 C.ar    1  UNL1        0.0630
     16  N         25.8350  -18.8910  -16.5170 N.ar    1  UNL1       -0.3070
     17  C         26.2370  -19.1400  -14.3160 C.ar    1  UNL1        0.0640
     18  C         26.4920  -17.7320  -16.0790 C.ar    1  UNL1        0.3250
     19  H         25.5440  -19.0400  -17.4700 H       1  UNL1        0.1700
     20  O         26.7930  -16.7670  -16.7580 O.2     1  UNL1       -0.2470
     21  N         26.7330  -17.9010  -14.7070 N.ar    1  UNL1       -0.3060
     22  H         27.1960  -17.2160  -14.1320 H       1  UNL1        0.1700
     23  C         26.2460  -19.7360  -13.0790 C.2     1  UNL1        0.0570
     24  C         19.3710  -22.6320   -9.1720 C.2     1  UNL1        0.2560
     25  N         19.3480  -23.1490   -7.8890 N.am    1  UNL1       -0.3220
     26  H         20.1850  -23.6210   -7.5810 H       1  UNL1        0.1690
     27  O         18.4310  -22.1670   -9.8030 O.2     1  UNL1       -0.2670
     28  C         18.2600  -23.1780   -6.9850 C.2     1  UNL1        0.0410
     29  C         17.2230  -24.1120   -7.0910 C.2     1  UNL1        0.0300
     30  C         16.1560  -24.1120   -6.1870 C.2     1  UNL1        0.0090
     31  C         16.0920  -23.1670   -5.1640 C.2     1  UNL1       -0.0610
     32  C         14.9650  -23.1880   -4.1750 C.3     1  UNL1        0.0480
     33  C         17.1280  -22.2360   -5.0440 C.2     1  UNL1        0.0150
     34  C         18.2100  -22.2230   -5.9450 C.2     1  UNL1       -0.0350
     35  C         19.2810  -21.1820   -5.7530 C.3     1  UNL1        0.0500
@<TRIPOS>BOND
     1    19    16    1
     2    20    18    2
     3    16    18   ar
     4    16    15   ar
     5    18    21   ar
     6    15    14    2
     7    15    17   ar
     8    14    13    1
     9    21    17   ar
    10    21    22    1
    11    17    23    2
    12    13    12    2
    13    23    12    1
    14    12     9    1
    15     5     6    1
    16     5     4    2
    17     7     8    1
    18     7     9    1
    19     7     4    1
    20     9    10    2
    21     9    11    2
    22     6     1    2
    23     4     3    1
    24     1     2    1
    25     1    24    1
    26     3     2    2
    27    27    24    2
    28    24    25   am
    29    25    26    1
    30    25    28    1
    31    29    28    2
    32    29    30    1
    33    28    34    1
    34    30    31    2
    35    34    35    1
    36    34    33    2
    37    31    33    1
    38    31    32    1
