@<TRIPOS>MOLECULE
54875_out_ligand_01.pdbqt
 33 36 0 0 0
SMALL
GASTEIGER

@<TRIPOS>ATOM
      1  C         24.2200  -21.4980  -10.2230 C.3     1  UNL1        0.1990
      2  N         24.6300  -22.6690  -11.0400 N.pl3   1  UNL1       -0.2700
      3  C         24.5400  -22.5000  -12.4420 C.2     1  UNL1        0.0180
      4  C         23.5930  -21.7740  -13.1560 C.2     1  UNL1        0.0260
      5  C         25.5390  -23.2070  -13.1240 C.2     1  UNL1       -0.0340
      6  C         23.6760  -21.7370  -14.5530 C.2     1  UNL1        0.0260
      7  C         24.6960  -22.4380  -15.2200 C.2     1  UNL1        0.0740
      8  C         25.6280  -23.2020  -14.5110 C.2     1  UNL1        0.0330
      9  C         26.3870  -23.9550  -12.1400 C.3     1  UNL1        0.0600
     10  C         25.9930  -23.2320  -10.8300 C.3     1  UNL1        0.0640
     11  C         26.0120  -24.1870   -9.6430 C.3     1  UNL1        0.0270
     12  S         24.7630  -22.4130  -16.9900 S.O2    1  UNL1        0.2390
     13  O         24.4130  -21.0890  -17.4600 O.2     1  UNL1       -0.2060
     14  O         25.9520  -23.1040  -17.4400 O.2     1  UNL1       -0.2060
     15  N         23.4720  -23.4050  -17.3960 N.3     1  UNL1       -0.2250
     16  H         22.9290  -23.6310  -16.5520 H       1  UNL1        0.1360
     17  H         23.8150  -24.2280  -17.8900 H       1  UNL1        0.1360
     18  C         23.0960  -21.9230   -9.2740 C.2     1  UNL1        0.2310
     19  O         23.0020  -21.5180   -8.1200 O.2     1  UNL1       -0.2720
     20  N         22.2200  -22.8110   -9.8820 N.am    1  UNL1       -0.3520
     21  H         22.2160  -22.6740  -10.8890 H       1  UNL1        0.1630
     22  C         20.9620  -23.2280   -9.2850 C.3     1  UNL1        0.1140
     23  C         20.8610  -24.7550   -9.1720 C.3     1  UNL1        0.0370
     24  C         19.8270  -22.5730  -10.0840 C.2     1  UNL1       -0.0250
     25  C         20.1200  -21.7890  -11.2180 C.2     1  UNL1        0.0100
     26  C         19.1120  -21.1640  -11.9470 C.2     1  UNL1        0.0020
     27  C         17.7850  -21.3010  -11.5540 C.2     1  UNL1        0.0120
     28  C         17.4460  -22.0500  -10.4200 C.2     1  UNL1       -0.0250
     29  C         16.0940  -22.1570  -10.0320 C.2     1  UNL1        0.0120
     30  C         18.4630  -22.6930   -9.6590 C.2     1  UNL1       -0.0180
     31  C         15.7220  -22.8800   -8.8950 C.2     1  UNL1        0.0010
     32  C         16.7000  -23.5060   -8.1300 C.2     1  UNL1        0.0010
     33  C         18.0480  -23.4130   -8.5070 C.2     1  UNL1        0.0130
@<TRIPOS>BOND
     1    17    15    1
     2    13    12    2
     3    14    12    2
     4    15    12    1
     5    15    16    1
     6    12     7    1
     7     7     6    2
     8     7     8    1
     9     6     4    1
    10     8     5    2
    11     4     3    2
    12     5     3    1
    13     5     9    1
    14     3     2    1
    15     9    10    1
    16    26    27    2
    17    26    25    1
    18    27    28    1
    19    25    24    2
    20     2    10    1
    21     2     1    1
    22    21    20    1
    23    10    11    1
    24    28    29    2
    25    28    30    1
    26     1    18    1
    27    24    30    1
    28    24    22    1
    29    29    31    1
    30    20    22    1
    31    20    18   am
    32    30    33    2
    33    22    23    1
    34    18    19    2
    35    31    32    2
    36    33    32    1
