@<TRIPOS>MOLECULE
54910_out_ligand_01.pdbqt
 28 30 0 0 0
SMALL
GASTEIGER

@<TRIPOS>ATOM
      1  C         20.9780  -22.9740   -8.9420 C.2     1  UNL1        0.2510
      2  O         21.4740  -22.6240   -7.8770 O.2     1  UNL1       -0.2680
      3  N         19.8540  -23.7660   -9.0410 N.am    1  UNL1       -0.3560
      4  H         19.7110  -24.2660   -9.9110 H       1  UNL1        0.1620
      5  C         21.6110  -22.5670  -10.2280 C.2     1  UNL1        0.0320
      6  C         22.9620  -22.8830  -10.4340 C.2     1  UNL1        0.0180
      7  C         23.6000  -22.5180  -11.6220 C.2     1  UNL1        0.0260
      8  C         22.8840  -21.8170  -12.5960 C.2     1  UNL1        0.0740
      9  C         21.5370  -21.4930  -12.4020 C.2     1  UNL1        0.0260
     10  C         20.9020  -21.8640  -11.2130 C.2     1  UNL1        0.0180
     11  S         23.6810  -21.3510  -14.1110 S.O2    1  UNL1        0.2390
     12  O         23.5200  -22.4270  -15.0600 O.2     1  UNL1       -0.2060
     13  O         24.9690  -20.7800  -13.7930 O.2     1  UNL1       -0.2060
     14  N         22.7210  -20.0650  -14.6160 N.3     1  UNL1       -0.2250
     15  H         22.2830  -20.3070  -15.5070 H       1  UNL1        0.1360
     16  H         23.2230  -19.1790  -14.6690 H       1  UNL1        0.1360
     17  C         19.2630  -24.3670   -7.8550 C.3     1  UNL1        0.1370
     18  C         17.9450  -23.6730   -7.4240 C.3     1  UNL1        0.0030
     19  C         17.3980  -22.7820   -8.5660 C.3     1  UNL1        0.0160
     20  C         15.9060  -22.6430   -8.2730 C.3     1  UNL1        0.0010
     21  C         15.5090  -23.9230   -7.5420 C.3     1  UNL1        0.0010
     22  C         16.8020  -24.7150   -7.3520 C.3     1  UNL1        0.0160
     23  C         18.1790  -22.8400   -6.1470 C.2     1  UNL1       -0.0480
     24  C         17.7100  -23.3170   -4.9060 C.2     1  UNL1        0.0080
     25  C         17.8740  -22.5800   -3.7310 C.2     1  UNL1        0.0010
     26  C         18.5080  -21.3440   -3.7690 C.2     1  UNL1        0.0000
     27  C         18.9760  -20.8470   -4.9800 C.2     1  UNL1        0.0010
     28  C         18.8120  -21.5860   -6.1570 C.2     1  UNL1        0.0080
@<TRIPOS>BOND
     1    15    14    1
     2    12    11    2
     3    16    14    1
     4    14    11    1
     5    11    13    2
     6    11     8    1
     7     8     9    2
     8     8     7    1
     9     9    10    1
    10     7     6    2
    11    10     5    2
    12     6     5    1
    13     5     1    1
    14     4     3    1
    15     3     1   am
    16     3    17    1
    17     1     2    2
    18    19    20    1
    19    19    18    1
    20    20    21    1
    21    17    18    1
    22    21    22    1
    23    18    22    1
    24    18    23    1
    25    28    23    2
    26    28    27    1
    27    23    24    1
    28    27    26    2
    29    24    25    2
    30    26    25    1
