@<TRIPOS>MOLECULE
54916_out_ligand_01.pdbqt
 26 28 0 0 0
SMALL
GASTEIGER

@<TRIPOS>ATOM
      1  C         16.9030  -21.8120  -10.7850 C.3     1  UNL1        0.0480
      2  C         17.6370  -22.8610   -9.9380 C.3     1  UNL1        0.2500
      3  N         17.1480  -22.8900   -8.5550 N.3     1  UNL1        0.1010
      4  H         16.2070  -23.2740   -8.5250 H       1  UNL1        0.3170
      5  C         17.9970  -23.5640   -7.5800 C.3     1  UNL1        0.2550
      6  C         17.2590  -24.6430   -6.7490 C.3     1  UNL1        0.0450
      7  C         16.6280  -23.9390   -5.5400 C.3     1  UNL1        0.0410
      8  C         17.5930  -22.8190   -5.3250 C.2     1  UNL1       -0.0500
      9  C         17.7400  -22.0220   -4.2010 C.2     1  UNL1        0.0110
     10  C         18.3600  -22.5980   -6.4790 C.2     1  UNL1       -0.0160
     11  C         18.6860  -20.9960   -4.2380 C.2     1  UNL1        0.0430
     12  C         19.4480  -20.7810   -5.3930 C.2     1  UNL1        0.1170
     13  F         20.3440  -19.7850   -5.4070 F       1  UNL1       -0.2060
     14  C         19.2930  -21.5730   -6.5250 C.2     1  UNL1        0.0520
     15  C         19.1570  -22.8270  -10.0340 C.2     1  UNL1       -0.0260
     16  C         19.9700  -23.8550   -9.5290 C.2     1  UNL1        0.0110
     17  C         21.3620  -23.7920   -9.6470 C.2     1  UNL1        0.0250
     18  C         21.9490  -22.6990  -10.2870 C.2     1  UNL1        0.0740
     19  C         21.1630  -21.6630  -10.7940 C.2     1  UNL1        0.0250
     20  C         19.7740  -21.7330  -10.6710 C.2     1  UNL1        0.0110
     21  S         23.7120  -22.6030  -10.4330 S.O2    1  UNL1        0.2390
     22  O         24.0990  -23.1710  -11.7040 O.2     1  UNL1       -0.2060
     23  O         24.1410  -21.2930  -10.0020 O.2     1  UNL1       -0.2060
     24  N         24.2070  -23.6620   -9.2200 N.3     1  UNL1       -0.2250
     25  H         23.4050  -24.2200   -8.9230 H       1  UNL1        0.1360
     26  H         24.9980  -24.2440   -9.4910 H       1  UNL1        0.1360
@<TRIPOS>BOND
     1    22    21    2
     2    19    20    1
     3    19    18    2
     4     1     2    1
     5    20    15    2
     6    21    18    1
     7    21    23    2
     8    21    24    1
     9    18    17    1
    10    15     2    1
    11    15    16    1
    12     2     3    1
    13    17    16    2
    14    26    24    1
    15    24    25    1
    16     3     4    1
    17     3     5    1
    18     5     6    1
    19     5    10    1
    20     6     7    1
    21    14    10    1
    22    14    12    2
    23    10     8    2
    24     7     8    1
    25    13    12    1
    26    12    11    1
    27     8     9    1
    28    11     9    2
