@<TRIPOS>MOLECULE
54929_out_ligand_01.pdbqt
 34 37 0 0 0
SMALL
GASTEIGER

@<TRIPOS>ATOM
      1  O         15.9550  -21.7330  -10.0800 O.2     1  UNL1       -0.2740
      2  C         16.3630  -22.6030   -9.3180 C.2     1  UNL1        0.2170
      3  N         17.5920  -23.2070   -9.4490 N.am    1  UNL1       -0.3570
      4  H         17.8630  -23.9440   -8.8130 H       1  UNL1        0.1620
      5  C         18.5120  -22.8600  -10.5090 C.3     1  UNL1        0.1610
      6  C         19.9360  -23.1730  -10.1160 C.2     1  UNL1       -0.0380
      7  C         20.2060  -24.1800   -9.1790 C.2     1  UNL1        0.0090
      8  C         21.5200  -24.4510   -8.7980 C.2     1  UNL1        0.0030
      9  C         22.5720  -23.7080   -9.3390 C.2     1  UNL1        0.0290
     10  C         22.3260  -22.6920  -10.2690 C.2     1  UNL1        0.0350
     11  C         21.0060  -22.4320  -10.6520 C.2     1  UNL1        0.0380
     12  N         23.4400  -21.9610  -10.7320 N.am    1  UNL1       -0.3230
     13  C         24.2860  -22.3020  -11.7690 C.2     1  UNL1        0.2570
     14  O         24.3160  -23.3670  -12.3740 O.2     1  UNL1       -0.2670
     15  H         23.6570  -21.1240  -10.2080 H       1  UNL1        0.1690
     16  C         25.2720  -21.2590  -12.1390 C.2     1  UNL1        0.0490
     17  C         25.9230  -20.5280  -11.1470 C.2     1  UNL1        0.0200
     18  C         26.8630  -19.5640  -11.5140 C.2     1  UNL1        0.0200
     19  C         27.1210  -19.3740  -12.8630 C.2     1  UNL1        0.1160
     20  N         26.5170  -20.0740  -13.8470 N.2     1  UNL1       -0.2720
     21  C         25.6160  -21.0120  -13.4630 C.2     1  UNL1        0.1330
     22  C         15.5790  -23.1070   -8.1200 C.3     1  UNL1        0.1030
     23  C         15.8600  -24.5850   -7.8470 C.3     1  UNL1        0.0140
     24  C         16.9550  -24.8140   -6.8050 C.3     1  UNL1        0.0410
     25  C         17.0690  -23.7340   -5.7770 C.2     1  UNL1       -0.0300
     26  C         16.2800  -23.5930   -4.6510 C.2     1  UNL1        0.0960
     27  N         16.7210  -22.5050   -3.9480 N.pl3   1  UNL1       -0.3650
     28  C         17.7870  -21.9210   -4.5900 C.2     1  UNL1        0.0420
     29  H         16.3300  -22.1750   -3.0740 H       1  UNL1        0.1650
     30  C         18.5510  -20.8020   -4.2350 C.2     1  UNL1        0.0300
     31  C         18.0300  -22.6710   -5.7420 C.2     1  UNL1       -0.0020
     32  C         19.5960  -20.4350   -5.0890 C.2     1  UNL1        0.0020
     33  C         19.8650  -21.1620   -6.2460 C.2     1  UNL1        0.0010
     34  C         19.0940  -22.2800   -6.5820 C.2     1  UNL1        0.0140
@<TRIPOS>BOND
     1    20    21    1
     2    20    19    2
     3    21    16    2
     4    19    18    1
     5    14    13    2
     6    16    13    1
     7    16    17    1
     8    13    12   am
     9    18    17    2
    10    12    10    1
    11    12    15    1
    12    11    10    1
    13    11     6    2
    14     5     6    1
    15     5     3    1
    16    10     9    2
    17     6     7    1
    18     1     2    2
    19     3     2   am
    20     3     4    1
    21     9     8    1
    22     2    22    1
    23     7     8    2
    24    22    23    1
    25    23    24    1
    26    24    25    1
    27    34    33    2
    28    34    31    1
    29    33    32    1
    30    25    31    1
    31    25    26    2
    32    31    28    2
    33    32    30    2
    34    26    27    1
    35    28    30    1
    36    28    27    1
    37    27    29    1
