@<TRIPOS>MOLECULE
54955_out_ligand_01.pdbqt
 25 27 0 0 0
SMALL
GASTEIGER

@<TRIPOS>ATOM
      1  C         20.2510  -23.6300   -8.9890 C.2     1  UNL1        0.2580
      2  O         20.7240  -24.7390   -9.2250 O.2     1  UNL1       -0.2670
      3  N         20.4550  -22.4810   -9.7720 N.am    1  UNL1       -0.3130
      4  C         19.3150  -21.6050  -10.0680 C.3     1  UNL1        0.1330
      5  C         18.9050  -21.7360  -11.5230 C.3     1  UNL1        0.0250
      6  C         20.0510  -21.2690  -12.4000 C.3     1  UNL1        0.0420
      7  C         21.3810  -21.8260  -11.9570 C.2     1  UNL1       -0.0310
      8  C         22.4490  -21.7410  -12.8640 C.2     1  UNL1        0.0090
      9  C         23.7070  -22.2200  -12.5240 C.2     1  UNL1        0.0010
     10  C         23.9170  -22.7520  -11.2570 C.2     1  UNL1        0.0090
     11  C         22.8760  -22.8180  -10.3100 C.2     1  UNL1       -0.0350
     12  C         23.2560  -23.3040   -8.9350 C.3     1  UNL1        0.0500
     13  C         21.5750  -22.3980  -10.6750 C.2     1  UNL1        0.0490
     14  C         19.3980  -23.5000   -7.7760 C.2     1  UNL1        0.0320
     15  C         18.4250  -24.4600   -7.4710 C.2     1  UNL1        0.0170
     16  C         17.6210  -24.3010   -6.3410 C.2     1  UNL1        0.0100
     17  C         17.7710  -23.1800   -5.5110 C.2     1  UNL1       -0.0400
     18  C         18.7280  -22.2080   -5.8400 C.2     1  UNL1        0.0100
     19  C         19.5360  -22.3660   -6.9690 C.2     1  UNL1        0.0170
     20  C         16.8740  -23.0010   -4.3120 C.3     1  UNL1        0.1610
     21  N         15.7790  -22.1090   -4.6210 N.am    1  UNL1       -0.3570
     22  C         14.6040  -22.5700   -5.1650 C.2     1  UNL1        0.2130
     23  C         13.6380  -21.4830   -5.5470 C.3     1  UNL1        0.1170
     24  O         14.3540  -23.7580   -5.3480 O.2     1  UNL1       -0.2740
     25  H         15.9910  -21.1230   -4.6880 H       1  UNL1        0.1620
@<TRIPOS>BOND
     1     8     9    1
     2     8     7    2
     3     9    10    2
     4     6     7    1
     5     6     5    1
     6     7    13    1
     7     5     4    1
     8    10    11    1
     9    13    11    2
    10    13     3    1
    11    11    12    1
    12     4     3    1
    13     3     1   am
    14     2     1    2
    15     1    14    1
    16    14    15    2
    17    14    19    1
    18    15    16    1
    19    19    18    2
    20    16    17    2
    21    18    17    1
    22    23    22    1
    23    17    20    1
    24    24    22    2
    25    22    21   am
    26    25    21    1
    27    21    20    1
