@<TRIPOS>MOLECULE
54969_out_ligand_01.pdbqt
 26 28 0 0 0
SMALL
GASTEIGER

@<TRIPOS>ATOM
      1  C         17.4640  -23.2640   -8.3420 C.2     1  UNL1       -0.0060
      2  C         18.1970  -23.3910   -7.1520 C.2     1  UNL1        0.0130
      3  C         17.6010  -23.1150   -5.9170 C.2     1  UNL1        0.0230
      4  C         16.2650  -22.7060   -5.8550 C.2     1  UNL1        0.0470
      5  C         15.6560  -22.4240   -4.5890 C.1     1  UNL1        0.0990
      6  N         15.1700  -22.1940   -3.5610 N.1     1  UNL1       -0.1910
      7  C         15.5310  -22.5630   -7.0320 C.2     1  UNL1        0.0650
      8  C         16.1340  -22.8400   -8.2580 C.2     1  UNL1        0.1250
      9  F         15.4120  -22.6590   -9.3720 F       1  UNL1       -0.2050
     10  C         18.0890  -23.5740   -9.6810 C.3     1  UNL1        0.1380
     11  N         18.8960  -22.4470  -10.1530 N.pl3   1  UNL1       -0.2740
     12  C         20.2910  -22.6250  -10.2480 C.2     1  UNL1        0.0170
     13  C         21.1180  -23.3590   -9.4080 C.2     1  UNL1        0.0260
     14  C         20.8580  -21.8990  -11.3000 C.2     1  UNL1       -0.0340
     15  C         22.4970  -23.3870   -9.6480 C.2     1  UNL1        0.0260
     16  C         23.0370  -22.6690  -10.7270 C.2     1  UNL1        0.0740
     17  C         22.2220  -21.9010  -11.5600 C.2     1  UNL1        0.0330
     18  C         19.8000  -21.1260  -12.0050 C.3     1  UNL1        0.0600
     19  C         18.5220  -21.7770  -11.4260 C.3     1  UNL1        0.0640
     20  C         17.4410  -20.7280  -11.2030 C.3     1  UNL1        0.0270
     21  S         24.7880  -22.7120  -11.0030 S.O2    1  UNL1        0.2390
     22  O         25.0440  -23.4210  -12.2360 O.2     1  UNL1       -0.2060
     23  O         25.3280  -21.4020  -10.7290 O.2     1  UNL1       -0.2060
     24  N         25.2940  -23.7510   -9.7770 N.3     1  UNL1       -0.2250
     25  H         25.6140  -24.6550  -10.1240 H       1  UNL1        0.1360
     26  H         26.0090  -23.2790   -9.2220 H       1  UNL1        0.1360
@<TRIPOS>BOND
     1    22    21    2
     2    18    19    1
     3    18    14    1
     4    17    14    1
     5    17    16    2
     6    19    20    1
     7    19    11    1
     8    14    12    2
     9    21    23    2
    10    21    16    1
    11    21    24    1
    12    16    15    1
    13    12    11    1
    14    12    13    1
    15    11    10    1
    16    25    24    1
    17    24    26    1
    18    10     1    1
    19    15    13    2
    20     9     8    1
    21     1     8    2
    22     1     2    1
    23     8     7    1
    24     2     3    2
    25     7     4    2
    26     3     4    1
    27     4     5    1
    28     5     6    3
