@<TRIPOS>MOLECULE
54965_out_ligand_01.pdbqt
 30 32 0 0 0
SMALL
GASTEIGER

@<TRIPOS>ATOM
      1  N         20.4490  -23.2830   -9.6540 N.am    1  UNL1       -0.3270
      2  C         20.3650  -22.8660   -8.3310 C.2     1  UNL1        0.2240
      3  O         21.1570  -22.1230   -7.7680 O.2     1  UNL1       -0.2730
      4  H         19.8170  -24.0150   -9.9510 H       1  UNL1        0.1690
      5  C         19.2080  -23.5260   -7.5910 C.3     1  UNL1        0.1340
      6  C         17.9820  -22.6120   -7.3460 C.3     1  UNL1        0.1340
      7  C         17.8990  -22.1980   -5.8800 C.2     1  UNL1       -0.0240
      8  C         18.8570  -21.3450   -5.3080 C.2     1  UNL1        0.0100
      9  C         16.8710  -22.7110   -5.0760 C.2     1  UNL1       -0.0260
     10  C         18.7950  -21.0230   -3.9500 C.2     1  UNL1        0.0010
     11  C         17.7810  -21.5490   -3.1530 C.2     1  UNL1        0.0010
     12  C         16.8190  -22.3900   -3.7130 C.2     1  UNL1        0.0120
     13  C         15.8560  -23.5650   -5.6840 C.2     1  UNL1        0.0290
     14  C         15.8010  -23.7280   -7.0130 C.2     1  UNL1        0.0950
     15  N         16.7150  -23.1630   -7.9000 N.am    1  UNL1       -0.3190
     16  C         16.4250  -23.2150   -9.2720 C.2     1  UNL1        0.2200
     17  C         17.3080  -22.4190  -10.2040 C.3     1  UNL1        0.1170
     18  O         15.4590  -23.8240   -9.7450 O.2     1  UNL1       -0.2730
     19  C         21.3740  -22.8470  -10.6270 C.2     1  UNL1        0.0340
     20  C         20.8980  -21.9550  -11.6040 C.2     1  UNL1        0.0310
     21  C         21.7460  -21.4740  -12.6070 C.2     1  UNL1        0.0270
     22  C         23.0800  -21.8840  -12.6290 C.2     1  UNL1        0.0790
     23  C         23.5760  -22.7520  -11.6530 C.2     1  UNL1        0.0270
     24  C         22.7170  -23.2350  -10.6550 C.2     1  UNL1        0.0310
     25  S         24.1740  -21.2790  -13.8890 S.O2    1  UNL1        0.2580
     26  O         23.3860  -20.7380  -14.9800 O.2     1  UNL1       -0.2010
     27  O         25.2080  -20.5030  -13.2370 O.2     1  UNL1       -0.2010
     28  N         24.9090  -22.6930  -14.4280 N.3     1  UNL1       -0.3200
     29  C         24.9650  -22.9420  -15.8610 C.3     1  UNL1        0.1590
     30  H         25.7050  -22.9640  -13.8470 H       1  UNL1        0.1710
@<TRIPOS>BOND
     1    29    28    1
     2    26    25    2
     3    28    25    1
     4    28    30    1
     5    25    27    2
     6    25    22    1
     7    22    21    2
     8    22    23    1
     9    21    20    1
    10    23    24    2
    11    20    19    2
    12    24    19    1
    13    19     1    1
    14    17    16    1
    15     4     1    1
    16    18    16    2
    17     1     2   am
    18    16    15   am
    19     2     3    2
    20     2     5    1
    21    15     6    1
    22    15    14    1
    23     5     6    1
    24     6     7    1
    25    14    13    2
    26     7     8    2
    27     7     9    1
    28    13     9    1
    29     8    10    1
    30     9    12    2
    31    10    11    2
    32    12    11    1
