@<TRIPOS>MOLECULE
54961_out_ligand_01.pdbqt
 31 33 0 0 0
SMALL
GASTEIGER

@<TRIPOS>ATOM
      1  C         16.2320  -23.0330   -8.6500 C.2     1  UNL1        0.2190
      2  O         15.5040  -22.1500   -8.2080 O.2     1  UNL1       -0.2740
      3  N         16.9440  -22.9030   -9.8230 N.am    1  UNL1       -0.3610
      4  H         17.5380  -23.6630  -10.1310 H       1  UNL1        0.1620
      5  C         16.4500  -24.3640   -7.9610 C.3     1  UNL1        0.1320
      6  C         17.3850  -24.2180   -6.7480 C.3     1  UNL1        0.1260
      7  N         16.7870  -23.4170   -5.6770 N.am    1  UNL1       -0.3520
      8  C         17.0960  -23.6380   -4.3540 C.2     1  UNL1        0.2140
      9  C         16.5410  -22.6010   -3.4150 C.3     1  UNL1        0.1170
     10  O         17.7670  -24.5810   -3.9560 O.2     1  UNL1       -0.2740
     11  H         16.5090  -22.4750   -5.9260 H       1  UNL1        0.1630
     12  C         18.7160  -23.5800   -7.1450 C.2     1  UNL1       -0.0350
     13  C         19.1210  -22.3390   -6.6270 C.2     1  UNL1        0.0100
     14  C         20.3580  -21.7880   -6.9750 C.2     1  UNL1        0.0070
     15  C         21.2110  -22.4590   -7.8570 C.2     1  UNL1       -0.0620
     16  C         22.5630  -21.9030   -8.1920 C.3     1  UNL1        0.0480
     17  C         20.8090  -23.6920   -8.3820 C.2     1  UNL1        0.0070
     18  C         19.5740  -24.2440   -8.0320 C.2     1  UNL1        0.0100
     19  C         16.7920  -21.7580  -10.7020 C.3     1  UNL1        0.1230
     20  C         17.8800  -21.7140  -11.7720 C.3     1  UNL1        0.0270
     21  C         18.9410  -20.6460  -11.4990 C.3     1  UNL1        0.0800
     22  C         20.3010  -21.1290  -11.8710 C.ar    1  UNL1        0.1050
     23  N         21.0240  -22.0320  -11.2400 N.ar    1  UNL1       -0.2330
     24  C         22.1860  -22.1440  -11.9630 C.ar    1  UNL1        0.0850
     25  C         23.3050  -22.9610  -11.7430 C.2     1  UNL1        0.0340
     26  C         22.1730  -21.2920  -13.0610 C.ar    1  UNL1        0.0620
     27  C         24.3750  -22.8910  -12.6430 C.2     1  UNL1        0.0020
     28  C         24.3330  -22.0260  -13.7390 C.2     1  UNL1        0.0020
     29  C         23.2250  -21.2020  -13.9750 C.2     1  UNL1        0.0320
     30  N         20.9640  -20.6510  -12.9740 N.ar    1  UNL1       -0.3430
     31  H         20.6120  -19.9490  -13.6100 H       1  UNL1        0.1670
@<TRIPOS>BOND
     1    29    28    2
     2    29    26    1
     3    28    27    1
     4    31    30    1
     5    26    30   ar
     6    26    24   ar
     7    30    22   ar
     8    27    25    2
     9    24    25    1
    10    24    23   ar
    11    22    21    1
    12    22    23   ar
    13    20    21    1
    14    20    19    1
    15    19     3    1
    16     4     3    1
    17     3     1   am
    18     1     2    2
    19     1     5    1
    20    17    18    1
    21    17    15    2
    22    16    15    1
    23    18    12    2
    24     5     6    1
    25    15    14    1
    26    12     6    1
    27    12    13    1
    28    14    13    2
    29     6     7    1
    30    11     7    1
    31     7     8   am
    32     8    10    2
    33     8     9    1
