@<TRIPOS>MOLECULE
54975_out_ligand_01.pdbqt
 29 32 0 0 0
SMALL
GASTEIGER

@<TRIPOS>ATOM
      1  C         20.4490  -23.1520   -8.2420 C.2     1  UNL1        0.0320
      2  C         20.3850  -22.0120   -7.4300 C.2     1  UNL1        0.0180
      3  C         19.4370  -21.9430   -6.4080 C.2     1  UNL1        0.0260
      4  C         18.5680  -23.0220   -6.2010 C.2     1  UNL1        0.0790
      5  C         18.6630  -24.1810   -6.9770 C.2     1  UNL1        0.0260
      6  C         19.6110  -24.2480   -7.9980 C.2     1  UNL1        0.0180
      7  C         21.4590  -23.2520   -9.3190 C.2     1  UNL1        0.2580
      8  N         21.2830  -22.4630  -10.4460 N.am    1  UNL1       -0.3090
      9  C         22.2180  -22.3510  -11.4990 C.2     1  UNL1        0.0440
     10  C         20.0530  -21.7260  -10.8550 C.3     1  UNL1        0.0930
     11  C         23.4410  -22.9830  -11.6550 C.2     1  UNL1        0.0300
     12  C         21.7590  -21.4490  -12.4620 C.2     1  UNL1       -0.0290
     13  C         24.1940  -22.7090  -12.8020 C.2     1  UNL1        0.0020
     14  C         23.7270  -21.8060  -13.7680 C.2     1  UNL1        0.0010
     15  C         22.5020  -21.1620  -13.5970 C.2     1  UNL1        0.0090
     16  C         20.4630  -20.8320  -12.0480 C.3     1  UNL1        0.0660
     17  C         18.9360  -22.6920  -11.2670 C.3     1  UNL1        0.0330
     18  O         22.3810  -24.0380   -9.1190 O.2     1  UNL1       -0.2670
     19  S         17.3620  -22.9280   -4.8990 S.O2    1  UNL1        0.2630
     20  O         17.7220  -21.8030   -4.0610 O.2     1  UNL1       -0.2000
     21  O         17.1740  -24.2470   -4.3360 O.2     1  UNL1       -0.2000
     22  N         15.9640  -22.4600   -5.7300 N.pl3   1  UNL1       -0.2810
     23  H         15.1530  -22.5210   -5.1150 H       1  UNL1        0.1790
     24  C         15.8000  -22.9250   -7.0650 C.2     1  UNL1        0.0420
     25  C         16.0530  -22.0620   -8.1310 C.2     1  UNL1        0.0300
     26  C         15.9310  -22.5240   -9.4410 C.2     1  UNL1        0.0020
     27  C         15.5630  -23.8490   -9.6830 C.2     1  UNL1        0.0000
     28  C         15.3180  -24.7120   -8.6130 C.2     1  UNL1        0.0020
     29  C         15.4410  -24.2500   -7.3020 C.2     1  UNL1        0.0300
@<TRIPOS>BOND
     1    14    15    2
     2    14    13    1
     3    15    12    1
     4    13    11    2
     5    12    16    1
     6    12     9    2
     7    16    10    1
     8    11     9    1
     9     9     8    1
    10    17    10    1
    11    10     8    1
    12     8     7   am
    13    27    26    2
    14    27    28    1
    15    26    25    1
    16     7    18    2
    17     7     1    1
    18    28    29    2
    19     1     6    2
    20     1     2    1
    21    25    24    2
    22     6     5    1
    23     2     3    2
    24    29    24    1
    25    24    22    1
    26     5     4    2
    27     3     4    1
    28     4    19    1
    29    22    23    1
    30    22    19    1
    31    19    21    2
    32    19    20    2
