@<TRIPOS>MOLECULE
54986_out_ligand_01.pdbqt
 28 31 0 0 0
SMALL
GASTEIGER

@<TRIPOS>ATOM
      1  N         20.1610  -22.8330  -10.5190 N.am    1  UNL1       -0.3240
      2  C         19.0300  -22.0520  -10.6280 C.2     1  UNL1        0.2270
      3  O         18.9780  -20.8470  -10.8270 O.2     1  UNL1       -0.2730
      4  H         20.0450  -23.8250  -10.3640 H       1  UNL1        0.1690
      5  C         17.7750  -22.8510  -10.4980 C.3     1  UNL1        0.0870
      6  C         16.4890  -22.1640  -10.1340 C.3     1  UNL1        0.0250
      7  C         17.1040  -23.1470   -9.1630 C.3     1  UNL1        0.0330
      8  C         17.6350  -22.6570   -7.8210 C.2     1  UNL1       -0.0420
      9  C         18.9940  -22.3060   -7.6990 C.2     1  UNL1        0.0080
     10  C         19.5330  -21.8430   -6.5010 C.2     1  UNL1        0.0010
     11  C         18.7270  -21.7420   -5.3750 C.2     1  UNL1        0.0120
     12  C         17.3820  -22.1210   -5.4270 C.2     1  UNL1       -0.0250
     13  C         16.5900  -22.0400   -4.2690 C.2     1  UNL1        0.0120
     14  C         16.8240  -22.5940   -6.6450 C.2     1  UNL1       -0.0190
     15  C         15.2540  -22.4330   -4.2830 C.2     1  UNL1        0.0010
     16  C         14.6940  -22.9170   -5.4570 C.2     1  UNL1        0.0010
     17  C         15.4690  -22.9980   -6.6180 C.2     1  UNL1        0.0130
     18  C         21.4600  -22.3610  -10.5770 C.2     1  UNL1        0.0710
     19  C         22.3070  -22.3060  -11.6560 C.2     1  UNL1        0.1440
     20  N         23.4720  -21.7540  -11.2080 N.pl3   1  UNL1       -0.2700
     21  N         23.4400  -21.4370   -9.8920 N.2     1  UNL1       -0.1820
     22  C         22.2130  -21.8120   -9.5150 C.2     1  UNL1        0.1690
     23  C         24.6530  -21.4590  -11.9960 C.3     1  UNL1        0.2520
     24  C         25.8350  -21.1070  -11.1230 C.2     1  UNL1        0.2350
     25  N         26.3980  -22.1420  -10.4260 N.am    1  UNL1       -0.3690
     26  H         27.2630  -21.9370   -9.9420 H       1  UNL1        0.1590
     27  H         26.2940  -23.0810  -10.8090 H       1  UNL1        0.1590
     28  O         26.2480  -19.9600  -10.9790 O.2     1  UNL1       -0.2720
@<TRIPOS>BOND
     1    23    20    1
     2    23    24    1
     3    19    20    1
     4    19    18    2
     5    20    21    1
     6    24    28    2
     7    24    25   am
     8     3     2    2
     9    27    25    1
    10     2     1   am
    11     2     5    1
    12    18     1    1
    13    18    22    1
    14     1     4    1
    15     5     6    1
    16     5     7    1
    17    25    26    1
    18     6     7    1
    19    21    22    2
    20     7     8    1
    21     8     9    2
    22     8    14    1
    23     9    10    1
    24    14    17    1
    25    14    12    2
    26    17    16    2
    27    10    11    2
    28    16    15    1
    29    12    11    1
    30    12    13    1
    31    15    13    2
