@<TRIPOS>MOLECULE
54992_out_ligand_01.pdbqt
 31 34 0 0 0
SMALL
GASTEIGER

@<TRIPOS>ATOM
      1  C         20.6740  -21.7290  -11.7540 C.2     1  UNL1        0.0340
      2  C         19.6180  -20.8620  -12.0760 C.2     1  UNL1        0.0170
      3  C         18.4150  -20.9210  -11.3630 C.2     1  UNL1        0.0040
      4  C         18.2550  -21.8530  -10.3390 C.2     1  UNL1        0.0370
      5  C         19.2960  -22.7330  -10.0540 C.2     1  UNL1        0.0790
      6  C         20.5070  -22.6760  -10.7380 C.2     1  UNL1        0.0540
      7  O         19.1620  -23.6640   -9.0160 O.2     1  UNL1       -0.2910
      8  C         18.7480  -23.1390   -7.8030 C.2     1  UNL1        0.1890
      9  C         19.8180  -22.2410   -7.3080 C.2     1  UNL1        0.0640
     10  C         19.5920  -21.6350   -6.1340 C.2     1  UNL1        0.0590
     11  C         18.3780  -21.8790   -5.4580 C.ar    1  UNL1        0.1750
     12  N         17.8880  -21.4310   -4.3230 N.ar    1  UNL1       -0.1280
     13  N         17.4730  -22.7450   -6.0440 N.ar    1  UNL1       -0.1870
     14  N         16.6480  -22.0010   -4.1500 N.ar    1  UNL1       -0.1230
     15  C         16.4080  -22.7870   -5.1880 C.ar    1  UNL1        0.2580
     16  N         17.6180  -23.4030   -7.2300 N.2     1  UNL1       -0.1380
     17  C         15.2250  -23.6090   -5.4790 C.3     1  UNL1        0.4540
     18  F         15.3930  -24.3890   -6.5810 F       1  UNL1       -0.1630
     19  F         14.1150  -22.8610   -5.7100 F       1  UNL1       -0.1630
     20  F         14.9230  -24.4590   -4.4600 F       1  UNL1       -0.1630
     21  C         21.9770  -21.6960  -12.4760 C.2     1  UNL1        0.2520
     22  O         22.0880  -21.0410  -13.5060 O.2     1  UNL1       -0.2680
     23  N         22.9930  -22.4590  -11.9420 N.am    1  UNL1       -0.3530
     24  H         22.7660  -23.1580  -11.2500 H       1  UNL1        0.1630
     25  C         24.2510  -22.6260  -12.6350 C.3     1  UNL1        0.1610
     26  C         25.1320  -21.4190  -12.4410 C.2     1  UNL1       -0.0410
     27  C         25.6210  -21.0820  -11.1690 C.2     1  UNL1        0.0090
     28  C         26.4540  -19.9740  -11.0030 C.2     1  UNL1        0.0010
     29  C         26.8100  -19.1960  -12.1040 C.2     1  UNL1        0.0000
     30  C         26.3370  -19.5270  -13.3730 C.2     1  UNL1        0.0010
     31  C         25.5040  -20.6330  -13.5410 C.2     1  UNL1        0.0090
@<TRIPOS>BOND
     1    31    30    1
     2    31    26    2
     3    22    21    2
     4    30    29    2
     5    25    26    1
     6    25    23    1
     7    21    23   am
     8    21     1    1
     9    26    27    1
    10    29    28    1
    11     2     1    2
    12     2     3    1
    13    23    24    1
    14     1     6    1
    15     3     4    2
    16    27    28    2
    17     6     5    2
    18     4     5    1
    19     5     7    1
    20     7     8    1
    21     8     9    1
    22     8    16    2
    23     9    10    2
    24    16    13    1
    25    18    17    1
    26    10    11    1
    27    13    11   ar
    28    13    15   ar
    29    19    17    1
    30    17    15    1
    31    17    20    1
    32    11    12   ar
    33    15    14   ar
    34    12    14   ar
