@<TRIPOS>MOLECULE
549_out_ligand_01.pdbqt
 40 43 0 0 0
SMALL
GASTEIGER

@<TRIPOS>ATOM
      1  N         22.6920  -22.6430  -11.5010 N.am    1  UNL1       -0.2630
      2  C         21.7700  -22.9640  -10.5270 C.2     1  UNL1        0.2700
      3  O         22.0560  -23.6580   -9.5550 O.2     1  UNL1       -0.2660
      4  H         22.5090  -22.0760  -12.3250 H       1  UNL1        0.1900
      5  N         23.9570  -23.2360  -11.4260 N.am    1  UNL1       -0.2670
      6  C         25.0270  -22.4280  -11.1020 C.2     1  UNL1        0.2450
      7  O         24.8660  -21.2710  -10.7070 O.2     1  UNL1       -0.2710
      8  H         24.0770  -24.0950  -11.9650 H       1  UNL1        0.1900
      9  C         26.4080  -23.0080  -11.3520 C.3     1  UNL1        0.1870
     10  S         27.1140  -22.4840  -12.9440 S.3     1  UNL1       -0.0800
     11  C         26.5300  -23.7510  -13.9770 C.ar    1  UNL1        0.2030
     12  N         26.4490  -25.0130  -13.6140 N.ar    1  UNL1       -0.1350
     13  N         25.7720  -25.6500  -14.6120 N.ar    1  UNL1        0.0190
     14  N         25.4310  -24.8050  -15.5730 N.ar    1  UNL1        0.0030
     15  N         25.9380  -23.5920  -15.2260 N.ar    1  UNL1       -0.2170
     16  C         25.8690  -22.4830  -16.1180 C.2     1  UNL1        0.0620
     17  C         26.7390  -22.4360  -17.2240 C.2     1  UNL1        0.0320
     18  C         26.6700  -21.3900  -18.1470 C.2     1  UNL1        0.0020
     19  C         25.7290  -20.3830  -17.9880 C.2     1  UNL1        0.0010
     20  C         24.8550  -20.4160  -16.9030 C.2     1  UNL1        0.0090
     21  C         24.9120  -21.4520  -15.9490 C.2     1  UNL1       -0.0340
     22  C         23.9520  -21.3700  -14.7910 C.3     1  UNL1        0.0500
     23  C         20.3960  -22.4140  -10.6900 C.2     1  UNL1        0.0350
     24  C         20.0790  -21.4770  -11.6840 C.2     1  UNL1        0.0170
     25  C         18.7690  -21.0030  -11.8140 C.2     1  UNL1        0.0030
     26  C         17.7720  -21.4640  -10.9570 C.2     1  UNL1        0.0250
     27  C         18.0890  -22.4030   -9.9710 C.2     1  UNL1        0.0750
     28  C         19.3920  -22.8880   -9.8360 C.2     1  UNL1        0.0410
     29  S         16.8000  -22.9910   -8.9000 S.O2    1  UNL1        0.2450
     30  O         16.1730  -21.8280   -8.3170 O.2     1  UNL1       -0.2060
     31  O         16.0520  -24.0070   -9.6080 O.2     1  UNL1       -0.2060
     32  N         17.7230  -23.8210   -7.7250 N.pl3   1  UNL1       -0.1810
     33  H         17.2160  -24.6830   -7.5140 H       1  UNL1        0.1460
     34  C         17.9440  -23.0640   -6.5270 C.2     1  UNL1        0.0230
     35  C         17.1400  -23.2800   -5.4040 C.2     1  UNL1        0.0270
     36  C         17.3290  -22.5060   -4.2570 C.2     1  UNL1        0.0440
     37  C         18.3090  -21.5170   -4.2510 C.2     1  UNL1        0.1160
     38  F         18.4850  -20.7740   -3.1540 F       1  UNL1       -0.2060
     39  C         19.1000  -21.2860   -5.3720 C.2     1  UNL1        0.0440
     40  C         18.9140  -22.0590   -6.5180 C.2     1  UNL1        0.0270
@<TRIPOS>BOND
     1    18    19    2
     2    18    17    1
     3    19    20    1
     4    17    16    2
     5    20    21    2
     6    16    21    1
     7    16    15    1
     8    21    22    1
     9    14    15   ar
    10    14    13   ar
    11    15    11   ar
    12    13    12   ar
    13    11    12   ar
    14    11    10    1
    15    10     9    1
    16     4     1    1
    17     8     5    1
    18    25    24    1
    19    25    26    2
    20    24    23    2
    21     1     5    1
    22     1     2   am
    23     5     6   am
    24     9     6    1
    25     6     7    2
    26    26    27    1
    27    23     2    1
    28    23    28    1
    29     2     3    2
    30    27    28    2
    31    27    29    1
    32    31    29    2
    33    29    30    2
    34    29    32    1
    35    32    33    1
    36    32    34    1
    37    34    40    2
    38    34    35    1
    39    40    39    1
    40    35    36    2
    41    39    37    2
    42    36    37    1
    43    37    38    1
