@<TRIPOS>MOLECULE
5502_out_ligand_01.pdbqt
 35 37 0 0 0
SMALL
GASTEIGER

@<TRIPOS>ATOM
      1  N         23.1730  -22.2170  -10.6020 N.3     1  UNL1       -0.2940
      2  C         22.2560  -22.0540  -11.7570 C.3     1  UNL1        0.1740
      3  C         20.7820  -21.9080  -11.4520 C.2     1  UNL1       -0.0400
      4  C         20.1190  -20.6910  -11.6590 C.2     1  UNL1        0.0090
      5  C         18.7590  -20.5620  -11.3690 C.2     1  UNL1        0.0070
      6  C         18.0300  -21.6510  -10.8780 C.2     1  UNL1       -0.0620
      7  C         16.5780  -21.4950  -10.5380 C.3     1  UNL1        0.0480
      8  C         18.6890  -22.8650  -10.6600 C.2     1  UNL1        0.0070
      9  C         20.0490  -22.9940  -10.9520 C.2     1  UNL1        0.0090
     10  C         22.7790  -21.5350   -9.3310 C.3     1  UNL1        0.2380
     11  C         21.8340  -22.3980   -8.4940 C.2     1  UNL1        0.2400
     12  O         22.0330  -23.6000   -8.3450 O.2     1  UNL1       -0.2710
     13  N         20.8480  -21.6450   -7.8730 N.am    1  UNL1       -0.3260
     14  H         20.8740  -20.6570   -8.1030 H       1  UNL1        0.1690
     15  C         19.8190  -22.0830   -7.0260 C.2     1  UNL1        0.0340
     16  C         19.4840  -21.2560   -5.9470 C.2     1  UNL1        0.0300
     17  C         18.4650  -21.6190   -5.0610 C.2     1  UNL1        0.0190
     18  C         17.7700  -22.8190   -5.2380 C.2     1  UNL1        0.0320
     19  C         18.0920  -23.6410   -6.3230 C.2     1  UNL1        0.0190
     20  C         19.1150  -23.2750   -7.2080 C.2     1  UNL1        0.0300
     21  C         16.6920  -23.1590   -4.2710 C.2     1  UNL1        0.2490
     22  N         16.1590  -22.1420   -3.5290 N.am    1  UNL1       -0.3660
     23  H         16.2910  -21.1700   -3.7640 H       1  UNL1        0.1590
     24  H         15.3530  -22.3800   -2.9640 H       1  UNL1        0.1590
     25  O         16.2660  -24.3030   -4.1630 O.2     1  UNL1       -0.2680
     26  S         24.8450  -22.1940  -10.9300 S.O2    1  UNL1        0.2610
     27  O         25.4440  -23.3530  -10.3100 O.2     1  UNL1       -0.2000
     28  O         25.3420  -20.8610  -10.6720 O.2     1  UNL1       -0.2000
     29  C         24.8720  -22.4700  -12.6870 C.2     1  UNL1        0.0790
     30  C         24.7130  -21.3990  -13.5690 C.2     1  UNL1        0.0260
     31  C         24.7440  -21.6320  -14.9450 C.2     1  UNL1        0.0080
     32  C         24.9400  -22.9280  -15.4430 C.2     1  UNL1       -0.0620
     33  C         25.0140  -23.1660  -16.9240 C.3     1  UNL1        0.0480
     34  C         25.1410  -23.9860  -14.5470 C.2     1  UNL1        0.0080
     35  C         25.1100  -23.7590  -13.1700 C.2     1  UNL1        0.0260
@<TRIPOS>BOND
     1    33    32    1
     2    32    31    2
     3    32    34    1
     4    31    30    1
     5    34    35    2
     6    30    29    2
     7    35    29    1
     8    29    26    1
     9     2     3    1
    10     2     1    1
    11     4     3    2
    12     4     5    1
    13     3     9    1
    14     5     6    2
    15     9     8    2
    16    26    28    2
    17    26     1    1
    18    26    27    2
    19     6     8    1
    20     6     7    1
    21     1    10    1
    22    10    11    1
    23    11    12    2
    24    11    13   am
    25    14    13    1
    26    13    15    1
    27    20    15    2
    28    20    19    1
    29    15    16    1
    30    19    18    2
    31    16    17    2
    32    18    17    1
    33    18    21    1
    34    21    25    2
    35    21    22   am
    36    23    22    1
    37    22    24    1
