@<TRIPOS>MOLECULE
55051_out_ligand_01.pdbqt
 33 38 0 0 0
SMALL
GASTEIGER

@<TRIPOS>ATOM
      1  C         20.4860  -22.3440  -10.6150 C.2     1  UNL1        0.0320
      2  C         21.5380  -23.0500  -10.0190 C.2     1  UNL1        0.0170
      3  C         22.8020  -23.0650  -10.6150 C.2     1  UNL1        0.0100
      4  C         23.0350  -22.3620  -11.8050 C.2     1  UNL1       -0.0300
      5  C         21.9770  -21.6480  -12.3900 C.2     1  UNL1        0.0100
      6  C         20.7130  -21.6290  -11.7960 C.2     1  UNL1        0.0170
      7  C         19.1530  -22.3590   -9.9460 C.2     1  UNL1        0.2560
      8  O         18.2090  -21.8400  -10.5280 O.2     1  UNL1       -0.2670
      9  N         19.1440  -22.9360   -8.6890 N.am    1  UNL1       -0.3220
     10  H         20.0420  -23.1910   -8.3070 H       1  UNL1        0.1690
     11  C         18.0360  -23.1340   -7.8270 C.2     1  UNL1        0.0460
     12  C         16.9330  -23.9370   -8.1900 C.2     1  UNL1        0.0310
     13  C         15.8420  -24.1290   -7.3250 C.2     1  UNL1        0.0100
     14  C         15.8580  -23.5180   -6.0880 C.2     1  UNL1       -0.0460
     15  C         16.9320  -22.7440   -5.7340 C.2     1  UNL1       -0.0110
     16  C         14.8250  -23.5680   -5.0010 C.2     1  UNL1        0.0440
     17  C         16.7440  -22.2390   -4.4700 C.2     1  UNL1       -0.0460
     18  C         18.0500  -22.5050   -6.5420 C.2     1  UNL1        0.0020
     19  C         17.7100  -21.4250   -3.9070 C.2     1  UNL1        0.0080
     20  C         15.4400  -22.6930   -3.8820 C.2     1  UNL1        0.0440
     21  C         18.8590  -21.1390   -4.6540 C.2     1  UNL1        0.0020
     22  C         19.0320  -21.6670   -5.9500 C.2     1  UNL1        0.0140
     23  C         24.4030  -22.3860  -12.4580 C.3     1  UNL1        0.3110
     24  N         24.4680  -21.6210  -13.7140 N.3     1  UNL1        0.0970
     25  C         24.8420  -22.5040  -14.8300 C.3     1  UNL1        0.2770
     26  C         24.7220  -21.7680  -16.1710 C.3     1  UNL1        0.0690
     27  C         25.4100  -20.4280  -16.1550 C.2     1  UNL1       -0.0490
     28  C         25.6940  -19.7660  -17.3570 C.2     1  UNL1        0.0070
     29  C         25.7110  -19.8110  -14.9280 C.2     1  UNL1       -0.0240
     30  C         26.2970  -18.5080  -17.3420 C.2     1  UNL1        0.0010
     31  C         26.6140  -17.9010  -16.1290 C.2     1  UNL1        0.0010
     32  C         26.3260  -18.5510  -14.9280 C.2     1  UNL1        0.0090
     33  C         25.4450  -20.5160  -13.6120 C.3     1  UNL1        0.3110
@<TRIPOS>BOND
     1    28    30    1
     2    28    27    2
     3    30    31    2
     4    26    27    1
     5    26    25    1
     6    27    29    1
     7    31    32    1
     8    32    29    2
     9    29    33    1
    10    25    24    1
    11    24    33    1
    12    24    23    1
    13    23     4    1
    14     5     4    2
    15     5     6    1
    16     4     3    1
    17     6     1    2
    18     1     2    1
    19     1     7    1
    20     3     2    2
    21     8     7    2
    22     7     9   am
    23     9    10    1
    24     9    11    1
    25    12    11    2
    26    12    13    1
    27    11    18    1
    28    13    14    2
    29    18    22    1
    30    18    15    2
    31    14    15    1
    32    14    16    1
    33    22    21    2
    34    15    17    1
    35    16    20    2
    36    21    19    1
    37    17    19    2
    38    17    20    1
