@<TRIPOS>MOLECULE
55064_out_ligand_01.pdbqt
 34 39 0 0 0
SMALL
GASTEIGER

@<TRIPOS>ATOM
      1  C         22.6700  -22.5940  -11.5180 C.2     1  UNL1        0.0320
      2  C         22.0550  -21.6390  -12.3360 C.2     1  UNL1        0.0170
      3  C         22.6470  -21.2600  -13.5420 C.2     1  UNL1        0.0100
      4  C         23.8660  -21.8240  -13.9420 C.2     1  UNL1       -0.0300
      5  C         24.4880  -22.7640  -13.1080 C.2     1  UNL1        0.0100
      6  C         23.8980  -23.1460  -11.9000 C.2     1  UNL1        0.0170
      7  C         21.9990  -22.9740  -10.2420 C.2     1  UNL1        0.2560
      8  O         22.4490  -23.9220   -9.6090 O.2     1  UNL1       -0.2670
      9  N         20.9350  -22.1660   -9.8820 N.am    1  UNL1       -0.3230
     10  H         20.7740  -21.3440  -10.4500 H       1  UNL1        0.1690
     11  C         20.0910  -22.3040   -8.7580 C.2     1  UNL1        0.0370
     12  C         20.4530  -21.9050   -7.4650 C.2     1  UNL1        0.0300
     13  C         19.5810  -22.0680   -6.3730 C.2     1  UNL1        0.0170
     14  C         18.3210  -22.6490   -6.5900 C.ar    1  UNL1        0.0110
     15  C         17.9930  -23.0380   -7.8830 C.ar    1  UNL1        0.0890
     16  C         17.1940  -22.9790   -5.7830 C.ar    1  UNL1        0.0110
     17  C         18.8350  -22.8860   -8.9850 C.2     1  UNL1        0.0670
     18  O         16.7450  -23.5830   -7.9180 O.2     1  UNL1       -0.3090
     19  C         16.2610  -23.5480   -6.6450 C.ar    1  UNL1        0.0870
     20  C         15.0110  -24.0150   -6.2460 C.2     1  UNL1        0.0380
     21  C         14.7000  -23.8890   -4.8880 C.2     1  UNL1        0.0030
     22  C         15.6080  -23.3210   -3.9890 C.2     1  UNL1        0.0010
     23  C         16.8600  -22.8610   -4.4210 C.2     1  UNL1        0.0150
     24  C         24.5150  -21.4090  -15.2490 C.3     1  UNL1        0.3110
     25  N         25.9850  -21.4530  -15.1950 N.3     1  UNL1        0.0970
     26  C         26.5190  -20.6610  -14.0730 C.3     1  UNL1        0.2770
     27  C         26.2510  -19.1510  -14.1750 C.3     1  UNL1        0.0690
     28  C         26.4690  -18.6100  -15.5660 C.2     1  UNL1       -0.0490
     29  C         26.4880  -17.2260  -15.7830 C.2     1  UNL1        0.0070
     30  C         26.5890  -19.4900  -16.6580 C.2     1  UNL1       -0.0240
     31  C         26.6450  -16.7170  -17.0720 C.2     1  UNL1        0.0010
     32  C         26.7810  -17.5840  -18.1520 C.2     1  UNL1        0.0010
     33  C         26.7570  -18.9640  -17.9470 C.2     1  UNL1        0.0090
     34  C         26.6110  -20.9900  -16.4480 C.3     1  UNL1        0.3110
@<TRIPOS>BOND
     1    32    33    2
     2    32    31    1
     3    33    30    1
     4    31    29    2
     5    30    34    1
     6    30    28    2
     7    34    25    1
     8    29    28    1
     9    28    27    1
    10    24    25    1
    11    24     4    1
    12    25    26    1
    13    27    26    1
    14     4     3    2
    15     4     5    1
    16     3     2    1
    17     5     6    2
    18     2     1    2
    19     6     1    1
    20     1     7    1
    21    10     9    1
    22     7     9   am
    23     7     8    2
    24     9    11    1
    25    17    11    2
    26    17    15    1
    27    11    12    1
    28    18    15   ar
    29    18    19   ar
    30    15    14   ar
    31    12    13    2
    32    19    20    1
    33    19    16   ar
    34    14    13    1
    35    14    16   ar
    36    20    21    2
    37    16    23    1
    38    21    22    1
    39    23    22    2
