@<TRIPOS>MOLECULE
5506_out_ligand_01.pdbqt
 35 37 0 0 0
SMALL
GASTEIGER

@<TRIPOS>ATOM
      1  N         23.2610  -22.6200  -10.4320 N.3     1  UNL1       -0.2980
      2  C         23.1350  -23.3530   -9.1490 C.3     1  UNL1        0.2380
      3  C         21.7280  -23.7740   -8.7390 C.2     1  UNL1        0.2400
      4  N         21.1210  -22.8720   -7.8770 N.am    1  UNL1       -0.3260
      5  H         21.6290  -22.0230   -7.6650 H       1  UNL1        0.1690
      6  O         21.2520  -24.8320   -9.1420 O.2     1  UNL1       -0.2710
      7  C         19.8300  -22.9550   -7.3170 C.2     1  UNL1        0.0340
      8  C         19.0000  -24.0740   -7.4240 C.2     1  UNL1        0.0310
      9  C         17.7270  -24.0770   -6.8420 C.2     1  UNL1        0.0270
     10  C         17.2810  -22.9510   -6.1510 C.2     1  UNL1        0.0740
     11  C         18.1000  -21.8280   -6.0250 C.2     1  UNL1        0.0270
     12  C         19.3690  -21.8320   -6.6130 C.2     1  UNL1        0.0310
     13  S         15.6850  -22.9470   -5.3910 S.O2    1  UNL1        0.2390
     14  O         15.3910  -24.2840   -4.9280 O.2     1  UNL1       -0.2060
     15  O         14.7650  -22.1830   -6.2000 O.2     1  UNL1       -0.2060
     16  N         15.9510  -22.0220   -4.0140 N.3     1  UNL1       -0.2250
     17  H         15.8140  -21.0340   -4.2350 H       1  UNL1        0.1360
     18  H         15.3600  -22.3580   -3.2530 H       1  UNL1        0.1360
     19  C         22.2140  -21.5790  -10.6420 C.3     1  UNL1        0.1400
     20  C         21.2280  -22.0050  -11.7430 C.3     1  UNL1        0.0590
     21  C         19.7660  -21.8380  -11.3920 C.2     1  UNL1       -0.0570
     22  C         19.1060  -20.6330  -11.6750 C.2     1  UNL1        0.0070
     23  C         17.7580  -20.4670  -11.3520 C.2     1  UNL1        0.0010
     24  C         17.0510  -21.5030  -10.7490 C.2     1  UNL1        0.0000
     25  C         17.6910  -22.7100  -10.4730 C.2     1  UNL1        0.0010
     26  C         19.0390  -22.8790  -10.7990 C.2     1  UNL1        0.0070
     27  S         24.8230  -22.1750  -10.9350 S.O2    1  UNL1        0.2610
     28  O         25.7480  -23.1780  -10.4550 O.2     1  UNL1       -0.2000
     29  O         25.0270  -20.7720  -10.6520 O.2     1  UNL1       -0.2000
     30  C         24.7170  -22.3330  -12.7010 C.2     1  UNL1        0.0790
     31  C         25.0530  -23.5540  -13.2920 C.2     1  UNL1        0.0250
     32  C         25.0000  -23.6800  -14.6790 C.2     1  UNL1        0.0020
     33  C         24.6090  -22.5930  -15.4640 C.2     1  UNL1        0.0000
     34  C         24.2640  -21.3780  -14.8660 C.2     1  UNL1        0.0020
     35  C         24.3160  -21.2420  -13.4790 C.2     1  UNL1        0.0250
@<TRIPOS>BOND
     1    33    34    2
     2    33    32    1
     3    34    35    1
     4    32    31    2
     5    35    30    2
     6    31    30    1
     7    30    27    1
     8    20    21    1
     9    20    19    1
    10    22    21    2
    11    22    23    1
    12    21    26    1
    13    23    24    2
    14    27    29    2
    15    27    28    2
    16    27     1    1
    17    26    25    2
    18    24    25    1
    19    19     1    1
    20     1     2    1
    21     2     3    1
    22     6     3    2
    23     3     4   am
    24     4     5    1
    25     4     7    1
    26     8     7    2
    27     8     9    1
    28     7    12    1
    29     9    10    2
    30    12    11    2
    31    15    13    2
    32    10    11    1
    33    10    13    1
    34    13    14    2
    35    13    16    1
    36    17    16    1
    37    16    18    1
