@<TRIPOS>MOLECULE
55075_out_ligand_01.pdbqt
 33 36 0 0 0
SMALL
GASTEIGER

@<TRIPOS>ATOM
      1  S         16.2450  -22.7520   -9.1930 S.O2    1  UNL1        0.2720
      2  O         14.9800  -22.5220   -9.8650 O.2     1  UNL1       -0.2030
      3  O         16.6650  -24.0970   -8.8580 O.2     1  UNL1       -0.2030
      4  C         17.4800  -22.0930  -10.2670 C.ar    1  UNL1        0.2330
      5  N         17.3550  -21.0520  -11.0660 N.ar    1  UNL1       -0.1270
      6  N         18.5050  -20.8540  -11.8100 N.ar    1  UNL1       -0.1220
      7  C         19.4180  -21.7680  -11.5610 C.ar    1  UNL1        0.1970
      8  S         18.9870  -22.8850  -10.3510 S.2     1  UNL1       -0.0150
      9  N         20.6170  -21.8000  -12.2260 N.am    1  UNL1       -0.3000
     10  C         21.8610  -21.5910  -11.6820 C.2     1  UNL1        0.2580
     11  O         22.1450  -21.3080  -10.5280 O.2     1  UNL1       -0.2670
     12  H         20.5340  -22.0390  -13.2060 H       1  UNL1        0.1710
     13  C         22.9650  -21.7170  -12.6660 C.2     1  UNL1        0.0380
     14  C         22.8040  -21.0450  -13.8850 C.2     1  UNL1        0.0170
     15  C         23.7830  -21.1480  -14.8710 C.2     1  UNL1        0.0010
     16  C         24.9210  -21.9170  -14.6400 C.2     1  UNL1        0.0010
     17  C         25.0930  -22.5710  -13.4170 C.2     1  UNL1        0.0070
     18  C         24.1280  -22.4670  -12.4030 C.2     1  UNL1       -0.0460
     19  C         24.3710  -23.1590  -11.0920 C.3     1  UNL1        0.0490
     20  N         16.1840  -21.8190   -7.7700 N.pl3   1  UNL1       -0.1790
     21  H         16.9130  -21.1040   -7.8080 H       1  UNL1        0.1460
     22  C         16.0460  -22.4960   -6.5070 C.2     1  UNL1        0.0340
     23  C         14.7920  -22.9610   -6.0970 C.2     1  UNL1        0.0250
     24  C         14.6450  -23.6300   -4.8810 C.2     1  UNL1        0.0020
     25  C         15.7460  -23.8220   -4.0540 C.2     1  UNL1        0.0010
     26  C         16.9940  -23.3300   -4.4370 C.2     1  UNL1        0.0140
     27  C         17.1670  -22.6500   -5.6570 C.2     1  UNL1       -0.0040
     28  C         18.5000  -22.1250   -5.9900 C.2     1  UNL1       -0.0240
     29  C         19.0000  -20.9770   -5.3510 C.2     1  UNL1        0.0120
     30  C         20.2540  -20.4610   -5.6870 C.2     1  UNL1        0.0010
     31  C         21.0280  -21.0870   -6.6620 C.2     1  UNL1        0.0000
     32  C         20.5540  -22.2350   -7.2920 C.2     1  UNL1        0.0010
     33  C         19.3040  -22.7560   -6.9510 C.2     1  UNL1        0.0120
@<TRIPOS>BOND
     1    15    16    2
     2    15    14    1
     3    16    17    1
     4    14    13    2
     5    17    18    2
     6    12     9    1
     7    13    18    1
     8    13    10    1
     9    18    19    1
    10     9    10   am
    11     9     7    1
    12     6     7   ar
    13     6     5   ar
    14    10    11    2
    15     7     8   ar
    16     5     4   ar
    17     8     4   ar
    18     4     1    1
    19     2     1    2
    20     1     3    2
    21     1    20    1
    22    21    20    1
    23    20    22    1
    24    32    33    1
    25    32    31    2
    26    33    28    2
    27    31    30    1
    28    22    23    2
    29    22    27    1
    30    23    24    1
    31    28    27    1
    32    28    29    1
    33    30    29    2
    34    27    26    2
    35    24    25    2
    36    26    25    1
