@<TRIPOS>MOLECULE
55088_out_ligand_01.pdbqt
 35 38 0 0 0
SMALL
GASTEIGER

@<TRIPOS>ATOM
      1  S         16.2110  -22.6120   -9.5830 S.O2    1  UNL1        0.2680
      2  O         16.3280  -24.0360   -9.8180 O.2     1  UNL1       -0.2040
      3  O         14.9690  -21.9210   -9.8600 O.2     1  UNL1       -0.2040
      4  C         17.4660  -21.8230  -10.5360 C.ar    1  UNL1        0.2330
      5  N         17.3580  -20.6500  -11.1260 N.ar    1  UNL1       -0.1270
      6  N         18.4530  -20.3940  -11.9350 N.ar    1  UNL1       -0.1220
      7  C         19.3070  -21.3880  -11.9220 C.ar    1  UNL1        0.1970
      8  S         18.9020  -22.6810  -10.8820 S.2     1  UNL1       -0.0150
      9  N         20.4770  -21.5650  -12.6070 N.am    1  UNL1       -0.3000
     10  C         21.6980  -21.5300  -11.9740 C.2     1  UNL1        0.2570
     11  O         21.9040  -21.3210  -10.7860 O.2     1  UNL1       -0.2670
     12  H         20.4120  -21.5940  -13.6120 H       1  UNL1        0.1710
     13  C         22.8700  -21.7170  -12.8760 C.2     1  UNL1        0.0320
     14  C         22.9460  -21.0970  -14.1280 C.2     1  UNL1        0.0170
     15  C         24.0680  -21.2950  -14.9390 C.2     1  UNL1        0.0070
     16  C         25.1180  -22.1160  -14.5100 C.2     1  UNL1       -0.0620
     17  C         26.3150  -22.3540  -15.3840 C.3     1  UNL1        0.0480
     18  C         25.0260  -22.7530  -13.2660 C.2     1  UNL1        0.0070
     19  C         23.9070  -22.5560  -12.4540 C.2     1  UNL1        0.0170
     20  N         16.5280  -22.3770   -7.9400 N.3     1  UNL1       -0.2000
     21  H         15.6710  -22.1130   -7.4570 H       1  UNL1        0.1410
     22  C         17.2540  -23.4810   -7.2610 C.3     1  UNL1        0.1380
     23  C         16.8140  -23.6180   -5.8020 C.2     1  UNL1       -0.0350
     24  C         17.6960  -23.8640   -4.7380 C.2     1  UNL1        0.0090
     25  C         17.2260  -23.9770   -3.4250 C.2     1  UNL1        0.0010
     26  C         15.8670  -23.8510   -3.1540 C.2     1  UNL1        0.0000
     27  C         14.9720  -23.6170   -4.1950 C.2     1  UNL1        0.0010
     28  C         15.4400  -23.5040   -5.5050 C.2     1  UNL1        0.0090
     29  C         18.7640  -23.3600   -7.5040 C.2     1  UNL1       -0.0290
     30  C         19.3850  -24.3840   -8.2510 C.2     1  UNL1        0.0100
     31  C         20.7410  -24.3310   -8.5710 C.2     1  UNL1        0.0010
     32  C         21.5130  -23.2610   -8.1410 C.2     1  UNL1        0.0010
     33  C         20.9270  -22.2450   -7.3890 C.2     1  UNL1        0.0070
     34  C         19.5610  -22.2800   -7.0510 C.2     1  UNL1       -0.0540
     35  C         19.0100  -21.1180   -6.2640 C.3     1  UNL1        0.0490
@<TRIPOS>BOND
     1    17    16    1
     2    15    16    2
     3    15    14    1
     4    16    18    1
     5    14    13    2
     6    12     9    1
     7    18    19    2
     8    13    19    1
     9    13    10    1
    10     9    10   am
    11     9     7    1
    12    10    11    2
    13     6     7   ar
    14     6     5   ar
    15     7     8   ar
    16     5     4   ar
    17     8     4   ar
    18     4     1    1
    19     3     1    2
    20     2     1    2
    21     1    20    1
    22    31    30    1
    23    31    32    2
    24    30    29    2
    25    32    33    1
    26    20    21    1
    27    20    22    1
    28    29    22    1
    29    29    34    1
    30    33    34    2
    31    22    23    1
    32    34    35    1
    33    23    28    2
    34    23    24    1
    35    28    27    1
    36    24    25    2
    37    27    26    2
    38    25    26    1
