@<TRIPOS>MOLECULE
55084_out_ligand_01.pdbqt
 37 40 0 0 0
SMALL
GASTEIGER

@<TRIPOS>ATOM
      1  N         16.3080  -21.8170   -7.5380 N.pl3   1  UNL1       -0.1790
      2  H         17.2590  -21.4090   -7.5320 H       1  UNL1        0.1460
      3  S         16.2490  -22.8480   -8.9060 S.O2    1  UNL1        0.2720
      4  O         14.8990  -22.8450   -9.4340 O.2     1  UNL1       -0.2030
      5  O         16.8810  -24.0910   -8.5050 O.2     1  UNL1       -0.2030
      6  C         17.2810  -22.1540  -10.1630 C.ar    1  UNL1        0.2330
      7  N         17.0940  -20.9950  -10.7640 N.ar    1  UNL1       -0.1270
      8  N         18.1230  -20.7130  -11.6470 N.ar    1  UNL1       -0.1220
      9  C         19.0240  -21.6660  -11.6640 C.ar    1  UNL1        0.1970
     10  S         18.7180  -22.9690  -10.6050 S.2     1  UNL1       -0.0150
     11  N         20.1840  -21.7850  -12.3800 N.am    1  UNL1       -0.3000
     12  C         21.3910  -21.3490  -11.8830 C.2     1  UNL1        0.2570
     13  O         21.5820  -20.8030  -10.8040 O.2     1  UNL1       -0.2670
     14  H         20.1030  -22.1350  -13.3230 H       1  UNL1        0.1710
     15  C         22.5500  -21.5470  -12.7970 C.2     1  UNL1        0.0320
     16  C         23.5320  -22.4780  -12.4330 C.2     1  UNL1        0.0170
     17  C         24.6360  -22.6900  -13.2580 C.2     1  UNL1        0.0010
     18  C         24.7590  -21.9810  -14.4530 C.2     1  UNL1        0.0000
     19  C         23.7760  -21.0660  -14.8290 C.2     1  UNL1        0.0010
     20  C         22.6690  -20.8480  -14.0060 C.2     1  UNL1        0.0170
     21  C         16.0400  -22.4750   -6.2800 C.2     1  UNL1        0.0380
     22  C         14.8310  -23.1610   -6.1360 C.2     1  UNL1        0.0250
     23  C         14.5600  -23.8650   -4.9630 C.2     1  UNL1        0.0020
     24  C         15.4910  -23.8850   -3.9260 C.2     1  UNL1        0.0010
     25  C         16.7030  -23.2050   -4.0600 C.2     1  UNL1        0.0190
     26  C         16.9930  -22.5110   -5.2440 C.2     1  UNL1        0.0540
     27  C         18.2720  -21.7640   -5.3950 C.2     1  UNL1        0.2530
     28  O         18.5890  -20.9480   -4.5360 O.2     1  UNL1       -0.2680
     29  N         19.0190  -22.0320   -6.5180 N.am    1  UNL1       -0.3530
     30  H         18.6670  -22.6490   -7.2340 H       1  UNL1        0.1630
     31  C         20.2970  -21.4010   -6.7630 C.3     1  UNL1        0.1610
     32  C         21.1560  -22.2720   -7.6430 C.2     1  UNL1       -0.0410
     33  C         20.6800  -23.4990   -8.1290 C.2     1  UNL1        0.0090
     34  C         21.4890  -24.3010   -8.9380 C.2     1  UNL1        0.0010
     35  C         22.7810  -23.8920   -9.2610 C.2     1  UNL1        0.0000
     36  C         23.2680  -22.6790   -8.7770 C.2     1  UNL1        0.0010
     37  C         22.4610  -21.8740   -7.9710 C.2     1  UNL1        0.0090
@<TRIPOS>BOND
     1    19    18    2
     2    19    20    1
     3    18    17    1
     4    20    15    2
     5    14    11    1
     6    17    16    2
     7    15    16    1
     8    15    12    1
     9    11    12   am
    10    11     9    1
    11    12    13    2
    12     9     8   ar
    13     9    10   ar
    14     8     7   ar
    15     7     6   ar
    16    10     6   ar
    17     6     3    1
    18     4     3    2
    19    35    34    2
    20    35    36    1
    21    34    33    1
    22     3     5    2
    23     3     1    1
    24    36    37    2
    25    33    32    2
    26    37    32    1
    27    32    31    1
    28     1     2    1
    29     1    21    1
    30    30    29    1
    31    31    29    1
    32    29    27   am
    33    21    22    2
    34    21    26    1
    35    22    23    1
    36    27    26    1
    37    27    28    2
    38    26    25    2
    39    23    24    2
    40    25    24    1
