@<TRIPOS>MOLECULE
55098_out_ligand_01.pdbqt
 34 36 0 0 0
SMALL
GASTEIGER

@<TRIPOS>ATOM
      1  C         17.6250  -23.6310   -8.4810 C.2     1  UNL1        0.0810
      2  C         19.0050  -23.8710   -8.3880 C.2     1  UNL1        0.0420
      3  C         19.8820  -23.3130   -9.3220 C.2     1  UNL1        0.0330
      4  C         19.3780  -22.5230  -10.3600 C.2     1  UNL1        0.0170
      5  C         18.0040  -22.2820  -10.4500 C.2     1  UNL1        0.0090
      6  C         17.1050  -22.8350   -9.5210 C.2     1  UNL1       -0.0390
      7  C         15.6410  -22.5260   -9.6750 C.3     1  UNL1        0.0500
      8  C         21.3330  -23.6160   -9.2030 C.2     1  UNL1        0.2510
      9  O         21.6980  -24.7290   -8.8460 O.2     1  UNL1       -0.2680
     10  N         22.2000  -22.5810   -9.4910 N.am    1  UNL1       -0.3550
     11  H         21.8280  -21.6400   -9.5160 H       1  UNL1        0.1620
     12  C         23.6300  -22.7180   -9.2650 C.3     1  UNL1        0.1490
     13  C         24.4220  -23.0820  -10.5250 C.3     1  UNL1        0.1950
     14  O         23.5970  -22.9840  -11.6870 O.2     1  UNL1       -0.3490
     15  C         24.0510  -22.2860  -12.7750 C.2     1  UNL1        0.0740
     16  C         25.3480  -22.3520  -13.2940 C.2     1  UNL1        0.0370
     17  C         25.7030  -21.5980  -14.4170 C.2     1  UNL1        0.0030
     18  C         24.7650  -20.7740  -15.0310 C.2     1  UNL1        0.0010
     19  C         23.4680  -20.7020  -14.5240 C.2     1  UNL1        0.0090
     20  C         23.1000  -21.4530  -13.3970 C.2     1  UNL1       -0.0290
     21  C         21.6940  -21.3640  -12.8690 C.3     1  UNL1        0.0510
     22  S         16.5710  -24.3670   -7.2330 S.O2    1  UNL1        0.2460
     23  O         17.4160  -25.1080   -6.3240 O.2     1  UNL1       -0.2060
     24  O         15.4600  -24.9970   -7.9140 O.2     1  UNL1       -0.2060
     25  N         15.9660  -22.9590   -6.4830 N.pl3   1  UNL1       -0.1810
     26  H         15.0270  -23.1570   -6.1390 H       1  UNL1        0.1460
     27  C         16.8160  -22.4120   -5.4600 C.2     1  UNL1        0.0290
     28  C         16.5880  -22.6780   -4.1010 C.2     1  UNL1       -0.0400
     29  C         17.4710  -22.1340   -3.1540 C.2     1  UNL1        0.0090
     30  C         15.4410  -23.5220   -3.6230 C.3     1  UNL1        0.0500
     31  C         18.5570  -21.3490   -3.5520 C.2     1  UNL1        0.0070
     32  C         18.7810  -21.0840   -4.9050 C.2     1  UNL1       -0.0600
     33  C         19.9630  -20.2750   -5.3490 C.3     1  UNL1        0.0480
     34  C         17.9090  -21.6310   -5.8530 C.2     1  UNL1        0.0310
@<TRIPOS>BOND
     1    18    19    2
     2    18    17    1
     3    19    20    1
     4    17    16    2
     5    20    21    1
     6    20    15    2
     7    16    15    1
     8    15    14    1
     9    14    13    1
    10    13    12    1
    11     5     4    2
    12     5     6    1
    13     4     3    1
    14     7     6    1
    15     6     1    2
    16    11    10    1
    17    10    12    1
    18    10     8   am
    19     3     8    1
    20     3     2    2
    21     8     9    2
    22     1     2    1
    23     1    22    1
    24    24    22    2
    25    22    25    1
    26    22    23    2
    27    25    26    1
    28    25    27    1
    29    34    27    2
    30    34    32    1
    31    27    28    1
    32    33    32    1
    33    32    31    2
    34    28    30    1
    35    28    29    2
    36    31    29    1
