@<TRIPOS>MOLECULE
55097_out_ligand_01.pdbqt
 36 40 0 0 0
SMALL
GASTEIGER

@<TRIPOS>ATOM
      1  C         22.9920  -22.3110  -11.4930 C.2     1  UNL1        0.0860
      2  C         22.4060  -22.6790  -10.2720 C.2     1  UNL1        0.0420
      3  C         21.0550  -22.4140  -10.0380 C.2     1  UNL1        0.0330
      4  C         20.2820  -21.7950  -11.0250 C.2     1  UNL1        0.0170
      5  C         20.8680  -21.4280  -12.2390 C.2     1  UNL1        0.0090
      6  C         22.2260  -21.6830  -12.4970 C.2     1  UNL1       -0.0390
      7  C         22.7890  -21.2520  -13.8240 C.3     1  UNL1        0.0500
      8  C         20.4530  -22.8330   -8.7440 C.2     1  UNL1        0.2560
      9  O         20.7610  -23.9310   -8.2990 O.2     1  UNL1       -0.2670
     10  N         19.6160  -21.8930   -8.1740 N.am    1  UNL1       -0.3220
     11  H         19.5850  -20.9900   -8.6230 H       1  UNL1        0.1690
     12  C         18.8640  -22.0100   -6.9790 C.2     1  UNL1        0.0460
     13  C         19.2430  -21.3640   -5.7830 C.2     1  UNL1        0.0310
     14  C         18.4950  -21.4960   -4.6020 C.2     1  UNL1        0.0100
     15  C         17.3580  -22.2800   -4.6180 C.2     1  UNL1       -0.0460
     16  C         16.9920  -22.9090   -5.7780 C.2     1  UNL1       -0.0110
     17  C         16.4040  -22.5750   -3.4980 C.2     1  UNL1        0.0440
     18  C         15.8420  -23.6320   -5.5710 C.2     1  UNL1       -0.0460
     19  C         17.6870  -22.8240   -6.9910 C.2     1  UNL1        0.0020
     20  C         15.2880  -24.3520   -6.6150 C.2     1  UNL1        0.0080
     21  C         15.3540  -23.5030   -4.1580 C.2     1  UNL1        0.0440
     22  C         15.9260  -24.3180   -7.8600 C.2     1  UNL1        0.0020
     23  C         17.1050  -23.5690   -8.0520 C.2     1  UNL1        0.0140
     24  S         24.7360  -22.6460  -11.6970 S.O2    1  UNL1        0.2630
     25  O         25.2610  -23.1790  -10.4580 O.2     1  UNL1       -0.2000
     26  O         25.3440  -21.4790  -12.3000 O.2     1  UNL1       -0.2000
     27  N         24.7530  -23.8560  -12.8800 N.pl3   1  UNL1       -0.2810
     28  H         23.8680  -24.3630  -12.8780 H       1  UNL1        0.1790
     29  C         25.3040  -23.5290  -14.1500 C.2     1  UNL1        0.0430
     30  C         26.6030  -23.0410  -14.2370 C.2     1  UNL1        0.0300
     31  C         27.1210  -22.6700  -15.4780 C.2     1  UNL1        0.0090
     32  C         26.3450  -22.7780  -16.6430 C.2     1  UNL1       -0.0560
     33  C         26.9340  -22.3550  -17.9610 C.3     1  UNL1        0.0490
     34  C         25.0250  -23.2660  -16.5510 C.2     1  UNL1       -0.0540
     35  C         24.5140  -23.6320  -15.2960 C.2     1  UNL1        0.0370
     36  C         24.1420  -23.3750  -17.7640 C.3     1  UNL1        0.0490
@<TRIPOS>BOND
     1    33    32    1
     2    36    34    1
     3    32    34    2
     4    32    31    1
     5    34    35    1
     6    31    30    2
     7    35    29    2
     8    30    29    1
     9    29    27    1
    10     7     6    1
    11    27    28    1
    12    27    24    1
    13     6     5    1
    14     6     1    2
    15    26    24    2
    16     5     4    2
    17    24     1    1
    18    24    25    2
    19     1     2    1
    20     4     3    1
    21     2     3    2
    22     3     8    1
    23     8     9    2
    24     8    10   am
    25    11    10    1
    26    10    12    1
    27    23    22    2
    28    23    19    1
    29    22    20    1
    30    19    12    2
    31    19    16    1
    32    12    13    1
    33    20    18    2
    34    13    14    2
    35    16    18    1
    36    16    15    2
    37    18    21    1
    38    15    14    1
    39    15    17    1
    40    21    17    2
