@<TRIPOS>MOLECULE
55090_out_ligand_01.pdbqt
 36 40 0 0 0
SMALL
GASTEIGER

@<TRIPOS>ATOM
      1  C         17.9760  -25.0200   -6.8630 C.3     1  UNL1        0.0500
      2  C         18.6060  -24.2600   -7.9970 C.2     1  UNL1       -0.0390
      3  C         19.9860  -24.4320   -8.2180 C.2     1  UNL1        0.0090
      4  C         20.6440  -23.7640   -9.2540 C.2     1  UNL1        0.0170
      5  C         19.9330  -22.8960  -10.0860 C.2     1  UNL1        0.0330
      6  C         18.5610  -22.7180   -9.8910 C.2     1  UNL1        0.0420
      7  C         17.8970  -23.3940   -8.8530 C.2     1  UNL1        0.0860
      8  C         20.5920  -22.1840  -11.2140 C.2     1  UNL1        0.2560
      9  O         19.8930  -21.4830  -11.9340 O.2     1  UNL1       -0.2670
     10  N         21.9570  -22.3830  -11.2970 N.am    1  UNL1       -0.3220
     11  H         22.3880  -22.8820  -10.5330 H       1  UNL1        0.1690
     12  C         22.8490  -21.8930  -12.2840 C.2     1  UNL1        0.0460
     13  C         22.3950  -21.2410  -13.4520 C.2     1  UNL1        0.0310
     14  C         23.2850  -20.7720  -14.4310 C.2     1  UNL1        0.0100
     15  C         24.6410  -20.9590  -14.2440 C.2     1  UNL1       -0.0460
     16  C         25.0800  -21.5940  -13.1120 C.2     1  UNL1       -0.0110
     17  C         25.7780  -20.5550  -15.1340 C.2     1  UNL1        0.0440
     18  C         26.4510  -21.6740  -13.1270 C.2     1  UNL1       -0.0460
     19  C         24.2540  -22.0860  -12.0940 C.2     1  UNL1        0.0020
     20  C         27.1150  -22.2810  -12.0760 C.2     1  UNL1        0.0080
     21  C         27.0280  -21.0470  -14.3640 C.2     1  UNL1        0.0440
     22  C         26.3580  -22.7960  -11.0190 C.2     1  UNL1        0.0020
     23  C         24.9500  -22.7040  -11.0210 C.2     1  UNL1        0.0140
     24  S         16.1460  -23.0630   -8.6970 S.O2    1  UNL1        0.2630
     25  O         15.6030  -22.6010   -9.9540 O.2     1  UNL1       -0.2000
     26  O         15.5610  -24.2130   -8.0350 O.2     1  UNL1       -0.2000
     27  N         16.1100  -21.8130   -7.5670 N.pl3   1  UNL1       -0.2800
     28  H         16.6220  -20.9910   -7.8800 H       1  UNL1        0.1790
     29  C         16.1420  -22.1380   -6.1820 C.2     1  UNL1        0.0490
     30  C         14.9720  -22.6630   -5.6250 C.2     1  UNL1        0.0310
     31  C         14.9400  -23.0360   -4.2850 C.2     1  UNL1        0.0030
     32  C         16.0810  -22.8930   -3.5010 C.2     1  UNL1        0.0070
     33  C         17.2680  -22.3720   -4.0450 C.2     1  UNL1       -0.0540
     34  C         18.4750  -22.2430   -3.1530 C.3     1  UNL1        0.0490
     35  C         17.3000  -21.9660   -5.4010 C.2     1  UNL1       -0.0290
     36  C         18.5720  -21.4150   -5.9900 C.3     1  UNL1        0.0510
@<TRIPOS>BOND
     1    17    21    2
     2    17    15    1
     3    14    15    2
     4    14    13    1
     5    21    18    1
     6    15    16    1
     7    13    12    2
     8    18    16    2
     9    18    20    1
    10    16    19    1
    11    12    19    1
    12    12    10    1
    13    19    23    2
    14    20    22    2
    15     9     8    2
    16    10     8   am
    17    10    11    1
    18     8     5    1
    19    23    22    1
    20     5     6    2
    21     5     4    1
    22    25    24    2
    23     6     7    1
    24     4     3    2
    25     7    24    1
    26     7     2    2
    27    24    26    2
    28    24    27    1
    29     3     2    1
    30     2     1    1
    31    28    27    1
    32    27    29    1
    33    29    30    2
    34    29    35    1
    35    36    35    1
    36    30    31    1
    37    35    33    2
    38    31    32    2
    39    33    32    1
    40    33    34    1
