@<TRIPOS>MOLECULE
55099_out_ligand_01.pdbqt
 37 41 0 0 0
SMALL
GASTEIGER

@<TRIPOS>ATOM
      1  C         24.4140  -22.8270  -13.8680 C.2     1  UNL1        0.0860
      2  C         23.8260  -23.1310  -12.6280 C.2     1  UNL1        0.0420
      3  C         22.7740  -22.3580  -12.1330 C.2     1  UNL1        0.0330
      4  C         22.3020  -21.2770  -12.8770 C.2     1  UNL1        0.0170
      5  C         22.8630  -20.9950  -14.1260 C.2     1  UNL1        0.0090
      6  C         23.9190  -21.7660  -14.6480 C.2     1  UNL1       -0.0390
      7  C         24.4520  -21.3940  -16.0040 C.3     1  UNL1        0.0500
      8  C         22.2330  -22.6730  -10.7820 C.2     1  UNL1        0.2560
      9  O         22.9360  -23.3240  -10.0220 O.2     1  UNL1       -0.2670
     10  N         20.9570  -22.2000  -10.5420 N.am    1  UNL1       -0.3230
     11  H         20.4580  -21.8070  -11.3320 H       1  UNL1        0.1690
     12  C         20.2310  -22.2580   -9.3320 C.2     1  UNL1        0.0370
     13  C         20.8220  -22.1360   -8.0690 C.2     1  UNL1        0.0300
     14  C         20.0540  -22.1740   -6.8920 C.2     1  UNL1        0.0170
     15  C         18.6600  -22.3360   -6.9920 C.ar    1  UNL1        0.0110
     16  C         18.1060  -22.4580   -8.2600 C.ar    1  UNL1        0.0890
     17  C         17.5710  -22.4120   -6.0780 C.ar    1  UNL1        0.0110
     18  C         18.8420  -22.4260   -9.4440 C.2     1  UNL1        0.0670
     19  O         16.7540  -22.6080   -8.1800 O.2     1  UNL1       -0.3090
     20  C         16.4310  -22.5810   -6.8570 C.ar    1  UNL1        0.0870
     21  C         15.1430  -22.7010   -6.3410 C.2     1  UNL1        0.0380
     22  C         15.0180  -22.6440   -4.9480 C.2     1  UNL1        0.0030
     23  C         16.1380  -22.4740   -4.1300 C.2     1  UNL1        0.0010
     24  C         17.4230  -22.3580   -4.6780 C.2     1  UNL1        0.0150
     25  S         25.7950  -23.8640  -14.3450 S.O2    1  UNL1        0.2630
     26  O         25.9610  -23.8470  -15.7820 O.2     1  UNL1       -0.2000
     27  O         25.6320  -25.1200  -13.6410 O.2     1  UNL1       -0.2000
     28  N         27.1210  -23.0990  -13.6310 N.pl3   1  UNL1       -0.2800
     29  H         27.7370  -23.7590  -13.1590 H       1  UNL1        0.1790
     30  C         27.0130  -21.7730  -13.1110 C.2     1  UNL1        0.0490
     31  C         26.8170  -21.5720  -11.7330 C.2     1  UNL1       -0.0350
     32  C         26.6740  -20.2610  -11.2540 C.2     1  UNL1        0.0090
     33  C         26.7540  -22.7130  -10.7510 C.3     1  UNL1        0.0500
     34  C         26.7510  -19.1690  -12.1210 C.2     1  UNL1        0.0070
     35  C         26.9950  -19.3640  -13.4810 C.2     1  UNL1       -0.0600
     36  C         27.0660  -18.1910  -14.4160 C.3     1  UNL1        0.0480
     37  C         27.1210  -20.6730  -13.9670 C.2     1  UNL1        0.0370
@<TRIPOS>BOND
     1     7     6    1
     2    26    25    2
     3     6     5    1
     4     6     1    2
     5    36    35    1
     6    25     1    1
     7    25    27    2
     8    25    28    1
     9     5     4    2
    10    37    35    1
    11    37    30    2
    12     1     2    1
    13    28    29    1
    14    28    30    1
    15    35    34    2
    16    30    31    1
    17     4     3    1
    18     2     3    2
    19     3     8    1
    20    34    32    1
    21    31    32    2
    22    31    33    1
    23    11    10    1
    24     8    10   am
    25     8     9    2
    26    10    12    1
    27    18    12    2
    28    18    16    1
    29    12    13    1
    30    16    19   ar
    31    16    15   ar
    32    19    20   ar
    33    13    14    2
    34    15    14    1
    35    15    17   ar
    36    20    21    1
    37    20    17   ar
    38    21    22    2
    39    17    24    1
    40    22    23    1
    41    24    23    2
