@<TRIPOS>MOLECULE
550_out_ligand_01.pdbqt
 32 34 0 0 0
SMALL
GASTEIGER

@<TRIPOS>ATOM
      1  C         18.3990  -23.2280   -8.6530 C.2     1  UNL1        0.0790
      2  C         18.5040  -22.4670   -9.8210 C.2     1  UNL1        0.0260
      3  C         19.7680  -22.1430  -10.3170 C.2     1  UNL1        0.0180
      4  C         20.9220  -22.5800   -9.6510 C.2     1  UNL1        0.0320
      5  C         20.8070  -23.3770   -8.5030 C.2     1  UNL1        0.0180
      6  C         19.5440  -23.7060   -8.0050 C.2     1  UNL1        0.0260
      7  C         22.2510  -22.2010  -10.2120 C.2     1  UNL1        0.2560
      8  O         22.9620  -21.4510   -9.5540 O.2     1  UNL1       -0.2670
      9  N         22.5650  -22.8070  -11.4170 N.am    1  UNL1       -0.3220
     10  H         21.9250  -23.5240  -11.7280 H       1  UNL1        0.1690
     11  C         23.7230  -22.6030  -12.2100 C.2     1  UNL1        0.0430
     12  C         24.9330  -23.2540  -11.9190 C.2     1  UNL1        0.0300
     13  C         26.0900  -23.0200  -12.6660 C.2     1  UNL1        0.0050
     14  C         26.0640  -22.1110  -13.7130 C.2     1  UNL1        0.0370
     15  C         24.8630  -21.4540  -14.0080 C.2     1  UNL1        0.1110
     16  C         23.6650  -21.6990  -13.2970 C.2     1  UNL1       -0.0020
     17  C         22.3780  -21.0120  -13.6820 C.3     1  UNL1        0.0530
     18  N         24.9100  -20.4740  -15.0840 N.pl3   1  UNL1       -0.1150
     19  O         25.3930  -19.3630  -14.8200 O.2     1  UNL1       -0.5320
     20  O         24.4760  -20.8280  -16.1880 O.2     1  UNL1       -0.5320
     21  S         16.7870  -23.6510   -8.0230 S.O2    1  UNL1        0.2630
     22  O         15.8690  -23.6380   -9.1410 O.2     1  UNL1       -0.2000
     23  O         16.9310  -24.8230   -7.1870 O.2     1  UNL1       -0.2000
     24  N         16.3800  -22.3170   -7.0780 N.pl3   1  UNL1       -0.2800
     25  H         16.2520  -21.4730   -7.6320 H       1  UNL1        0.1790
     26  C         16.8770  -22.1980   -5.7480 C.2     1  UNL1        0.0480
     27  C         18.1100  -21.5760   -5.5330 C.2     1  UNL1        0.0300
     28  C         18.6010  -21.4080   -4.2380 C.2     1  UNL1        0.0020
     29  C         17.8610  -21.8660   -3.1530 C.2     1  UNL1        0.0010
     30  C         16.6390  -22.5050   -3.3620 C.2     1  UNL1        0.0090
     31  C         16.1340  -22.6860   -4.6610 C.2     1  UNL1       -0.0350
     32  C         14.8010  -23.3630   -4.8330 C.3     1  UNL1        0.0500
@<TRIPOS>BOND
     1    20    18    2
     2    18    19    2
     3    18    15    1
     4    15    14    2
     5    15    16    1
     6    14    13    1
     7    17    16    1
     8    16    11    2
     9    13    12    2
    10    11    12    1
    11    11     9    1
    12    10     9    1
    13     9     7   am
    14     3     2    1
    15     3     4    2
    16     7     4    1
    17     7     8    2
    18     2     1    2
    19     4     5    1
    20    22    21    2
    21     1    21    1
    22     1     6    1
    23     5     6    2
    24    21    23    2
    25    21    24    1
    26    25    24    1
    27    24    26    1
    28    26    27    2
    29    26    31    1
    30    27    28    1
    31    32    31    1
    32    31    30    2
    33    28    29    2
    34    30    29    1
