@<TRIPOS>MOLECULE
55104_out_ligand_01.pdbqt
 36 40 0 0 0
SMALL
GASTEIGER

@<TRIPOS>ATOM
      1  C         17.3460  -23.5190   -8.6560 C.2     1  UNL1        0.0810
      2  C         18.7320  -23.7160   -8.7550 C.2     1  UNL1        0.0420
      3  C         19.4640  -23.0750   -9.7600 C.2     1  UNL1        0.0330
      4  C         18.8040  -22.2680  -10.6900 C.2     1  UNL1        0.0170
      5  C         17.4230  -22.0780  -10.5960 C.2     1  UNL1        0.0090
      6  C         16.6730  -22.6860   -9.5740 C.2     1  UNL1       -0.0390
      7  C         15.1870  -22.4560   -9.5490 C.3     1  UNL1        0.0500
      8  C         20.9350  -23.3090   -9.8310 C.2     1  UNL1        0.2560
      9  O         21.4100  -24.1970   -9.1360 O.2     1  UNL1       -0.2670
     10  N         21.6180  -22.4420  -10.6650 N.am    1  UNL1       -0.3220
     11  H         21.0900  -21.6760  -11.0530 H       1  UNL1        0.1690
     12  C         23.0010  -22.4460  -10.9770 C.2     1  UNL1        0.0460
     13  C         23.9740  -22.9380  -10.0800 C.2     1  UNL1        0.0310
     14  C         25.3410  -22.9480  -10.4030 C.2     1  UNL1        0.0100
     15  C         25.7380  -22.4670  -11.6340 C.2     1  UNL1       -0.0460
     16  C         24.7940  -21.9920  -12.5060 C.2     1  UNL1       -0.0110
     17  C         27.1210  -22.3740  -12.2060 C.2     1  UNL1        0.0440
     18  C         25.4010  -21.5670  -13.6620 C.2     1  UNL1       -0.0460
     19  C         23.4160  -21.9500  -12.2540 C.2     1  UNL1        0.0020
     20  C         24.6330  -21.0470  -14.6880 C.2     1  UNL1        0.0080
     21  C         26.8900  -21.7510  -13.6050 C.2     1  UNL1        0.0440
     22  C         23.2470  -20.9700  -14.5110 C.2     1  UNL1        0.0020
     23  C         22.6430  -21.4120  -13.3170 C.2     1  UNL1        0.0140
     24  S         16.4750  -24.3770   -7.3470 S.O2    1  UNL1        0.2460
     25  O         15.3960  -25.1240   -7.9540 O.2     1  UNL1       -0.2060
     26  O         17.4620  -25.0160   -6.5040 O.2     1  UNL1       -0.2060
     27  N         15.8700  -23.0480   -6.4600 N.pl3   1  UNL1       -0.1810
     28  H         15.6100  -22.3240   -7.1300 H       1  UNL1        0.1460
     29  C         16.7680  -22.5410   -5.4560 C.2     1  UNL1        0.0290
     30  C         16.5690  -22.8110   -4.0910 C.2     1  UNL1       -0.0400
     31  C         17.4670  -22.2620   -3.1620 C.2     1  UNL1        0.0090
     32  C         15.4340  -23.6570   -3.5900 C.3     1  UNL1        0.0500
     33  C         18.5360  -21.4650   -3.5790 C.2     1  UNL1        0.0070
     34  C         18.7350  -21.2030   -4.9360 C.2     1  UNL1       -0.0600
     35  C         19.8550  -20.3100   -5.3840 C.3     1  UNL1        0.0480
     36  C         17.8370  -21.7360   -5.8670 C.2     1  UNL1        0.0310
@<TRIPOS>BOND
     1    20    22    1
     2    20    18    2
     3    22    23    2
     4    18    21    1
     5    18    16    1
     6    21    17    2
     7    23    19    1
     8    16    19    1
     9    16    15    2
    10    19    12    2
    11    17    15    1
    12    15    14    1
    13    11    10    1
    14    12    10    1
    15    12    13    1
    16     4     5    2
    17     4     3    1
    18    10     8   am
    19     5     6    1
    20    14    13    2
    21     8     3    1
    22     8     9    2
    23     3     2    2
    24     6     7    1
    25     6     1    2
    26     2     1    1
    27     1    24    1
    28    25    24    2
    29    24    26    2
    30    24    27    1
    31    28    27    1
    32    27    29    1
    33    36    29    2
    34    36    34    1
    35    29    30    1
    36    35    34    1
    37    34    33    2
    38    30    32    1
    39    30    31    2
    40    33    31    1
