@<TRIPOS>MOLECULE
55109_out_ligand_01.pdbqt
 36 40 0 0 0
SMALL
GASTEIGER

@<TRIPOS>ATOM
      1  C         22.6480  -22.2580  -11.4870 C.2     1  UNL1        0.0860
      2  C         21.9640  -22.8250  -10.3990 C.2     1  UNL1        0.0420
      3  C         20.5780  -22.6890  -10.2970 C.2     1  UNL1        0.0330
      4  C         19.8710  -21.9810  -11.2730 C.2     1  UNL1        0.0170
      5  C         20.5510  -21.4180  -12.3560 C.2     1  UNL1        0.0090
      6  C         21.9470  -21.5400  -12.4790 C.2     1  UNL1       -0.0390
      7  C         22.6110  -20.9100  -13.6720 C.3     1  UNL1        0.0500
      8  C         19.8830  -23.2710   -9.1200 C.2     1  UNL1        0.2560
      9  O         20.4390  -24.1810   -8.5190 O.2     1  UNL1       -0.2670
     10  N         18.6460  -22.7130   -8.8580 N.am    1  UNL1       -0.3220
     11  H         18.2950  -22.0600   -9.5430 H       1  UNL1        0.1690
     12  C         17.7660  -23.0140   -7.7890 C.2     1  UNL1        0.0460
     13  C         16.6920  -23.9200   -7.9310 C.2     1  UNL1        0.0310
     14  C         15.8320  -24.2210   -6.8620 C.2     1  UNL1        0.0100
     15  C         16.0480  -23.6100   -5.6420 C.2     1  UNL1       -0.0460
     16  C         17.0900  -22.7310   -5.5060 C.2     1  UNL1       -0.0110
     17  C         15.2790  -23.7660   -4.3640 C.2     1  UNL1        0.0440
     18  C         17.1210  -22.2430   -4.2220 C.2     1  UNL1       -0.0460
     19  C         17.9860  -22.3830   -6.5240 C.2     1  UNL1        0.0020
     20  C         18.0950  -21.3320   -3.8580 C.2     1  UNL1        0.0080
     21  C         16.0140  -22.8170   -3.3850 C.2     1  UNL1        0.0440
     22  C         19.0280  -20.9330   -4.8210 C.2     1  UNL1        0.0020
     23  C         18.9800  -21.4460   -6.1350 C.2     1  UNL1        0.0140
     24  S         24.4150  -22.5070  -11.5620 S.O2    1  UNL1        0.2630
     25  O         25.0540  -21.2460  -11.8670 O.2     1  UNL1       -0.2000
     26  O         24.8100  -23.2530  -10.3860 O.2     1  UNL1       -0.2000
     27  N         24.5920  -23.5600  -12.8760 N.pl3   1  UNL1       -0.2810
     28  H         25.0650  -24.4130  -12.5820 H       1  UNL1        0.1790
     29  C         24.9920  -22.9970  -14.1200 C.2     1  UNL1        0.0430
     30  C         24.4690  -23.4990  -15.3100 C.2     1  UNL1        0.0370
     31  C         24.8160  -22.9170  -16.5340 C.2     1  UNL1       -0.0590
     32  C         25.6730  -21.8080  -16.5440 C.2     1  UNL1        0.0130
     33  C         24.2190  -23.4270  -17.8120 C.3     1  UNL1        0.0480
     34  C         26.1870  -21.2850  -15.3490 C.2     1  UNL1       -0.0590
     35  C         27.1210  -20.1100  -15.3730 C.3     1  UNL1        0.0480
     36  C         25.8470  -21.8950  -14.1350 C.2     1  UNL1        0.0370
@<TRIPOS>BOND
     1    33    31    1
     2    32    31    2
     3    32    34    1
     4    31    30    1
     5    35    34    1
     6    34    36    2
     7    30    29    2
     8    36    29    1
     9    29    27    1
    10     7     6    1
    11    27    28    1
    12    27    24    1
    13     6     5    1
    14     6     1    2
    15     5     4    2
    16    25    24    2
    17    24     1    1
    18    24    26    2
    19     1     2    1
    20     4     3    1
    21     2     3    2
    22     3     8    1
    23    11    10    1
    24     8    10   am
    25     8     9    2
    26    10    12    1
    27    13    12    2
    28    13    14    1
    29    12    19    1
    30    14    15    2
    31    19    23    1
    32    19    16    2
    33    23    22    2
    34    15    16    1
    35    15    17    1
    36    16    18    1
    37    22    20    1
    38    17    21    2
    39    18    20    2
    40    18    21    1
