@<TRIPOS>MOLECULE
55105_out_ligand_01.pdbqt
 31 33 0 0 0
SMALL
GASTEIGER

@<TRIPOS>ATOM
      1  C         17.5560  -23.5040   -8.5530 C.2     1  UNL1        0.0810
      2  C         18.9540  -23.6050   -8.4800 C.2     1  UNL1        0.0420
      3  C         19.7580  -23.0090   -9.4570 C.2     1  UNL1        0.0330
      4  C         19.1630  -22.3010  -10.5040 C.2     1  UNL1        0.0170
      5  C         17.7700  -22.2040  -10.5800 C.2     1  UNL1        0.0090
      6  C         16.9450  -22.8000   -9.6090 C.2     1  UNL1       -0.0390
      7  C         15.4570  -22.6640   -9.7620 C.3     1  UNL1        0.0500
      8  S         16.6080  -24.3250   -7.2720 S.O2    1  UNL1        0.2460
      9  O         15.5690  -25.1050   -7.9040 O.2     1  UNL1       -0.2060
     10  O         17.5550  -24.9350   -6.3610 O.2     1  UNL1       -0.2060
     11  N         15.9340  -22.9750   -6.4670 N.pl3   1  UNL1       -0.1810
     12  H         15.7190  -22.2700   -7.1740 H       1  UNL1        0.1460
     13  C         16.7900  -22.4180   -5.4520 C.2     1  UNL1        0.0290
     14  C         16.5870  -22.7200   -4.0980 C.2     1  UNL1       -0.0400
     15  C         17.4850  -22.2020   -3.1530 C.2     1  UNL1        0.0090
     16  C         15.4520  -23.5860   -3.6370 C.3     1  UNL1        0.0500
     17  C         18.5520  -21.3900   -3.5460 C.2     1  UNL1        0.0070
     18  C         18.7430  -21.0770   -4.8930 C.2     1  UNL1       -0.0600
     19  C         19.9130  -20.2460   -5.3280 C.3     1  UNL1        0.0480
     20  C         17.8660  -21.6100   -5.8440 C.2     1  UNL1        0.0310
     21  C         21.2340  -23.1250   -9.3230 C.2     1  UNL1        0.2510
     22  O         21.7300  -24.2030   -9.0180 O.2     1  UNL1       -0.2680
     23  N         21.9610  -21.9840   -9.5860 N.am    1  UNL1       -0.3560
     24  H         21.4960  -21.1700   -9.9600 H       1  UNL1        0.1620
     25  C         23.4130  -21.9740   -9.5630 C.3     1  UNL1        0.1270
     26  C         24.0160  -21.8090  -10.9710 C.3     1  UNL1        0.0030
     27  C         25.4900  -21.3580  -10.8870 C.3     1  UNL1        0.0060
     28  C         26.4620  -22.5200  -11.0550 C.3     1  UNL1        0.0000
     29  C         26.2950  -23.2070  -12.4120 C.3     1  UNL1        0.0000
     30  C         24.8630  -23.1540  -12.9470 C.3     1  UNL1        0.0000
     31  C         23.8440  -23.0880  -11.8160 C.3     1  UNL1        0.0060
@<TRIPOS>BOND
     1    30    29    1
     2    30    31    1
     3    29    28    1
     4    31    26    1
     5    28    27    1
     6    26    27    1
     7    26    25    1
     8     5     4    2
     9     5     6    1
    10     4     3    1
    11    24    23    1
    12     7     6    1
    13     6     1    2
    14    23    25    1
    15    23    21   am
    16     3    21    1
    17     3     2    2
    18    21    22    2
    19     1     2    1
    20     1     8    1
    21     9     8    2
    22     8    11    1
    23     8    10    2
    24    12    11    1
    25    11    13    1
    26    20    13    2
    27    20    18    1
    28    13    14    1
    29    19    18    1
    30    18    17    2
    31    14    16    1
    32    14    15    2
    33    17    15    1
