@<TRIPOS>MOLECULE
55107_out_ligand_01.pdbqt
 37 41 0 0 0
SMALL
GASTEIGER

@<TRIPOS>ATOM
      1  C         24.4900  -22.4500  -13.6960 C.2     1  UNL1        0.0860
      2  C         23.5800  -22.0940  -12.6850 C.2     1  UNL1        0.0420
      3  C         23.7550  -22.5580  -11.3800 C.2     1  UNL1        0.0330
      4  C         24.8390  -23.3860  -11.0800 C.2     1  UNL1        0.0170
      5  C         25.7290  -23.7580  -12.0890 C.2     1  UNL1        0.0090
      6  C         25.5730  -23.3020  -13.4130 C.2     1  UNL1       -0.0390
      7  C         26.5810  -23.7470  -14.4330 C.3     1  UNL1        0.0500
      8  C         22.8030  -22.1010  -10.3330 C.2     1  UNL1        0.2560
      9  O         22.8900  -20.9390   -9.9550 O.2     1  UNL1       -0.2670
     10  N         21.8920  -23.0540   -9.9200 N.am    1  UNL1       -0.3230
     11  H         21.8780  -23.9270  -10.4340 H       1  UNL1        0.1690
     12  C         20.9020  -22.9200   -8.9220 C.2     1  UNL1        0.0370
     13  C         21.0950  -22.2100   -7.7310 C.2     1  UNL1        0.0300
     14  C         20.0810  -22.1080   -6.7610 C.2     1  UNL1        0.0170
     15  C         18.8480  -22.7390   -6.9970 C.ar    1  UNL1        0.0110
     16  C         18.6890  -23.4390   -8.1870 C.ar    1  UNL1        0.0890
     17  C         17.6150  -22.8700   -6.2950 C.ar    1  UNL1        0.0110
     18  C         19.6760  -23.5570   -9.1650 C.2     1  UNL1        0.0670
     19  O         17.4440  -23.9880   -8.2570 O.2     1  UNL1       -0.3090
     20  C         16.7940  -23.6420   -7.1110 C.ar    1  UNL1        0.0870
     21  C         15.4880  -24.0040   -6.7860 C.2     1  UNL1        0.0380
     22  C         14.9990  -23.5480   -5.5570 C.2     1  UNL1        0.0030
     23  C         15.7920  -22.7720   -4.7080 C.2     1  UNL1        0.0010
     24  C         17.1040  -22.4230   -5.0630 C.2     1  UNL1        0.0150
     25  S         24.1650  -21.7380  -15.3090 S.O2    1  UNL1        0.2630
     26  O         23.3500  -20.5630  -15.0850 O.2     1  UNL1       -0.2000
     27  O         23.7390  -22.7660  -16.2330 O.2     1  UNL1       -0.2000
     28  N         25.6880  -21.1740  -15.7880 N.pl3   1  UNL1       -0.2810
     29  H         25.8400  -21.2950  -16.7880 H       1  UNL1        0.1790
     30  C         26.2110  -20.0000  -15.1750 C.2     1  UNL1        0.0430
     31  C         26.4420  -18.8710  -15.9650 C.2     1  UNL1        0.0370
     32  C         26.9060  -17.6860  -15.3830 C.2     1  UNL1       -0.0590
     33  C         27.1210  -17.6430  -13.9990 C.2     1  UNL1        0.0130
     34  C         27.1060  -16.4560  -16.2190 C.3     1  UNL1        0.0480
     35  C         26.9120  -18.7770  -13.2040 C.2     1  UNL1       -0.0590
     36  C         27.1210  -18.7160  -11.7190 C.3     1  UNL1        0.0480
     37  C         26.4460  -19.9540  -13.8020 C.2     1  UNL1        0.0370
@<TRIPOS>BOND
     1    29    28    1
     2    27    25    2
     3    34    32    1
     4    31    32    1
     5    31    30    2
     6    28    25    1
     7    28    30    1
     8    32    33    2
     9    25    26    2
    10    25     1    1
    11    30    37    1
    12     7     6    1
    13    33    35    1
    14    37    35    2
    15     1     6    2
    16     1     2    1
    17     6     5    1
    18    35    36    1
    19     2     3    2
    20     5     4    2
    21     3     4    1
    22     3     8    1
    23    11    10    1
    24     8     9    2
    25     8    10   am
    26    10    12    1
    27    18    12    2
    28    18    16    1
    29    12    13    1
    30    19    16   ar
    31    19    20   ar
    32    16    15   ar
    33    13    14    2
    34    20    21    1
    35    20    17   ar
    36    15    14    1
    37    15    17   ar
    38    21    22    2
    39    17    24    1
    40    22    23    1
    41    24    23    2
