@<TRIPOS>MOLECULE
55101_out_ligand_01.pdbqt
 37 40 0 0 0
SMALL
GASTEIGER

@<TRIPOS>ATOM
      1  C         17.4040  -22.9860   -9.1370 C.2     1  UNL1        0.0860
      2  C         18.7820  -22.9070   -9.4040 C.2     1  UNL1        0.0420
      3  C         19.2550  -22.1160  -10.4540 C.2     1  UNL1        0.0330
      4  C         18.3510  -21.3880  -11.2320 C.2     1  UNL1        0.0170
      5  C         16.9810  -21.4740  -10.9720 C.2     1  UNL1        0.0090
      6  C         16.4820  -22.2720   -9.9270 C.2     1  UNL1       -0.0390
      7  C         14.9950  -22.3020   -9.7120 C.3     1  UNL1        0.0500
      8  C         20.7250  -22.0360  -10.6800 C.2     1  UNL1        0.2560
      9  O         21.4570  -22.0330   -9.6980 O.2     1  UNL1       -0.2670
     10  N         21.1060  -21.9970  -12.0090 N.am    1  UNL1       -0.3230
     11  H         20.3840  -22.1420  -12.7010 H       1  UNL1        0.1690
     12  C         22.4150  -21.8590  -12.5190 C.2     1  UNL1        0.0350
     13  C         22.5680  -21.1140  -13.6940 C.2     1  UNL1        0.0300
     14  C         23.8330  -20.9170  -14.2580 C.2     1  UNL1        0.0100
     15  C         24.9710  -21.4610  -13.6530 C.2     1  UNL1       -0.0540
     16  C         24.8160  -22.2040  -12.4760 C.2     1  UNL1        0.0100
     17  C         23.5490  -22.4000  -11.9150 C.2     1  UNL1        0.0300
     18  C         26.3420  -21.2400  -14.2490 C.3     1  UNL1        0.0770
     19  C         26.4320  -20.0090  -15.1190 C.2     1  UNL1       -0.0510
     20  C         26.3740  -20.1130  -16.5130 C.2     1  UNL1        0.0260
     21  C         26.4690  -18.9560  -17.2710 C.2     1  UNL1        0.1160
     22  N         26.6130  -17.7220  -16.7440 N.2     1  UNL1       -0.2730
     23  C         26.6710  -17.6420  -15.3980 C.2     1  UNL1        0.1160
     24  C         26.5870  -18.7400  -14.5550 C.2     1  UNL1        0.0260
     25  S         16.9340  -24.0340   -7.7660 S.O2    1  UNL1        0.2630
     26  O         15.9380  -24.9970   -8.1790 O.2     1  UNL1       -0.2000
     27  O         18.1650  -24.4850   -7.1470 O.2     1  UNL1       -0.2000
     28  N         16.2460  -22.9360   -6.6830 N.pl3   1  UNL1       -0.2800
     29  H         15.6290  -22.2800   -7.1570 H       1  UNL1        0.1790
     30  C         17.0450  -22.4470   -5.6110 C.2     1  UNL1        0.0490
     31  C         16.7570  -22.7760   -4.2790 C.2     1  UNL1       -0.0350
     32  C         17.5350  -22.1970   -3.2660 C.2     1  UNL1        0.0090
     33  C         15.6170  -23.6790   -3.9020 C.3     1  UNL1        0.0500
     34  C         18.5870  -21.3320   -3.5730 C.2     1  UNL1        0.0070
     35  C         18.8900  -21.0290   -4.9030 C.2     1  UNL1       -0.0600
     36  C         19.9970  -20.0760   -5.2380 C.3     1  UNL1        0.0480
     37  C         18.1010  -21.5830   -5.9170 C.2     1  UNL1        0.0370
@<TRIPOS>BOND
     1    21    22    2
     2    21    20    1
     3    22    23    1
     4    20    19    2
     5    23    24    2
     6    19    24    1
     7    19    18    1
     8    14    13    1
     9    14    15    2
    10    18    15    1
    11    13    12    2
    12    15    16    1
    13    11    10    1
    14    12    10    1
    15    12    17    1
    16    16    17    2
    17    10     8   am
    18     4     5    2
    19     4     3    1
    20     5     6    1
    21     8     3    1
    22     8     9    2
    23     3     2    2
    24     6     7    1
    25     6     1    2
    26     2     1    1
    27     1    25    1
    28    26    25    2
    29    25    27    2
    30    25    28    1
    31    29    28    1
    32    28    30    1
    33    37    30    2
    34    37    35    1
    35    30    31    1
    36    36    35    1
    37    35    34    2
    38    31    33    1
    39    31    32    2
    40    34    32    1
