@<TRIPOS>MOLECULE
55119_out_ligand_01.pdbqt
 35 39 0 0 0
SMALL
GASTEIGER

@<TRIPOS>ATOM
      1  C         24.4100  -22.3390  -13.5670 C.2     1  UNL1        0.0250
      2  C         24.1990  -23.0260  -12.3680 C.2     1  UNL1        0.0250
      3  C         23.0320  -22.8000  -11.6330 C.2     1  UNL1        0.0190
      4  C         22.0720  -21.8930  -12.1000 C.2     1  UNL1        0.0320
      5  C         22.2960  -21.1900  -13.2910 C.2     1  UNL1        0.0190
      6  C         23.4670  -21.4140  -14.0210 C.2     1  UNL1        0.0250
      7  C         20.8470  -21.6700  -11.2830 C.2     1  UNL1        0.2560
      8  O         20.0650  -20.7990  -11.6430 O.2     1  UNL1       -0.2670
      9  N         20.7400  -22.4780  -10.1660 N.am    1  UNL1       -0.3230
     10  H         21.5420  -23.0530   -9.9410 H       1  UNL1        0.1690
     11  C         19.6680  -22.5340   -9.2480 C.2     1  UNL1        0.0370
     12  C         18.4040  -22.8420   -9.7750 C.2     1  UNL1        0.0300
     13  C         17.2600  -22.9140   -8.9620 C.2     1  UNL1        0.0170
     14  C         17.3970  -22.6680   -7.5860 C.ar    1  UNL1        0.0110
     15  C         18.6600  -22.3660   -7.0940 C.ar    1  UNL1        0.0890
     16  C         16.5190  -22.6420   -6.4620 C.ar    1  UNL1        0.0110
     17  C         19.8140  -22.2870   -7.8780 C.2     1  UNL1        0.0670
     18  O         18.6110  -22.1590   -5.7490 O.2     1  UNL1       -0.3090
     19  C         17.3160  -22.3260   -5.3660 C.ar    1  UNL1        0.0870
     20  C         16.8400  -22.2030   -4.0620 C.2     1  UNL1        0.0380
     21  C         15.4710  -22.4140   -3.8750 C.2     1  UNL1        0.0030
     22  C         14.6340  -22.7320   -4.9490 C.2     1  UNL1        0.0010
     23  C         15.1430  -22.8500   -6.2510 C.2     1  UNL1        0.0150
     24  N         25.6110  -22.5040  -14.3450 N.pl3   1  UNL1       -0.1760
     25  C         26.4940  -23.5960  -13.8680 C.3     1  UNL1        0.1360
     26  S         25.3300  -22.4860  -16.0420 S.O2    1  UNL1        0.2470
     27  O         26.2910  -23.3760  -16.6650 O.2     1  UNL1       -0.2050
     28  O         23.9090  -22.6260  -16.2890 O.2     1  UNL1       -0.2050
     29  C         25.7630  -20.8160  -16.4730 C.2     1  UNL1        0.0750
     30  C         26.2510  -19.9420  -15.4990 C.2     1  UNL1        0.0250
     31  C         26.5840  -18.6350  -15.8590 C.2     1  UNL1        0.0080
     32  C         26.4360  -18.2010  -17.1850 C.2     1  UNL1       -0.0620
     33  C         26.8160  -16.7980  -17.5580 C.3     1  UNL1        0.0480
     34  C         25.9620  -19.0970  -18.1520 C.2     1  UNL1        0.0080
     35  C         25.6250  -20.4040  -17.8000 C.2     1  UNL1        0.0250
@<TRIPOS>BOND
     1    34    35    1
     2    34    32    2
     3    35    29    2
     4    33    32    1
     5    32    31    1
     6    27    26    2
     7    29    26    1
     8    29    30    1
     9    28    26    2
    10    26    24    1
    11    31    30    2
    12    24    25    1
    13    24     1    1
    14     6     1    2
    15     6     5    1
    16     1     2    1
    17     5     4    2
    18     2     3    2
    19     4     3    1
    20     4     7    1
    21     8     7    2
    22     7     9   am
    23     9    10    1
    24     9    11    1
    25    12    11    2
    26    12    13    1
    27    11    17    1
    28    13    14    2
    29    17    15    2
    30    14    15   ar
    31    14    16   ar
    32    15    18   ar
    33    16    23    2
    34    16    19   ar
    35    23    22    1
    36    18    19   ar
    37    19    20    2
    38    22    21    2
    39    20    21    1
