@<TRIPOS>MOLECULE
55112_out_ligand_01.pdbqt
 33 35 0 0 0
SMALL
GASTEIGER

@<TRIPOS>ATOM
      1  C         17.6480  -23.5980   -8.5650 C.2     1  UNL1        0.0810
      2  C         19.0260  -23.8610   -8.5280 C.2     1  UNL1        0.0420
      3  C         19.8720  -23.3160   -9.4980 C.2     1  UNL1        0.0330
      4  C         19.3420  -22.5040  -10.5030 C.2     1  UNL1        0.0170
      5  C         17.9700  -22.2470  -10.5420 C.2     1  UNL1        0.0090
      6  C         17.1020  -22.7790   -9.5730 C.2     1  UNL1       -0.0390
      7  C         15.6380  -22.4470   -9.6680 C.3     1  UNL1        0.0500
      8  S         16.6330  -24.3480   -7.2920 S.O2    1  UNL1        0.2460
      9  O         17.5220  -25.0070   -6.3560 O.2     1  UNL1       -0.2060
     10  O         15.5590  -25.0660   -7.9390 O.2     1  UNL1       -0.2060
     11  N         16.0460  -22.9490   -6.5130 N.pl3   1  UNL1       -0.1810
     12  H         15.8690  -22.2480   -7.2340 H       1  UNL1        0.1460
     13  C         16.9070  -22.4350   -5.4810 C.2     1  UNL1        0.0290
     14  C         16.6730  -22.6910   -4.1200 C.2     1  UNL1       -0.0400
     15  C         17.5370  -22.1170   -3.1740 C.2     1  UNL1        0.0090
     16  C         15.5180  -23.5230   -3.6300 C.3     1  UNL1        0.0500
     17  C         18.6120  -21.3150   -3.5700 C.2     1  UNL1        0.0070
     18  C         18.8340  -21.0530   -4.9230 C.2     1  UNL1       -0.0600
     19  C         20.0040  -20.2170   -5.3540 C.3     1  UNL1        0.0480
     20  C         17.9780  -21.6230   -5.8720 C.2     1  UNL1        0.0310
     21  C         21.3310  -23.5780   -9.3940 C.2     1  UNL1        0.2510
     22  O         21.7300  -24.6150   -8.8780 O.2     1  UNL1       -0.2680
     23  N         22.1650  -22.6150   -9.9210 N.am    1  UNL1       -0.3570
     24  H         21.7780  -21.8760  -10.4920 H       1  UNL1        0.1620
     25  C         23.6080  -22.7770   -9.8980 C.3     1  UNL1        0.1270
     26  C         24.3290  -21.7350  -10.7590 C.3     1  UNL1        0.0580
     27  C         24.5680  -22.2410  -12.1610 C.2     1  UNL1       -0.0570
     28  C         24.1410  -21.4840  -13.2670 C.2     1  UNL1        0.0100
     29  C         24.3380  -21.9580  -14.5650 C.2     1  UNL1        0.0430
     30  C         24.9610  -23.1860  -14.7590 C.2     1  UNL1        0.1160
     31  F         25.1460  -23.6420  -16.0040 F       1  UNL1       -0.2060
     32  C         25.3920  -23.9490  -13.6780 C.2     1  UNL1        0.0430
     33  C         25.1940  -23.4790  -12.3770 C.2     1  UNL1        0.0100
@<TRIPOS>BOND
     1    31    30    1
     2    30    29    2
     3    30    32    1
     4    29    28    1
     5    32    33    2
     6    28    27    2
     7    33    27    1
     8    27    26    1
     9    26    25    1
    10     5     4    2
    11     5     6    1
    12     4     3    1
    13    24    23    1
    14    23    25    1
    15    23    21   am
    16     7     6    1
    17     6     1    2
    18     3    21    1
    19     3     2    2
    20    21    22    2
    21     1     2    1
    22     1     8    1
    23    10     8    2
    24     8    11    1
    25     8     9    2
    26    12    11    1
    27    11    13    1
    28    20    13    2
    29    20    18    1
    30    13    14    1
    31    19    18    1
    32    18    17    2
    33    14    16    1
    34    14    15    2
    35    17    15    1
