@<TRIPOS>MOLECULE
55128_out_ligand_01.pdbqt
 34 38 0 0 0
SMALL
GASTEIGER

@<TRIPOS>ATOM
      1  C         22.9090  -20.9830  -13.6610 C.3     1  UNL1        0.0500
      2  C         22.1650  -21.6020  -12.5100 C.2     1  UNL1       -0.0390
      3  C         20.7680  -21.4460  -12.4650 C.2     1  UNL1        0.0090
      4  C         20.0100  -22.0040  -11.4320 C.2     1  UNL1        0.0170
      5  C         20.6370  -22.7480  -10.4290 C.2     1  UNL1        0.0330
      6  C         22.0240  -22.9150  -10.4530 C.2     1  UNL1        0.0420
      7  C         22.7870  -22.3460  -11.4860 C.2     1  UNL1        0.0860
      8  C         19.8640  -23.3460   -9.3070 C.2     1  UNL1        0.2560
      9  O         20.2770  -24.3880   -8.8160 O.2     1  UNL1       -0.2670
     10  N         18.7210  -22.6480   -8.9630 N.am    1  UNL1       -0.3220
     11  H         18.4620  -21.8840   -9.5700 H       1  UNL1        0.1690
     12  C         17.8120  -22.9300   -7.9140 C.2     1  UNL1        0.0460
     13  C         16.7030  -23.7870   -8.0880 C.2     1  UNL1        0.0310
     14  C         15.8140  -24.0710   -7.0380 C.2     1  UNL1        0.0100
     15  C         16.0380  -23.4950   -5.8030 C.2     1  UNL1       -0.0460
     16  C         17.1160  -22.6670   -5.6330 C.2     1  UNL1       -0.0110
     17  C         15.2430  -23.6400   -4.5400 C.2     1  UNL1        0.0440
     18  C         17.1500  -22.2080   -4.3390 C.2     1  UNL1       -0.0460
     19  C         18.0410  -22.3380   -6.6320 C.2     1  UNL1        0.0020
     20  C         18.1600  -21.3500   -3.9420 C.2     1  UNL1        0.0080
     21  C         16.0100  -22.7530   -3.5300 C.2     1  UNL1        0.0440
     22  C         19.1240  -20.9730   -4.8840 C.2     1  UNL1        0.0020
     23  C         19.0710  -21.4550   -6.2090 C.2     1  UNL1        0.0140
     24  S         24.5550  -22.6310  -11.4490 S.O2    1  UNL1        0.2630
     25  O         24.8780  -23.2920  -10.2020 O.2     1  UNL1       -0.2000
     26  O         25.2200  -21.3980  -11.8140 O.2     1  UNL1       -0.2000
     27  N         24.7920  -23.7700  -12.6710 N.pl3   1  UNL1       -0.2810
     28  H         24.0600  -24.4760  -12.6940 H       1  UNL1        0.1790
     29  C         25.3880  -23.3780  -13.9020 C.2     1  UNL1        0.0420
     30  C         24.7430  -23.7140  -15.0940 C.2     1  UNL1        0.0300
     31  C         25.2840  -23.3160  -16.3180 C.2     1  UNL1        0.0020
     32  C         26.4710  -22.5850  -16.3490 C.2     1  UNL1        0.0000
     33  C         27.1210  -22.2600  -15.1600 C.2     1  UNL1        0.0020
     34  C         26.5840  -22.6610  -13.9360 C.2     1  UNL1        0.0300
@<TRIPOS>BOND
     1    32    31    2
     2    32    33    1
     3    31    30    1
     4    33    34    2
     5    30    29    2
     6    34    29    1
     7    29    27    1
     8     1     2    1
     9    28    27    1
    10    27    24    1
    11     2     3    2
    12     2     7    1
    13     3     4    1
    14    26    24    2
    15     7    24    1
    16     7     6    2
    17    24    25    2
    18     4     5    2
    19     6     5    1
    20     5     8    1
    21    11    10    1
    22     8    10   am
    23     8     9    2
    24    10    12    1
    25    13    12    2
    26    13    14    1
    27    12    19    1
    28    14    15    2
    29    19    23    1
    30    19    16    2
    31    23    22    2
    32    15    16    1
    33    15    17    1
    34    16    18    1
    35    22    20    1
    36    17    21    2
    37    18    20    2
    38    18    21    1
