@<TRIPOS>MOLECULE
55121_out_ligand_01.pdbqt
 34 38 0 0 0
SMALL
GASTEIGER

@<TRIPOS>ATOM
      1  C         23.3150  -22.5100  -11.9640 C.2     1  UNL1        0.0250
      2  C         22.3690  -21.6490  -12.5250 C.2     1  UNL1        0.0250
      3  C         21.0940  -21.5460  -11.9660 C.2     1  UNL1        0.0190
      4  C         20.7690  -22.2960  -10.8280 C.2     1  UNL1        0.0320
      5  C         21.7170  -23.1610  -10.2680 C.2     1  UNL1        0.0190
      6  C         22.9930  -23.2580  -10.8280 C.2     1  UNL1        0.0250
      7  C         19.4180  -22.2190  -10.2050 C.2     1  UNL1        0.2560
      8  O         18.5650  -21.5470  -10.7660 O.2     1  UNL1       -0.2670
      9  N         19.2780  -22.9650   -9.0500 N.am    1  UNL1       -0.3220
     10  H         20.0460  -23.5730   -8.8140 H       1  UNL1        0.1690
     11  C         18.1490  -23.0470   -8.1980 C.2     1  UNL1        0.0460
     12  C         16.9540  -23.6890   -8.5910 C.2     1  UNL1        0.0310
     13  C         15.8330  -23.7500   -7.7450 C.2     1  UNL1        0.0100
     14  C         15.9090  -23.1600   -6.4980 C.2     1  UNL1       -0.0460
     15  C         17.0670  -22.5360   -6.1180 C.2     1  UNL1       -0.0110
     16  C         14.8620  -23.0920   -5.4260 C.2     1  UNL1        0.0440
     17  C         16.9240  -22.0210   -4.8540 C.2     1  UNL1       -0.0460
     18  C         18.2230  -22.4390   -6.9060 C.2     1  UNL1        0.0020
     19  C         17.9780  -21.3450   -4.2650 C.2     1  UNL1        0.0080
     20  C         15.5590  -22.2970   -4.2950 C.2     1  UNL1        0.0440
     21  C         19.1690  -21.2090   -4.9870 C.2     1  UNL1        0.0020
     22  C         19.2960  -21.7450   -6.2860 C.2     1  UNL1        0.0140
     23  N         24.6250  -22.5500  -12.5600 N.pl3   1  UNL1       -0.1760
     24  C         25.1310  -23.9130  -12.8510 C.3     1  UNL1        0.1360
     25  S         25.7470  -21.5170  -11.7600 S.O2    1  UNL1        0.2470
     26  O         25.0600  -20.8030  -10.7010 O.2     1  UNL1       -0.2050
     27  O         26.9480  -22.2830  -11.4900 O.2     1  UNL1       -0.2050
     28  C         26.1260  -20.3230  -13.0220 C.2     1  UNL1        0.0750
     29  C         25.7600  -20.5620  -14.3480 C.2     1  UNL1        0.0250
     30  C         26.0700  -19.6140  -15.3260 C.2     1  UNL1        0.0080
     31  C         26.7600  -18.4420  -14.9860 C.2     1  UNL1       -0.0620
     32  C         27.0730  -17.4110  -16.0320 C.3     1  UNL1        0.0480
     33  C         27.1210  -18.2180  -13.6500 C.2     1  UNL1        0.0080
     34  C         26.8130  -19.1590  -12.6670 C.2     1  UNL1        0.0250
@<TRIPOS>BOND
     1    32    31    1
     2    30    31    2
     3    30    29    1
     4    31    33    1
     5    29    28    2
     6    33    34    2
     7    28    34    1
     8    28    25    1
     9    24    23    1
    10    23     1    1
    11    23    25    1
    12     2     3    1
    13     2     1    2
    14     3     4    2
    15     1     6    1
    16    25    27    2
    17    25    26    2
    18     4     5    1
    19     4     7    1
    20     6     5    2
    21     8     7    2
    22     7     9   am
    23     9    10    1
    24     9    11    1
    25    12    11    2
    26    12    13    1
    27    11    18    1
    28    13    14    2
    29    18    22    1
    30    18    15    2
    31    14    15    1
    32    14    16    1
    33    22    21    2
    34    15    17    1
    35    16    20    2
    36    21    19    1
    37    17    20    1
    38    17    19    2
