@<TRIPOS>MOLECULE
55129_out_ligand_01.pdbqt
 30 32 0 0 0
SMALL
GASTEIGER

@<TRIPOS>ATOM
      1  C         17.7430  -23.5660   -8.5960 C.2     1  UNL1        0.0810
      2  C         19.1170  -23.8290   -8.4730 C.2     1  UNL1        0.0420
      3  C         20.0140  -23.3560   -9.4360 C.2     1  UNL1        0.0330
      4  C         19.5390  -22.5890  -10.5030 C.2     1  UNL1        0.0170
      5  C         18.1720  -22.3200  -10.6210 C.2     1  UNL1        0.0090
      6  C         17.2520  -22.8110   -9.6790 C.2     1  UNL1       -0.0390
      7  C         15.7980  -22.4640   -9.8570 C.3     1  UNL1        0.0500
      8  S         16.6580  -24.2080   -7.3240 S.O2    1  UNL1        0.2460
      9  O         17.4670  -24.9620   -6.3930 O.2     1  UNL1       -0.2060
     10  O         15.5060  -24.7910   -7.9770 O.2     1  UNL1       -0.2060
     11  N         16.1240  -22.7480   -6.6140 N.pl3   1  UNL1       -0.1810
     12  H         15.1480  -22.8740   -6.3450 H       1  UNL1        0.1460
     13  C         16.9260  -22.2920   -5.5090 C.2     1  UNL1        0.0280
     14  C         18.0620  -21.5260   -5.7880 C.2     1  UNL1        0.0250
     15  C         18.8850  -21.0810   -4.7550 C.2     1  UNL1        0.0020
     16  C         18.5770  -21.4030   -3.4370 C.2     1  UNL1        0.0010
     17  C         17.4480  -22.1730   -3.1530 C.2     1  UNL1        0.0080
     18  C         16.6080  -22.6300   -4.1820 C.2     1  UNL1       -0.0400
     19  C         15.4100  -23.4640   -3.8250 C.3     1  UNL1        0.0500
     20  C         21.4630  -23.6640   -9.2720 C.2     1  UNL1        0.2510
     21  O         21.8150  -24.7530   -8.8360 O.2     1  UNL1       -0.2680
     22  N         22.3440  -22.6840   -9.6740 N.am    1  UNL1       -0.3530
     23  H         22.0120  -21.9540  -10.2880 H       1  UNL1        0.1630
     24  C         23.7620  -22.9480   -9.6860 C.3     1  UNL1        0.1560
     25  C         24.3460  -22.2870  -10.9050 C.2     1  UNL1       -0.0660
     26  C         25.3300  -21.3720  -10.8190 C.2     1  UNL1       -0.0220
     27  C         25.9520  -20.7010  -12.0100 C.3     1  UNL1        0.0270
     28  C         25.5930  -21.3710  -13.3350 C.3     1  UNL1        0.0040
     29  C         24.1130  -21.7390  -13.3800 C.3     1  UNL1        0.0050
     30  C         23.7420  -22.6830  -12.2340 C.3     1  UNL1        0.0350
@<TRIPOS>BOND
     1    29    28    1
     2    29    30    1
     3    28    27    1
     4    30    25    1
     5    27    26    1
     6    25    26    2
     7    25    24    1
     8     5     4    2
     9     5     6    1
    10     4     3    1
    11    23    22    1
    12     7     6    1
    13    24    22    1
    14     6     1    2
    15    22    20   am
    16     3    20    1
    17     3     2    2
    18    20    21    2
    19     1     2    1
    20     1     8    1
    21    10     8    2
    22     8    11    1
    23     8     9    2
    24    11    12    1
    25    11    13    1
    26    14    13    2
    27    14    15    1
    28    13    18    1
    29    15    16    2
    30    18    19    1
    31    18    17    2
    32    16    17    1
