@<TRIPOS>MOLECULE
55127_out_ligand_01.pdbqt
 35 39 0 0 0
SMALL
GASTEIGER

@<TRIPOS>ATOM
      1  C         24.4170  -21.4990  -15.9400 C.3     1  UNL1        0.0500
      2  C         23.8920  -21.7800  -14.5600 C.2     1  UNL1       -0.0390
      3  C         22.8020  -21.0150  -14.1030 C.2     1  UNL1        0.0090
      4  C         22.2540  -21.2120  -12.8320 C.2     1  UNL1        0.0170
      5  C         22.7790  -22.1990  -11.9960 C.2     1  UNL1        0.0330
      6  C         23.8630  -22.9660  -12.4270 C.2     1  UNL1        0.0420
      7  C         24.4290  -22.7520  -13.6960 C.2     1  UNL1        0.0860
      8  C         22.2550  -22.4240  -10.6220 C.2     1  UNL1        0.2560
      9  O         23.0370  -22.8440   -9.7780 O.2     1  UNL1       -0.2670
     10  N         20.9080  -22.1570  -10.4620 N.am    1  UNL1       -0.3230
     11  H         20.3830  -21.9360  -11.2970 H       1  UNL1        0.1690
     12  C         20.1510  -22.2460   -9.2720 C.2     1  UNL1        0.0370
     13  C         20.7120  -22.1960   -7.9920 C.2     1  UNL1        0.0300
     14  C         19.9160  -22.2840   -6.8340 C.2     1  UNL1        0.0170
     15  C         18.5250  -22.4220   -6.9750 C.ar    1  UNL1        0.0110
     16  C         17.9980  -22.4640   -8.2600 C.ar    1  UNL1        0.0890
     17  C         17.4140  -22.5410   -6.0920 C.ar    1  UNL1        0.0110
     18  C         18.7620  -22.3800   -9.4250 C.2     1  UNL1        0.0670
     19  O         16.6440  -22.5980   -8.2180 O.2     1  UNL1       -0.3090
     20  C         16.2900  -22.6450   -6.9050 C.ar    1  UNL1        0.0870
     21  C         14.9880  -22.7780   -6.4260 C.2     1  UNL1        0.0380
     22  C         14.8330  -22.8070   -5.0360 C.2     1  UNL1        0.0030
     23  C         15.9360  -22.7050   -4.1840 C.2     1  UNL1        0.0010
     24  C         17.2350  -22.5710   -4.6960 C.2     1  UNL1        0.0150
     25  S         25.8400  -23.7810  -14.0940 S.O2    1  UNL1        0.2630
     26  O         25.6930  -24.3400  -15.4190 O.2     1  UNL1       -0.2000
     27  O         26.0590  -24.6410  -12.9500 O.2     1  UNL1       -0.2000
     28  N         27.1200  -22.6780  -14.1080 N.pl3   1  UNL1       -0.2810
     29  H         28.0260  -23.1420  -14.1460 H       1  UNL1        0.1790
     30  C         27.0190  -21.4830  -13.3420 C.2     1  UNL1        0.0420
     31  C         27.0800  -20.2320  -13.9520 C.2     1  UNL1        0.0300
     32  C         26.9460  -19.0730  -13.1850 C.2     1  UNL1        0.0020
     33  C         26.7510  -19.1680  -11.8070 C.2     1  UNL1        0.0000
     34  C         26.6930  -20.4200  -11.1960 C.2     1  UNL1        0.0020
     35  C         26.8290  -21.5780  -11.9620 C.2     1  UNL1        0.0300
@<TRIPOS>BOND
     1     1     2    1
     2    26    25    2
     3     2     3    2
     4     2     7    1
     5    29    28    1
     6    28    25    1
     7    28    30    1
     8     3     4    1
     9    25     7    1
    10    25    27    2
    11    31    30    2
    12    31    32    1
    13     7     6    2
    14    30    35    1
    15    32    33    2
    16     4     5    2
    17     6     5    1
    18     5     8    1
    19    35    34    2
    20    33    34    1
    21    11    10    1
    22     8    10   am
    23     8     9    2
    24    10    12    1
    25    18    12    2
    26    18    16    1
    27    12    13    1
    28    16    19   ar
    29    16    15   ar
    30    19    20   ar
    31    13    14    2
    32    15    14    1
    33    15    17   ar
    34    20    21    1
    35    20    17   ar
    36    21    22    2
    37    17    24    1
    38    22    23    1
    39    24    23    2
