@<TRIPOS>MOLECULE
55138_out_ligand_01.pdbqt
 31 33 0 0 0
SMALL
GASTEIGER

@<TRIPOS>ATOM
      1  C         16.9780  -20.8350  -11.3930 C.3     1  UNL1        0.0500
      2  C         18.3500  -21.4050  -11.1630 C.2     1  UNL1       -0.0390
      3  C         19.3950  -20.9770  -12.0020 C.2     1  UNL1        0.0090
      4  C         20.6990  -21.4500  -11.8350 C.2     1  UNL1        0.0170
      5  C         20.9850  -22.3550  -10.8090 C.2     1  UNL1        0.0330
      6  C         19.9610  -22.7960   -9.9670 C.2     1  UNL1        0.0420
      7  C         18.6500  -22.3220  -10.1360 C.2     1  UNL1        0.0810
      8  S         17.4120  -22.9090   -8.9790 S.O2    1  UNL1        0.2460
      9  O         16.6380  -23.9450   -9.6300 O.2     1  UNL1       -0.2060
     10  O         16.7670  -21.7400   -8.4160 O.2     1  UNL1       -0.2060
     11  N         18.4090  -23.5880   -7.7680 N.pl3   1  UNL1       -0.1810
     12  H         19.3340  -23.7660   -8.1630 H       1  UNL1        0.1460
     13  C         18.4900  -22.8000   -6.5670 C.2     1  UNL1        0.0290
     14  C         19.3950  -21.7310   -6.5430 C.2     1  UNL1        0.0250
     15  C         19.4660  -20.8980   -5.4320 C.2     1  UNL1        0.0020
     16  C         18.6200  -21.1140   -4.3490 C.2     1  UNL1        0.0070
     17  C         17.6940  -22.1710   -4.3580 C.2     1  UNL1       -0.0540
     18  C         16.7820  -22.3410   -3.1700 C.3     1  UNL1        0.0490
     19  C         17.6390  -23.0440   -5.4710 C.2     1  UNL1       -0.0340
     20  C         16.6560  -24.1860   -5.4920 C.3     1  UNL1        0.0500
     21  C         22.3540  -22.8900  -10.5920 C.2     1  UNL1        0.2510
     22  O         22.5420  -23.7470   -9.7390 O.2     1  UNL1       -0.2680
     23  N         23.3480  -22.3380  -11.3640 N.am    1  UNL1       -0.3530
     24  H         23.1410  -21.6010  -12.0230 H       1  UNL1        0.1630
     25  C         24.7230  -22.7610  -11.2480 C.3     1  UNL1        0.1560
     26  C         25.5900  -21.6560  -11.7920 C.2     1  UNL1       -0.0660
     27  C         26.0070  -20.6250  -11.0290 C.2     1  UNL1       -0.0220
     28  C         26.8210  -19.4770  -11.5520 C.3     1  UNL1        0.0270
     29  C         26.8430  -19.4040  -13.0810 C.3     1  UNL1        0.0040
     30  C         27.0500  -20.7870  -13.6880 C.3     1  UNL1        0.0050
     31  C         25.9380  -21.7500  -13.2610 C.3     1  UNL1        0.0350
@<TRIPOS>BOND
     1    30    31    1
     2    30    29    1
     3    31    26    1
     4    29    28    1
     5    24    23    1
     6     3     4    1
     7     3     2    2
     8     4     5    2
     9    26    25    1
    10    26    27    2
    11    28    27    1
    12     1     2    1
    13    23    25    1
    14    23    21   am
    15     2     7    1
    16     5    21    1
    17     5     6    1
    18    21    22    2
    19     7     6    2
    20     7     8    1
    21     9     8    2
    22     8    10    2
    23     8    11    1
    24    12    11    1
    25    11    13    1
    26    13    14    2
    27    13    19    1
    28    14    15    1
    29    20    19    1
    30    19    17    2
    31    15    16    2
    32    17    16    1
    33    17    18    1
