@<TRIPOS>MOLECULE
55131_out_ligand_01.pdbqt
 35 39 0 0 0
SMALL
GASTEIGER

@<TRIPOS>ATOM
      1  C         17.3650  -23.1450   -8.9120 C.2     1  UNL1        0.0860
      2  C         18.7710  -23.1180   -8.9190 C.2     1  UNL1        0.0420
      3  C         19.4620  -22.4430   -9.9270 C.2     1  UNL1        0.0330
      4  C         18.7530  -21.7880  -10.9340 C.2     1  UNL1        0.0170
      5  C         17.3550  -21.8190  -10.9320 C.2     1  UNL1        0.0090
      6  C         16.6370  -22.4960   -9.9270 C.2     1  UNL1       -0.0390
      7  C         15.1360  -22.4780  -10.0040 C.3     1  UNL1        0.0500
      8  C         20.9460  -22.3960   -9.8650 C.2     1  UNL1        0.2560
      9  O         21.4610  -22.2440   -8.7660 O.2     1  UNL1       -0.2670
     10  N         21.5760  -22.5610  -11.0820 N.am    1  UNL1       -0.3220
     11  H         20.9900  -22.8220  -11.8580 H       1  UNL1        0.1690
     12  C         22.9660  -22.5350  -11.3520 C.2     1  UNL1        0.0460
     13  C         23.9130  -23.0890  -10.4640 C.2     1  UNL1        0.0310
     14  C         25.2880  -23.0750  -10.7480 C.2     1  UNL1        0.0100
     15  C         25.7200  -22.4950  -11.9240 C.2     1  UNL1       -0.0460
     16  C         24.8010  -21.9420  -12.7770 C.2     1  UNL1       -0.0110
     17  C         27.1190  -22.3660  -12.4530 C.2     1  UNL1        0.0440
     18  C         25.4420  -21.4150  -13.8720 C.2     1  UNL1       -0.0460
     19  C         23.4190  -21.9180  -12.5610 C.2     1  UNL1        0.0020
     20  C         24.7050  -20.7870  -14.8620 C.2     1  UNL1        0.0080
     21  C         26.9270  -21.6180  -13.7950 C.2     1  UNL1        0.0440
     22  C         23.3160  -20.7160  -14.7140 C.2     1  UNL1        0.0020
     23  C         22.6760  -21.2730  -13.5870 C.2     1  UNL1        0.0140
     24  S         16.6170  -24.0850   -7.5840 S.O2    1  UNL1        0.2630
     25  O         15.4800  -24.8220   -8.0820 O.2     1  UNL1       -0.2000
     26  O         17.6940  -24.7750   -6.9070 O.2     1  UNL1       -0.2000
     27  N         16.0950  -22.8880   -6.5320 N.pl3   1  UNL1       -0.2800
     28  H         15.0850  -22.7160   -6.5010 H       1  UNL1        0.1790
     29  C         16.9250  -22.4020   -5.4860 C.2     1  UNL1        0.0480
     30  C         17.9980  -21.5680   -5.8170 C.2     1  UNL1        0.0300
     31  C         18.8320  -21.0490   -4.8250 C.2     1  UNL1        0.0020
     32  C         18.5980  -21.3670   -3.4930 C.2     1  UNL1        0.0010
     33  C         17.5210  -22.1930   -3.1530 C.2     1  UNL1        0.0090
     34  C         16.6580  -22.7070   -4.1420 C.2     1  UNL1       -0.0350
     35  C         15.5270  -23.6050   -3.7200 C.3     1  UNL1        0.0500
@<TRIPOS>BOND
     1    20    22    1
     2    20    18    2
     3    22    23    2
     4    18    21    1
     5    18    16    1
     6    21    17    2
     7    23    19    1
     8    16    19    1
     9    16    15    2
    10    19    12    2
    11    17    15    1
    12    15    14    1
    13    11    10    1
    14    12    10    1
    15    12    13    1
    16    10     8   am
    17     4     5    2
    18     4     3    1
    19     5     6    1
    20    14    13    2
    21     7     6    1
    22     3     8    1
    23     3     2    2
    24     6     1    2
    25     8     9    2
    26     2     1    1
    27     1    24    1
    28    25    24    2
    29    24    26    2
    30    24    27    1
    31    27    28    1
    32    27    29    1
    33    30    29    2
    34    30    31    1
    35    29    34    1
    36    31    32    2
    37    34    35    1
    38    34    33    2
    39    32    33    1
