@<TRIPOS>MOLECULE
55133_out_ligand_01.pdbqt
 32 34 0 0 0
SMALL
GASTEIGER

@<TRIPOS>ATOM
      1  C         23.0890  -21.7370  -11.4890 C.2     1  UNL1        0.0860
      2  C         21.7910  -21.4640  -11.0200 C.2     1  UNL1        0.0420
      3  C         20.7510  -21.2110  -11.9170 C.2     1  UNL1        0.0330
      4  C         21.0040  -21.2270  -13.2890 C.2     1  UNL1        0.0170
      5  C         22.2970  -21.4800  -13.7550 C.2     1  UNL1        0.0090
      6  C         23.3620  -21.7350  -12.8700 C.2     1  UNL1       -0.0390
      7  C         24.7190  -21.9930  -13.4590 C.3     1  UNL1        0.0500
      8  C         19.3920  -20.9660  -11.3670 C.2     1  UNL1        0.2510
      9  O         18.8690  -19.8660  -11.5030 O.2     1  UNL1       -0.2680
     10  N         18.7780  -22.0390  -10.7590 N.am    1  UNL1       -0.3570
     11  H         19.1570  -22.9640  -10.9160 H       1  UNL1        0.1620
     12  C         17.3880  -21.9680  -10.3410 C.3     1  UNL1        0.1270
     13  C         16.8090  -23.3320   -9.9490 C.3     1  UNL1        0.0580
     14  C         16.3230  -23.3700   -8.5170 C.2     1  UNL1       -0.0570
     15  C         16.4570  -24.5400   -7.7550 C.2     1  UNL1        0.0090
     16  C         16.0320  -24.5710   -6.4260 C.2     1  UNL1        0.0240
     17  C         15.4730  -23.4330   -5.8510 C.2     1  UNL1        0.0340
     18 CL         14.9530  -23.4690   -4.2120 Cl      1  UNL1       -0.0840
     19  C         15.3330  -22.2630   -6.5960 C.2     1  UNL1        0.0240
     20  C         15.7580  -22.2310   -7.9250 C.2     1  UNL1        0.0090
     21  S         24.3110  -22.0680  -10.2230 S.O2    1  UNL1        0.2630
     22  O         25.2980  -21.0120  -10.3150 O.2     1  UNL1       -0.2000
     23  O         24.7130  -23.4560  -10.2670 O.2     1  UNL1       -0.2000
     24  N         23.4580  -21.7900   -8.7900 N.pl3   1  UNL1       -0.2810
     25  H         23.4800  -20.8100   -8.5150 H       1  UNL1        0.1790
     26  C         22.2610  -22.5200   -8.5410 C.2     1  UNL1        0.0430
     27  C         22.1210  -23.7940   -9.0910 C.2     1  UNL1        0.0300
     28  C         20.9770  -24.5460   -8.8210 C.2     1  UNL1        0.0030
     29  C         19.9710  -24.0190   -8.0090 C.2     1  UNL1        0.0070
     30  C         20.0940  -22.7330   -7.4700 C.2     1  UNL1       -0.0600
     31  C         19.0290  -22.1770   -6.5740 C.3     1  UNL1        0.0480
     32  C         21.2540  -21.9910   -7.7350 C.2     1  UNL1        0.0370
@<TRIPOS>BOND
     1     5     4    2
     2     5     6    1
     3     7     6    1
     4     4     3    1
     5     6     1    2
     6     3     8    1
     7     3     2    2
     8     9     8    2
     9     1     2    1
    10     1    21    1
    11     8    10   am
    12    11    10    1
    13    10    12    1
    14    12    13    1
    15    22    21    2
    16    23    21    2
    17    21    24    1
    18    13    14    1
    19    27    28    1
    20    27    26    2
    21    28    29    2
    22    24    26    1
    23    24    25    1
    24    26    32    1
    25    14    20    2
    26    14    15    1
    27    29    30    1
    28    20    19    1
    29    15    16    2
    30    32    30    2
    31    30    31    1
    32    19    17    2
    33    16    17    1
    34    17    18    1
