@<TRIPOS>MOLECULE
55149_out_ligand_01.pdbqt
 36 40 0 0 0
SMALL
GASTEIGER

@<TRIPOS>ATOM
      1  C         24.4080  -22.8010  -13.7090 C.2     1  UNL1        0.0860
      2  C         23.7850  -23.1600  -12.5020 C.2     1  UNL1        0.0420
      3  C         22.6670  -22.4570  -12.0480 C.2     1  UNL1        0.0330
      4  C         22.1720  -21.3850  -12.7950 C.2     1  UNL1        0.0170
      5  C         22.7840  -21.0330  -14.0010 C.2     1  UNL1        0.0090
      6  C         23.9100  -21.7290  -14.4770 C.2     1  UNL1       -0.0390
      7  C         24.5000  -21.2980  -15.7910 C.3     1  UNL1        0.0500
      8  C         22.0480  -22.8540  -10.7540 C.2     1  UNL1        0.2560
      9  O         22.6810  -23.5990  -10.0170 O.2     1  UNL1       -0.2670
     10  N         20.7800  -22.3460  -10.5410 N.am    1  UNL1       -0.3230
     11  H         20.3480  -21.8570  -11.3140 H       1  UNL1        0.1690
     12  C         19.9730  -22.5130   -9.3930 C.2     1  UNL1        0.0370
     13  C         20.5460  -22.1530   -8.1630 C.2     1  UNL1        0.0300
     14  C         19.8440  -22.2810   -6.9530 C.2     1  UNL1        0.0170
     15  C         18.5350  -22.7900   -6.9860 C.ar    1  UNL1        0.0110
     16  C         17.9960  -23.1410   -8.2180 C.ar    1  UNL1        0.0890
     17  C         17.5240  -23.0690   -6.0210 C.ar    1  UNL1        0.0110
     18  C         18.6710  -23.0220   -9.4360 C.2     1  UNL1        0.0670
     19  O         16.7300  -23.6170   -8.0660 O.2     1  UNL1       -0.3090
     20  C         16.4430  -23.5720   -6.7370 C.ar    1  UNL1        0.0870
     21  C         15.2400  -23.9720   -6.1590 C.2     1  UNL1        0.0380
     22  C         15.1420  -23.8480   -4.7690 C.2     1  UNL1        0.0030
     23  C         16.2050  -23.3470   -4.0120 C.2     1  UNL1        0.0010
     24  C         17.4040  -22.9520   -4.6220 C.2     1  UNL1        0.0150
     25  S         25.8110  -23.7890  -14.2230 S.O2    1  UNL1        0.2630
     26  O         25.9920  -23.6180  -15.6490 O.2     1  UNL1       -0.2000
     27  O         25.6510  -25.1170  -13.6690 O.2     1  UNL1       -0.2000
     28  N         27.1180  -23.0220  -13.4840 N.pl3   1  UNL1       -0.2800
     29  H         28.0100  -23.2830  -13.8920 H       1  UNL1        0.1790
     30  C         26.9720  -21.7190  -12.9220 C.2     1  UNL1        0.0480
     31  C         27.1190  -20.5900  -13.7350 C.2     1  UNL1        0.0300
     32  C         27.0200  -19.3090  -13.1940 C.2     1  UNL1        0.0020
     33  C         26.7590  -19.1470  -11.8380 C.2     1  UNL1        0.0010
     34  C         26.5880  -20.2680  -11.0240 C.2     1  UNL1        0.0090
     35  C         26.6830  -21.5650  -11.5540 C.2     1  UNL1       -0.0350
     36  C         26.5020  -22.7380  -10.6340 C.3     1  UNL1        0.0500
@<TRIPOS>BOND
     1     7     6    1
     2    26    25    2
     3     6     5    1
     4     6     1    2
     5    25     1    1
     6    25    27    2
     7    25    28    1
     8     5     4    2
     9    29    28    1
    10    31    32    1
    11    31    30    2
    12     1     2    1
    13    28    30    1
    14    32    33    2
    15    30    35    1
    16     4     3    1
    17     2     3    2
    18     3     8    1
    19    33    34    1
    20    35    34    2
    21    35    36    1
    22    11    10    1
    23     8    10   am
    24     8     9    2
    25    10    12    1
    26    18    12    2
    27    18    16    1
    28    12    13    1
    29    16    19   ar
    30    16    15   ar
    31    13    14    2
    32    19    20   ar
    33    15    14    1
    34    15    17   ar
    35    20    21    1
    36    20    17   ar
    37    21    22    2
    38    17    24    1
    39    22    23    1
    40    24    23    2
