@<TRIPOS>MOLECULE
55143_out_ligand_01.pdbqt
 33 35 0 0 0
SMALL
GASTEIGER

@<TRIPOS>ATOM
      1  C         20.7550  -22.4850  -10.6320 C.2     1  UNL1        0.0330
      2  C         20.4360  -21.5180  -11.5860 C.2     1  UNL1        0.0170
      3  C         19.1220  -21.0530  -11.6950 C.2     1  UNL1        0.0090
      4  C         18.1070  -21.5330  -10.8470 C.2     1  UNL1       -0.0390
      5  C         16.7180  -20.9830  -11.0300 C.3     1  UNL1        0.0500
      6  C         18.4430  -22.5070   -9.8860 C.2     1  UNL1        0.0860
      7  C         19.7640  -22.9770   -9.7810 C.2     1  UNL1        0.0420
      8  C         22.1480  -22.9840  -10.4720 C.2     1  UNL1        0.2560
      9  N         22.9520  -22.8060  -11.5840 N.am    1  UNL1       -0.3230
     10  H         22.5020  -22.4820  -12.4300 H       1  UNL1        0.1690
     11  O         22.4530  -23.5170   -9.4140 O.2     1  UNL1       -0.2670
     12  C         24.3210  -23.1210  -11.7060 C.2     1  UNL1        0.0350
     13  C         25.2610  -22.9120  -10.6980 C.2     1  UNL1        0.0290
     14  C         26.6030  -23.2450  -10.9020 C.2     1  UNL1        0.0030
     15  C         27.0180  -23.7860  -12.1170 C.2     1  UNL1        0.0090
     16  C         26.0950  -23.9910  -13.1480 C.2     1  UNL1       -0.0320
     17  C         24.7470  -23.6610  -12.9260 C.2     1  UNL1        0.0380
     18  C         26.5330  -24.6030  -14.4560 C.3     1  UNL1        0.2050
     19  O         25.7550  -24.1330  -15.5580 O.3     1  UNL1       -0.3910
     20  C         26.3610  -23.0350  -16.2280 C.3     1  UNL1        0.2010
     21  S         17.2320  -23.2360   -8.7850 S.O2    1  UNL1        0.2630
     22  O         17.9130  -24.1950   -7.9420 O.2     1  UNL1       -0.2000
     23  O         16.0890  -23.6490   -9.5710 O.2     1  UNL1       -0.2000
     24  N         16.7190  -21.9280   -7.8520 N.pl3   1  UNL1       -0.2800
     25  H         17.0260  -21.0340   -8.2220 H       1  UNL1        0.1790
     26  C         16.5380  -22.0720   -6.4440 C.2     1  UNL1        0.0490
     27  C         15.2830  -22.4480   -5.9590 C.2     1  UNL1        0.0310
     28  C         15.0840  -22.6550   -4.6000 C.2     1  UNL1        0.0030
     29  C         16.1380  -22.4730   -3.7120 C.2     1  UNL1        0.0070
     30  C         17.4050  -22.0750   -4.1700 C.2     1  UNL1       -0.0540
     31  C         18.5010  -21.8900   -3.1530 C.3     1  UNL1        0.0490
     32  C         17.6120  -21.8510   -5.5530 C.2     1  UNL1       -0.0290
     33  C         18.9700  -21.4500   -6.0690 C.3     1  UNL1        0.0510
@<TRIPOS>BOND
     1    20    19    1
     2    19    18    1
     3    18    16    1
     4    16    17    1
     5    16    15    2
     6    17    12    2
     7    10     9    1
     8    15    14    1
     9    12     9    1
    10    12    13    1
    11     3     2    1
    12     3     4    2
    13     2     1    2
    14     9     8   am
    15     5     4    1
    16    14    13    2
    17     4     6    1
    18     1     8    1
    19     1     7    1
    20     8    11    2
    21     6     7    2
    22     6    21    1
    23    23    21    2
    24    21    22    2
    25    21    24    1
    26    25    24    1
    27    24    26    1
    28    26    27    2
    29    26    32    1
    30    33    32    1
    31    27    28    1
    32    32    30    2
    33    28    29    2
    34    30    29    1
    35    30    31    1
