@<TRIPOS>MOLECULE
55142_out_ligand_01.pdbqt
 37 40 0 0 0
SMALL
GASTEIGER

@<TRIPOS>ATOM
      1  C         15.8930  -22.1770   -4.5470 C.3     1  UNL1        0.0500
      2  C         17.2250  -21.9990   -5.2200 C.2     1  UNL1       -0.0390
      3  C         18.2030  -21.2320   -4.5580 C.2     1  UNL1        0.0090
      4  C         19.4700  -21.0370   -5.1140 C.2     1  UNL1        0.0170
      5  C         19.7880  -21.6210   -6.3430 C.2     1  UNL1        0.0330
      6  C         18.8320  -22.3810   -7.0190 C.2     1  UNL1        0.0420
      7  C         17.5540  -22.5720   -6.4640 C.2     1  UNL1        0.0860
      8  C         21.1250  -21.4440   -6.9690 C.2     1  UNL1        0.2560
      9  O         21.8350  -20.5340   -6.5590 O.2     1  UNL1       -0.2670
     10  N         21.4000  -22.3250   -8.0000 N.am    1  UNL1       -0.3230
     11  H         20.6520  -22.9420   -8.2880 H       1  UNL1        0.1690
     12  C         22.5660  -22.3680   -8.7930 C.2     1  UNL1        0.0350
     13  C         23.2980  -23.5620   -8.7910 C.2     1  UNL1        0.0300
     14  C         24.4500  -23.6960   -9.5730 C.2     1  UNL1        0.0100
     15  C         24.8940  -22.6340  -10.3720 C.2     1  UNL1       -0.0540
     16  C         24.1710  -21.4360  -10.3560 C.2     1  UNL1        0.0100
     17  C         23.0190  -21.3050   -9.5730 C.2     1  UNL1        0.0300
     18  C         26.1210  -22.7820  -11.2420 C.3     1  UNL1        0.0770
     19  C         25.8310  -22.8550  -12.7230 C.2     1  UNL1       -0.0510
     20  C         25.9740  -21.7340  -13.5470 C.2     1  UNL1        0.0260
     21  C         25.7150  -21.8620  -14.9020 C.2     1  UNL1        0.1160
     22  N         25.3380  -23.0170  -15.4890 N.2     1  UNL1       -0.2730
     23  C         25.2170  -24.0910  -14.6820 C.2     1  UNL1        0.1160
     24  C         25.4500  -24.0630  -13.3160 C.2     1  UNL1        0.0260
     25  S         16.4190  -23.6060   -7.3870 S.O2    1  UNL1        0.2630
     26  O         15.2690  -22.8070   -7.7550 O.2     1  UNL1       -0.2000
     27  O         16.2360  -24.8390   -6.6510 O.2     1  UNL1       -0.2000
     28  N         17.2510  -23.9200   -8.8170 N.pl3   1  UNL1       -0.2800
     29  H         17.0850  -24.8570   -9.1710 H       1  UNL1        0.1790
     30  C         17.5490  -22.8700   -9.7380 C.2     1  UNL1        0.0490
     31  C         16.5780  -21.8990  -10.0020 C.2     1  UNL1        0.0310
     32  C         16.8230  -20.8900  -10.9260 C.2     1  UNL1        0.0030
     33  C         18.0460  -20.8390  -11.5870 C.2     1  UNL1        0.0070
     34  C         19.0440  -21.7910  -11.3270 C.2     1  UNL1       -0.0540
     35  C         20.3490  -21.6730  -12.0730 C.3     1  UNL1        0.0490
     36  C         18.8090  -22.8110  -10.3720 C.2     1  UNL1       -0.0290
     37  C         19.8670  -23.8440  -10.0720 C.3     1  UNL1        0.0510
@<TRIPOS>BOND
     1    22    21    2
     2    22    23    1
     3    21    20    1
     4    23    24    2
     5    20    19    2
     6    24    19    1
     7    19    18    1
     8    35    34    1
     9    33    34    2
    10    33    32    1
    11    34    36    1
    12    18    15    1
    13    32    31    2
    14    36    37    1
    15    36    30    2
    16    15    16    2
    17    15    14    1
    18    16    17    1
    19    31    30    1
    20    30    28    1
    21    14    13    2
    22    17    12    2
    23    29    28    1
    24    28    25    1
    25    12    13    1
    26    12    10    1
    27    11    10    1
    28    10     8   am
    29    26    25    2
    30    25    27    2
    31    25     7    1
    32     6     7    1
    33     6     5    2
    34     8     9    2
    35     8     5    1
    36     7     2    2
    37     5     4    1
    38     2     3    1
    39     2     1    1
    40     4     3    2
