@<TRIPOS>MOLECULE
55141_out_ligand_01.pdbqt
 37 41 0 0 0
SMALL
GASTEIGER

@<TRIPOS>ATOM
      1  C         27.0540  -23.4650  -13.5940 C.3     1  UNL1        0.0500
      2  C         25.9030  -23.0950  -12.6970 C.2     1  UNL1       -0.0390
      3  C         25.9780  -23.4660  -11.3410 C.2     1  UNL1        0.0090
      4  C         24.9560  -23.1440  -10.4450 C.2     1  UNL1        0.0170
      5  C         23.8410  -22.4300  -10.8910 C.2     1  UNL1        0.0330
      6  C         23.7430  -22.0560  -12.2330 C.2     1  UNL1        0.0420
      7  C         24.7680  -22.3850  -13.1340 C.2     1  UNL1        0.0860
      8  C         22.7310  -22.0730   -9.9670 C.2     1  UNL1        0.2560
      9  O         22.8700  -21.0930   -9.2480 O.2     1  UNL1       -0.2670
     10  N         21.6560  -22.9430  -10.0040 N.am    1  UNL1       -0.3230
     11  H         21.7710  -23.7880  -10.5480 H       1  UNL1        0.1690
     12  C         20.4560  -22.8450   -9.2640 C.2     1  UNL1        0.0370
     13  C         19.2580  -22.9560   -9.9880 C.2     1  UNL1        0.0300
     14  C         18.0050  -22.8760   -9.3600 C.2     1  UNL1        0.0170
     15  C         17.9590  -22.6730   -7.9700 C.ar    1  UNL1        0.0110
     16  C         19.1620  -22.5550   -7.2830 C.ar    1  UNL1        0.0890
     17  C         16.9320  -22.5400   -6.9920 C.ar    1  UNL1        0.0110
     18  C         20.4220  -22.6340   -7.8810 C.2     1  UNL1        0.0670
     19  O         18.9340  -22.3530   -5.9560 O.2     1  UNL1       -0.3090
     20  C         17.5850  -22.3450   -5.7790 C.ar    1  UNL1        0.0870
     21  C         16.9340  -22.1660   -4.5600 C.2     1  UNL1        0.0380
     22  C         15.5360  -22.1930   -4.5870 C.2     1  UNL1        0.0030
     23  C         14.8420  -22.3880   -5.7840 C.2     1  UNL1        0.0010
     24  C         15.5240  -22.5630   -6.9960 C.2     1  UNL1        0.0150
     25  S         24.5740  -21.8180  -14.8230 S.O2    1  UNL1        0.2630
     26  O         24.5560  -22.9800  -15.6860 O.2     1  UNL1       -0.2000
     27  O         23.4810  -20.8700  -14.8630 O.2     1  UNL1       -0.2000
     28  N         25.9800  -20.9320  -15.1030 N.pl3   1  UNL1       -0.2800
     29  H         26.8230  -21.4920  -15.0340 H       1  UNL1        0.1790
     30  C         25.9610  -19.8000  -15.9740 C.2     1  UNL1        0.0490
     31  C         25.4230  -19.9440  -17.2560 C.2     1  UNL1        0.0310
     32  C         25.4430  -18.8820  -18.1530 C.2     1  UNL1        0.0030
     33  C         26.0000  -17.6660  -17.7710 C.2     1  UNL1        0.0070
     34  C         26.5350  -17.4900  -16.4850 C.2     1  UNL1       -0.0540
     35  C         27.1200  -16.1470  -16.1340 C.3     1  UNL1        0.0490
     36  C         26.4940  -18.5590  -15.5570 C.2     1  UNL1       -0.0290
     37  C         27.0720  -18.3870  -14.1750 C.3     1  UNL1        0.0510
@<TRIPOS>BOND
     1    32    33    2
     2    32    31    1
     3    33    34    1
     4    31    30    2
     5    34    35    1
     6    34    36    2
     7    30    36    1
     8    30    28    1
     9    26    25    2
    10    36    37    1
    11    28    29    1
    12    28    25    1
    13    27    25    2
    14    25     7    1
    15     1     2    1
    16     7     2    2
    17     7     6    1
    18     2     3    1
    19     6     5    2
    20     3     4    2
    21     5     4    1
    22     5     8    1
    23    11    10    1
    24    10     8   am
    25    10    12    1
    26    13    14    1
    27    13    12    2
    28     8     9    2
    29    14    15    2
    30    12    18    1
    31    15    16   ar
    32    15    17   ar
    33    18    16    2
    34    16    19   ar
    35    24    17    2
    36    24    23    1
    37    17    20   ar
    38    19    20   ar
    39    23    22    2
    40    20    21    2
    41    22    21    1
