@<TRIPOS>MOLECULE
55140_out_ligand_01.pdbqt
 33 35 0 0 0
SMALL
GASTEIGER

@<TRIPOS>ATOM
      1  C         17.2370  -21.0340  -11.3400 C.3     1  UNL1        0.0500
      2  C         18.6110  -21.5530  -11.0170 C.2     1  UNL1       -0.0390
      3  C         19.6960  -21.0830  -11.7780 C.2     1  UNL1        0.0090
      4  C         20.9970  -21.5350  -11.5380 C.2     1  UNL1        0.0170
      5  C         21.2370  -22.4790  -10.5380 C.2     1  UNL1        0.0330
      6  C         20.1710  -22.9600   -9.7690 C.2     1  UNL1        0.0420
      7  C         18.8650  -22.5030  -10.0090 C.2     1  UNL1        0.0810
      8  C         22.6080  -22.9700  -10.2330 C.2     1  UNL1        0.2510
      9  O         22.7730  -23.8340   -9.3800 O.2     1  UNL1       -0.2680
     10  N         23.6320  -22.4200  -10.9760 N.am    1  UNL1       -0.3570
     11  H         23.3820  -21.9710  -11.8490 H       1  UNL1        0.1620
     12  C         24.9750  -22.9690  -10.8940 C.3     1  UNL1        0.1270
     13  C         25.9100  -22.4020  -11.9670 C.3     1  UNL1        0.0580
     14  C         25.5170  -22.7930  -13.3750 C.2     1  UNL1       -0.0570
     15  C         25.5800  -24.1340  -13.7810 C.2     1  UNL1        0.0100
     16  C         25.2290  -24.4940  -15.0830 C.2     1  UNL1        0.0430
     17  C         24.8160  -23.5130  -15.9780 C.2     1  UNL1        0.1160
     18  F         24.4810  -23.8600  -17.2260 F       1  UNL1       -0.2060
     19  C         24.7450  -22.1810  -15.5940 C.2     1  UNL1        0.0430
     20  C         25.0940  -21.8180  -14.2920 C.2     1  UNL1        0.0100
     21  S         17.5540  -23.1810   -8.9940 S.O2    1  UNL1        0.2460
     22  O         16.4650  -23.5550   -9.8700 O.2     1  UNL1       -0.2060
     23  O         18.1510  -24.1360   -8.0850 O.2     1  UNL1       -0.2060
     24  N         17.1390  -21.8020   -8.0810 N.pl3   1  UNL1       -0.1810
     25  H         17.8770  -21.1070   -8.1720 H       1  UNL1        0.1460
     26  C         16.7860  -22.0650   -6.7120 C.2     1  UNL1        0.0290
     27  C         15.4880  -22.5140   -6.4490 C.2     1  UNL1        0.0250
     28  C         15.0890  -22.7850   -5.1460 C.2     1  UNL1        0.0020
     29  C         15.9840  -22.6000   -4.0970 C.2     1  UNL1        0.0070
     30  C         17.2930  -22.1480   -4.3350 C.2     1  UNL1       -0.0540
     31  C         18.2110  -21.9670   -3.1540 C.3     1  UNL1        0.0490
     32  C         17.7160  -21.8980   -5.6630 C.2     1  UNL1       -0.0340
     33  C         19.1160  -21.4140   -5.9490 C.3     1  UNL1        0.0500
@<TRIPOS>BOND
     1    18    17    1
     2    17    19    2
     3    17    16    1
     4    19    20    1
     5    16    15    2
     6    20    14    2
     7    15    14    1
     8    14    13    1
     9    13    12    1
    10    11    10    1
    11     3     4    1
    12     3     2    2
    13     4     5    2
    14     1     2    1
    15     2     7    1
    16    10    12    1
    17    10     8   am
    18     5     8    1
    19     5     6    1
    20     8     9    2
    21     7     6    2
    22     7    21    1
    23    22    21    2
    24    21    23    2
    25    21    24    1
    26    25    24    1
    27    24    26    1
    28    26    27    2
    29    26    32    1
    30    27    28    1
    31    33    32    1
    32    32    30    2
    33    28    29    2
    34    30    29    1
    35    30    31    1
