@<TRIPOS>MOLECULE
55158_out_ligand_01.pdbqt
 37 41 0 0 0
SMALL
GASTEIGER

@<TRIPOS>ATOM
      1  C         25.0960  -22.9590  -12.2960 C.2     1  UNL1        0.0860
      2  C         23.9090  -23.3400  -11.6490 C.2     1  UNL1        0.0420
      3  C         23.5020  -22.6850  -10.4860 C.2     1  UNL1        0.0330
      4  C         24.2480  -21.6120   -9.9940 C.2     1  UNL1        0.0170
      5  C         25.4120  -21.2130  -10.6540 C.2     1  UNL1        0.0090
      6  C         25.8630  -21.8830  -11.8050 C.2     1  UNL1       -0.0390
      7  C         27.1210  -21.3860  -12.4640 C.3     1  UNL1        0.0500
      8  C         22.2590  -23.1380   -9.8060 C.2     1  UNL1        0.2560
      9  O         22.1620  -24.3200   -9.5010 O.2     1  UNL1       -0.2670
     10  N         21.3480  -22.1280   -9.5530 N.am    1  UNL1       -0.3230
     11  H         21.6540  -21.1820   -9.7400 H       1  UNL1        0.1690
     12  C         20.0740  -22.2540   -8.9590 C.2     1  UNL1        0.0370
     13  C         18.8950  -22.4370   -9.6900 C.2     1  UNL1        0.0300
     14  C         17.6440  -22.5440   -9.0560 C.2     1  UNL1        0.0170
     15  C         17.5820  -22.4670   -7.6560 C.ar    1  UNL1        0.0110
     16  C         18.7700  -22.2840   -6.9580 C.ar    1  UNL1        0.0890
     17  C         16.5540  -22.5280   -6.6710 C.ar    1  UNL1        0.0110
     18  C         20.0230  -22.1680   -7.5590 C.2     1  UNL1        0.0670
     19  O         18.5350  -22.2360   -5.6180 O.2     1  UNL1       -0.3090
     20  C         17.1930  -22.3850   -5.4440 C.ar    1  UNL1        0.0870
     21  C         16.5360  -22.3960   -4.2150 C.2     1  UNL1        0.0380
     22  C         15.1480  -22.5600   -4.2500 C.2     1  UNL1        0.0030
     23  C         14.4670  -22.7040   -5.4610 C.2     1  UNL1        0.0010
     24  C         15.1560  -22.6910   -6.6820 C.2     1  UNL1        0.0150
     25  S         25.5650  -23.8950  -13.7510 S.O2    1  UNL1        0.2630
     26  O         24.8710  -25.1640  -13.7260 O.2     1  UNL1       -0.2000
     27  O         27.0080  -23.8560  -13.8660 O.2     1  UNL1       -0.2000
     28  N         24.8820  -23.0020  -15.0110 N.pl3   1  UNL1       -0.2800
     29  H         23.8930  -23.2030  -15.1400 H       1  UNL1        0.1790
     30  C         25.3670  -21.6940  -15.3080 C.2     1  UNL1        0.0480
     31  C         26.5840  -21.5430  -15.9770 C.2     1  UNL1        0.0310
     32  C         27.1080  -20.2730  -16.2230 C.2     1  UNL1        0.0090
     33  C         26.4170  -19.1330  -15.8070 C.2     1  UNL1       -0.0610
     34  C         26.9840  -17.7710  -16.0830 C.3     1  UNL1        0.0480
     35  C         25.1800  -19.2840  -15.1690 C.2     1  UNL1        0.0150
     36  C         24.6370  -20.5580  -14.9210 C.2     1  UNL1       -0.0340
     37  C         23.3130  -20.6500  -14.2170 C.3     1  UNL1        0.0500
@<TRIPOS>BOND
     1    32    31    1
     2    32    33    2
     3    34    33    1
     4    31    30    2
     5    33    35    1
     6    30    28    1
     7    30    36    1
     8    35    36    2
     9    29    28    1
    10    28    25    1
    11    36    37    1
    12    27    25    2
    13    25    26    2
    14    25     1    1
    15     7     6    1
    16     1     6    2
    17     1     2    1
    18     6     5    1
    19     2     3    2
    20     5     4    2
    21     3     4    1
    22     3     8    1
    23     8    10   am
    24     8     9    2
    25    11    10    1
    26    13    14    1
    27    13    12    2
    28    10    12    1
    29    14    15    2
    30    12    18    1
    31    15    16   ar
    32    15    17   ar
    33    18    16    2
    34    16    19   ar
    35    24    17    2
    36    24    23    1
    37    17    20   ar
    38    19    20   ar
    39    23    22    2
    40    20    21    2
    41    22    21    1
