@<TRIPOS>MOLECULE
55154_out_ligand_01.pdbqt
 36 40 0 0 0
SMALL
GASTEIGER

@<TRIPOS>ATOM
      1  C         24.5130  -22.3970  -13.2560 C.2     1  UNL1        0.1020
      2  C         23.2440  -22.0850  -12.7370 C.2     1  UNL1        0.0440
      3  C         22.9940  -22.2040  -11.3660 C.2     1  UNL1        0.0340
      4  C         24.0090  -22.6490  -10.5120 C.2     1  UNL1        0.0190
      5  C         25.2710  -22.9510  -11.0310 C.2     1  UNL1        0.0260
      6  C         25.5330  -22.8230  -12.4020 C.2     1  UNL1        0.0570
      7 CL         27.1210  -23.2510  -12.9240 Cl      1  UNL1       -0.0830
      8  C         21.6280  -21.8940  -10.8600 C.2     1  UNL1        0.2560
      9  O         21.0020  -21.0030  -11.4180 O.2     1  UNL1       -0.2670
     10  N         21.2270  -22.6480   -9.7730 N.am    1  UNL1       -0.3230
     11  H         21.9170  -23.2580   -9.3540 H       1  UNL1        0.1690
     12  C         19.9790  -22.6020   -9.1110 C.2     1  UNL1        0.0370
     13  C         18.7470  -22.6700   -9.7730 C.2     1  UNL1        0.0300
     14  C         17.5300  -22.6260   -9.0700 C.2     1  UNL1        0.0170
     15  C         17.5560  -22.5150   -7.6710 C.ar    1  UNL1        0.0110
     16  C         18.7940  -22.4540   -7.0420 C.ar    1  UNL1        0.0890
     17  C         16.5850  -22.4430   -6.6320 C.ar    1  UNL1        0.0110
     18  C         20.0170  -22.4950   -7.7130 C.2     1  UNL1        0.0670
     19  O         18.6420  -22.3500   -5.6940 O.2     1  UNL1       -0.3090
     20  C         17.3030  -22.3440   -5.4440 C.ar    1  UNL1        0.0870
     21  C         16.7190  -22.2500   -4.1820 C.2     1  UNL1        0.0380
     22  C         15.3220  -22.2590   -4.1380 C.2     1  UNL1        0.0030
     23  C         14.5620  -22.3580   -5.3070 C.2     1  UNL1        0.0010
     24  C         15.1790  -22.4510   -6.5640 C.2     1  UNL1        0.0150
     25  S         24.7740  -22.2060  -15.0000 S.O2    1  UNL1        0.2650
     26  O         24.8690  -23.5260  -15.5860 O.2     1  UNL1       -0.2000
     27  O         23.7860  -21.2720  -15.4960 O.2     1  UNL1       -0.2000
     28  N         26.2730  -21.4490  -15.1080 N.pl3   1  UNL1       -0.2800
     29  H         27.0190  -22.1190  -15.2830 H       1  UNL1        0.1790
     30  C         26.4310  -20.1060  -15.5770 C.2     1  UNL1        0.0480
     31  C         26.3520  -19.7960  -16.9400 C.2     1  UNL1        0.0300
     32  C         26.5010  -18.4830  -17.3870 C.2     1  UNL1        0.0020
     33  C         26.7020  -17.4570  -16.4730 C.2     1  UNL1        0.0010
     34  C         26.7330  -17.7420  -15.1100 C.2     1  UNL1        0.0090
     35  C         26.5810  -19.0600  -14.6440 C.2     1  UNL1       -0.0350
     36  C         26.5990  -19.2970  -13.1580 C.3     1  UNL1        0.0500
@<TRIPOS>BOND
     1    32    31    1
     2    32    33    2
     3    31    30    2
     4    33    34    1
     5    26    25    2
     6    30    28    1
     7    30    35    1
     8    27    25    2
     9    29    28    1
    10    34    35    2
    11    28    25    1
    12    25     1    1
    13    35    36    1
    14     1     2    2
    15     1     6    1
    16     7     6    1
    17     2     3    1
    18     6     5    2
    19     9     8    2
    20     3     8    1
    21     3     4    2
    22     5     4    1
    23     8    10   am
    24    10    11    1
    25    10    12    1
    26    13    12    2
    27    13    14    1
    28    12    18    1
    29    14    15    2
    30    18    16    2
    31    15    16   ar
    32    15    17   ar
    33    16    19   ar
    34    17    24    2
    35    17    20   ar
    36    24    23    1
    37    19    20   ar
    38    20    21    2
    39    23    22    2
    40    21    22    1
