@<TRIPOS>MOLECULE
55151_out_ligand_01.pdbqt
 36 39 0 0 0
SMALL
GASTEIGER

@<TRIPOS>ATOM
      1  C         17.5480  -22.9310   -9.1330 C.2     1  UNL1        0.0860
      2  C         18.9220  -22.8410   -9.4190 C.2     1  UNL1        0.0420
      3  C         19.3710  -22.0800  -10.5000 C.2     1  UNL1        0.0330
      4  C         18.4420  -21.4520  -11.3350 C.2     1  UNL1        0.0170
      5  C         17.0760  -21.5550  -11.0620 C.2     1  UNL1        0.0090
      6  C         16.6050  -22.2810   -9.9530 C.2     1  UNL1       -0.0390
      7  C         15.1180  -22.3490   -9.7360 C.3     1  UNL1        0.0500
      8  C         20.8400  -21.9870  -10.7450 C.2     1  UNL1        0.2560
      9  O         21.5870  -21.9820   -9.7750 O.2     1  UNL1       -0.2670
     10  N         21.2010  -21.8760  -12.0760 N.am    1  UNL1       -0.3230
     11  H         20.4550  -21.7810  -12.7510 H       1  UNL1        0.1690
     12  C         22.5070  -21.7970  -12.6040 C.2     1  UNL1        0.0350
     13  C         23.6230  -22.3990  -12.0210 C.2     1  UNL1        0.0300
     14  C         24.8860  -22.2780  -12.6130 C.2     1  UNL1        0.0100
     15  C         25.0570  -21.5550  -13.8000 C.2     1  UNL1       -0.0540
     16  C         23.9350  -20.9560  -14.3850 C.2     1  UNL1        0.0100
     17  C         22.6750  -21.0740  -13.7910 C.2     1  UNL1        0.0300
     18  C         26.4170  -21.4480  -14.4470 C.3     1  UNL1        0.0770
     19  C         26.6530  -20.1270  -15.1390 C.2     1  UNL1       -0.0510
     20  C         26.7310  -18.9400  -14.4050 C.2     1  UNL1        0.0260
     21  C         26.9630  -17.7520  -15.0810 C.2     1  UNL1        0.1160
     22  N         27.1210  -17.6670  -16.4190 N.2     1  UNL1       -0.2730
     23  C         27.0490  -18.8250  -17.1100 C.2     1  UNL1        0.1160
     24  C         26.8220  -20.0610  -16.5250 C.2     1  UNL1        0.0260
     25  S         17.0790  -23.9240   -7.7180 S.O2    1  UNL1        0.2630
     26  O         18.2830  -24.4770   -7.1360 O.2     1  UNL1       -0.2000
     27  O         15.9930  -24.7990   -8.1070 O.2     1  UNL1       -0.2000
     28  N         16.4140  -22.7910   -6.6620 N.pl3   1  UNL1       -0.2800
     29  H         15.7470  -22.1710   -7.1170 H       1  UNL1        0.1790
     30  C         17.1550  -22.3110   -5.5420 C.2     1  UNL1        0.0480
     31  C         18.2550  -21.4720   -5.7420 C.2     1  UNL1        0.0300
     32  C         18.9730  -20.9710   -4.6550 C.2     1  UNL1        0.0020
     33  C         18.6020  -21.3210   -3.3600 C.2     1  UNL1        0.0010
     34  C         17.5200  -22.1750   -3.1530 C.2     1  UNL1        0.0090
     35  C         16.7860  -22.6860   -4.2380 C.2     1  UNL1       -0.0350
     36  C         15.6250  -23.5980   -3.9630 C.3     1  UNL1        0.0500
@<TRIPOS>BOND
     1    23    24    1
     2    23    22    2
     3    24    19    2
     4    22    21    1
     5    19    18    1
     6    19    20    1
     7    21    20    2
     8    18    15    1
     9    16    15    2
    10    16    17    1
    11    15    14    1
    12    17    12    2
    13    11    10    1
    14    14    13    2
    15    12    10    1
    16    12    13    1
    17    10     8   am
    18     4     5    2
    19     4     3    1
    20     5     6    1
    21     8     3    1
    22     8     9    2
    23     3     2    2
    24     6     7    1
    25     6     1    2
    26     2     1    1
    27     1    25    1
    28    27    25    2
    29    25    26    2
    30    25    28    1
    31    29    28    1
    32    28    30    1
    33    31    30    2
    34    31    32    1
    35    30    35    1
    36    32    33    2
    37    35    36    1
    38    35    34    2
    39    33    34    1
