@<TRIPOS>MOLECULE
55156_out_ligand_01.pdbqt
 37 41 0 0 0
SMALL
GASTEIGER

@<TRIPOS>ATOM
      1  C         24.4260  -22.7900  -13.7700 C.2     1  UNL1        0.1020
      2  C         23.8640  -23.0950  -12.5150 C.2     1  UNL1        0.0440
      3  C         22.7680  -22.3770  -12.0280 C.2     1  UNL1        0.0340
      4  C         22.2250  -21.3450  -12.7940 C.2     1  UNL1        0.0190
      5  C         22.7970  -21.0290  -14.0300 C.2     1  UNL1        0.0260
      6  C         23.9000  -21.7420  -14.5270 C.2     1  UNL1        0.0570
      7 CL         24.4710  -21.2360  -16.0720 Cl      1  UNL1       -0.0830
      8  C         22.1760  -22.7840  -10.7240 C.2     1  UNL1        0.2560
      9  O         22.7730  -23.6330  -10.0730 O.2     1  UNL1       -0.2670
     10  N         21.0120  -22.1250  -10.3810 N.am    1  UNL1       -0.3230
     11  H         20.7230  -21.3580  -10.9740 H       1  UNL1        0.1690
     12  C         20.2160  -22.3330   -9.2330 C.2     1  UNL1        0.0370
     13  C         20.6640  -22.1030   -7.9270 C.2     1  UNL1        0.0300
     14  C         19.8370  -22.3300   -6.8120 C.2     1  UNL1        0.0170
     15  C         18.5300  -22.8000   -7.0200 C.ar    1  UNL1        0.0110
     16  C         18.1150  -23.0220   -8.3270 C.ar    1  UNL1        0.0890
     17  C         17.4200  -23.1410   -6.1930 C.ar    1  UNL1        0.0110
     18  C         18.9120  -22.8080   -9.4510 C.2     1  UNL1        0.0670
     19  O         16.8310  -23.4760   -8.3520 O.2     1  UNL1       -0.3090
     20  C         16.4100  -23.5460   -7.0590 C.ar    1  UNL1        0.0870
     21  C         15.1470  -23.9630   -6.6460 C.2     1  UNL1        0.0380
     22  C         14.9090  -23.9650   -5.2670 C.2     1  UNL1        0.0030
     23  C         15.8970  -23.5660   -4.3630 C.2     1  UNL1        0.0010
     24  C         17.1600  -23.1510   -4.8100 C.2     1  UNL1        0.0150
     25  S         25.8080  -23.7910  -14.2690 S.O2    1  UNL1        0.2650
     26  O         25.9880  -23.5650  -15.6900 O.2     1  UNL1       -0.2000
     27  O         25.6770  -25.1380  -13.7680 O.2     1  UNL1       -0.2000
     28  N         27.1210  -23.0320  -13.5290 N.pl3   1  UNL1       -0.2800
     29  H         28.0150  -23.3370  -13.9070 H       1  UNL1        0.1790
     30  C         27.0050  -21.7010  -13.0330 C.2     1  UNL1        0.0490
     31  C         26.7890  -21.4710  -11.6640 C.2     1  UNL1       -0.0350
     32  C         26.7100  -20.1470  -11.2060 C.2     1  UNL1        0.0090
     33  C         26.6480  -22.5930  -10.6710 C.3     1  UNL1        0.0500
     34  C         26.8300  -19.0730  -12.0910 C.2     1  UNL1        0.0070
     35  C         27.0350  -19.3010  -13.4530 C.2     1  UNL1       -0.0600
     36  C         27.1210  -18.1580  -14.4190 C.3     1  UNL1        0.0480
     37  C         27.1020  -20.6210  -13.9170 C.2     1  UNL1        0.0370
@<TRIPOS>BOND
     1     7     6    1
     2    26    25    2
     3     6     5    1
     4     6     1    2
     5    36    35    1
     6    25     1    1
     7    25    27    2
     8    25    28    1
     9     5     4    2
    10    37    35    1
    11    37    30    2
    12    29    28    1
    13     1     2    1
    14    28    30    1
    15    35    34    2
    16    30    31    1
    17     4     3    1
    18     2     3    2
    19    34    32    1
    20     3     8    1
    21    31    32    2
    22    31    33    1
    23    11    10    1
    24     8    10   am
    25     8     9    2
    26    10    12    1
    27    18    12    2
    28    18    16    1
    29    12    13    1
    30    19    16   ar
    31    19    20   ar
    32    16    15   ar
    33    13    14    2
    34    20    21    1
    35    20    17   ar
    36    15    14    1
    37    15    17   ar
    38    21    22    2
    39    17    24    1
    40    22    23    1
    41    24    23    2
