@<TRIPOS>MOLECULE
55164_out_ligand_01.pdbqt
 36 40 0 0 0
SMALL
GASTEIGER

@<TRIPOS>ATOM
      1  C         24.4240  -22.9370  -13.2060 C.2     1  UNL1        0.0860
      2  C         23.8200  -22.7670  -11.9470 C.2     1  UNL1        0.0420
      3  C         22.7300  -21.9090  -11.7940 C.2     1  UNL1        0.0330
      4  C         22.2360  -21.2150  -12.8990 C.2     1  UNL1        0.0170
      5  C         22.8210  -21.4010  -14.1550 C.2     1  UNL1        0.0090
      6  C         23.9190  -22.2660  -14.3340 C.2     1  UNL1       -0.0390
      7  C         24.4860  -22.4040  -15.7180 C.3     1  UNL1        0.0500
      8  C         22.1660  -21.7170  -10.4300 C.2     1  UNL1        0.2560
      9  O         22.8100  -21.0390   -9.6390 O.2     1  UNL1       -0.2670
     10  N         20.9680  -22.3640  -10.1990 N.am    1  UNL1       -0.3230
     11  H         20.6340  -22.9860  -10.9260 H       1  UNL1        0.1690
     12  C         20.1840  -22.3300   -9.0240 C.2     1  UNL1        0.0370
     13  C         20.7160  -22.1290   -7.7450 C.2     1  UNL1        0.0300
     14  C         19.8950  -22.0960   -6.6030 C.2     1  UNL1        0.0170
     15  C         18.5100  -22.2650   -6.7560 C.ar    1  UNL1        0.0110
     16  C         18.0130  -22.4600   -8.0380 C.ar    1  UNL1        0.0890
     17  C         17.3800  -22.2950   -5.8880 C.ar    1  UNL1        0.0110
     18  C         18.8020  -22.5000   -9.1880 C.2     1  UNL1        0.0670
     19  O         16.6590  -22.6060   -8.0110 O.2     1  UNL1       -0.3090
     20  C         16.2760  -22.5060   -6.7080 C.ar    1  UNL1        0.0870
     21  C         14.9650  -22.6000   -6.2450 C.2     1  UNL1        0.0380
     22  C         14.7790  -22.4690   -4.8650 C.2     1  UNL1        0.0030
     23  C         15.8610  -22.2560   -4.0070 C.2     1  UNL1        0.0010
     24  C         17.1700  -22.1660   -4.5020 C.2     1  UNL1        0.0150
     25  S         25.8410  -24.0340  -13.2400 S.O2    1  UNL1        0.2630
     26  O         25.7080  -24.9880  -14.3180 O.2     1  UNL1       -0.2000
     27  O         26.0480  -24.4840  -11.8790 O.2     1  UNL1       -0.2000
     28  N         27.1210  -22.9860  -13.5900 N.pl3   1  UNL1       -0.2810
     29  H         28.0260  -23.4470  -13.5140 H       1  UNL1        0.1790
     30  C         27.0350  -21.6250  -13.1830 C.2     1  UNL1        0.0430
     31  C         26.9220  -21.3310  -11.8240 C.2     1  UNL1        0.0300
     32  C         26.7870  -20.0080  -11.4090 C.2     1  UNL1        0.0030
     33  C         26.7700  -18.9770  -12.3490 C.2     1  UNL1        0.0070
     34  C         26.9050  -19.2600  -13.7140 C.2     1  UNL1       -0.0600
     35  C         26.8590  -18.1590  -14.7310 C.3     1  UNL1        0.0480
     36  C         27.0270  -20.5950  -14.1240 C.2     1  UNL1        0.0370
@<TRIPOS>BOND
     1     7     6    1
     2    35    34    1
     3     6     5    1
     4     6     1    2
     5    26    25    2
     6     5     4    2
     7    36    34    1
     8    36    30    2
     9    34    33    2
    10    28    29    1
    11    28    25    1
    12    28    30    1
    13    25     1    1
    14    25    27    2
    15     1     2    1
    16    30    31    1
    17     4     3    1
    18    33    32    1
    19     2     3    2
    20    31    32    2
    21     3     8    1
    22    11    10    1
    23     8    10   am
    24     8     9    2
    25    10    12    1
    26    18    12    2
    27    18    16    1
    28    12    13    1
    29    16    19   ar
    30    16    15   ar
    31    19    20   ar
    32    13    14    2
    33    15    14    1
    34    15    17   ar
    35    20    21    1
    36    20    17   ar
    37    21    22    2
    38    17    24    1
    39    22    23    1
    40    24    23    2
