@<TRIPOS>MOLECULE
55166_out_ligand_01.pdbqt
 36 39 0 0 0
SMALL
GASTEIGER

@<TRIPOS>ATOM
      1  C         19.3010  -22.2810   -6.8350 C.2     1  UNL1        0.0860
      2  C         20.2730  -22.7170   -7.7510 C.2     1  UNL1        0.0420
      3  C         21.5240  -22.0990   -7.8040 C.2     1  UNL1        0.0330
      4  C         21.8090  -21.0380   -6.9430 C.2     1  UNL1        0.0170
      5  C         20.8500  -20.6180   -6.0160 C.2     1  UNL1        0.0090
      6  C         19.5860  -21.2330   -5.9390 C.2     1  UNL1       -0.0390
      7  C         18.6180  -20.7200   -4.9090 C.3     1  UNL1        0.0500
      8  C         22.5020  -22.5640   -8.8270 C.2     1  UNL1        0.2560
      9  O         22.8100  -23.7500   -8.8210 O.2     1  UNL1       -0.2670
     10  N         22.9720  -21.5760   -9.6710 N.am    1  UNL1       -0.3230
     11  H         22.6890  -20.6260   -9.4720 H       1  UNL1        0.1690
     12  C         23.8670  -21.7270  -10.7510 C.2     1  UNL1        0.0350
     13  C         25.1920  -21.2920  -10.7350 C.2     1  UNL1        0.0300
     14  C         26.0150  -21.4790  -11.8530 C.2     1  UNL1        0.0100
     15  C         25.5300  -22.1060  -13.0070 C.2     1  UNL1       -0.0540
     16  C         24.2050  -22.5600  -13.0110 C.2     1  UNL1        0.0100
     17  C         23.3820  -22.3650  -11.8980 C.2     1  UNL1        0.0300
     18  C         26.4370  -22.3230  -14.1980 C.3     1  UNL1        0.0770
     19  C         25.7760  -22.1310  -15.5440 C.2     1  UNL1       -0.0510
     20  C         25.5530  -20.8480  -16.0530 C.2     1  UNL1        0.0260
     21  C         24.9350  -20.7190  -17.2880 C.2     1  UNL1        0.1160
     22  N         24.5260  -21.7650  -18.0380 N.2     1  UNL1       -0.2730
     23  C         24.7420  -22.9960  -17.5250 C.2     1  UNL1        0.1160
     24  C         25.3490  -23.2280  -16.3010 C.2     1  UNL1        0.0260
     25  S         17.7280  -23.1380   -6.9090 S.O2    1  UNL1        0.2630
     26  O         16.6430  -22.2110   -6.6830 O.2     1  UNL1       -0.2000
     27  O         17.8670  -24.3260   -6.0910 O.2     1  UNL1       -0.2000
     28  N         17.6680  -23.6720   -8.5140 N.pl3   1  UNL1       -0.2810
     29  H         18.2040  -24.5290   -8.6480 H       1  UNL1        0.1790
     30  C         17.6920  -22.7080   -9.5610 C.2     1  UNL1        0.0430
     31  C         16.5190  -22.0220   -9.8750 C.2     1  UNL1        0.0300
     32  C         16.5070  -21.1170  -10.9360 C.2     1  UNL1        0.0030
     33  C         17.6670  -20.8930  -11.6770 C.2     1  UNL1        0.0070
     34  C         18.8540  -21.5610  -11.3560 C.2     1  UNL1       -0.0600
     35  C         20.0940  -21.3470  -12.1720 C.3     1  UNL1        0.0480
     36  C         18.8550  -22.4790  -10.2980 C.2     1  UNL1        0.0370
@<TRIPOS>BOND
     1    22    23    2
     2    22    21    1
     3    23    24    1
     4    21    20    2
     5    24    19    2
     6    20    19    1
     7    19    18    1
     8    18    15    1
     9    16    15    2
    10    16    17    1
    11    15    14    1
    12    35    34    1
    13    17    12    2
    14    14    13    2
    15    33    34    2
    16    33    32    1
    17    34    36    1
    18    32    31    2
    19    12    13    1
    20    12    10    1
    21    36    30    2
    22    31    30    1
    23    10    11    1
    24    10     8   am
    25    30    28    1
    26     8     9    2
    27     8     3    1
    28    29    28    1
    29    28    25    1
    30     3     2    1
    31     3     4    2
    32     2     1    2
    33     4     5    1
    34    25     1    1
    35    25    26    2
    36    25    27    2
    37     1     6    1
    38     5     6    2
    39     6     7    1
