@<TRIPOS>MOLECULE
55161_out_ligand_01.pdbqt
 36 40 0 0 0
SMALL
GASTEIGER

@<TRIPOS>ATOM
      1  C         24.7320  -22.1260  -13.4530 C.2     1  UNL1        0.0860
      2  C         23.6690  -21.9690  -12.5480 C.2     1  UNL1        0.0420
      3  C         23.8080  -22.3770  -11.2220 C.2     1  UNL1        0.0330
      4  C         25.0110  -22.9360  -10.7850 C.2     1  UNL1        0.0170
      5  C         26.0680  -23.0980  -11.6850 C.2     1  UNL1        0.0090
      6  C         25.9500  -22.6970  -13.0290 C.2     1  UNL1       -0.0390
      7  C         27.1210  -22.9330  -13.9410 C.3     1  UNL1        0.0500
      8  C         22.6580  -22.1940  -10.2980 C.2     1  UNL1        0.2560
      9  O         22.6350  -21.1860   -9.6040 O.2     1  UNL1       -0.2670
     10  N         21.7040  -23.1910  -10.3800 N.am    1  UNL1       -0.3220
     11  H         21.8280  -23.8720  -11.1150 H       1  UNL1        0.1690
     12  C         20.4940  -23.2920   -9.6480 C.2     1  UNL1        0.0460
     13  C         20.3970  -24.0490   -8.4590 C.2     1  UNL1        0.0310
     14  C         19.1960  -24.1410   -7.7370 C.2     1  UNL1        0.0100
     15  C         18.0830  -23.4740   -8.2100 C.2     1  UNL1       -0.0460
     16  C         18.1750  -22.7480   -9.3690 C.2     1  UNL1       -0.0110
     17  C         16.7050  -23.4080   -7.6210 C.2     1  UNL1        0.0440
     18  C         16.9600  -22.1750   -9.6560 C.2     1  UNL1       -0.0460
     19  C         19.3370  -22.6110  -10.1400 C.2     1  UNL1        0.0020
     20  C         16.8230  -21.3910  -10.7890 C.2     1  UNL1        0.0080
     21  C         15.9280  -22.5190   -8.6240 C.2     1  UNL1        0.0440
     22  C         17.9410  -21.2010  -11.6100 C.2     1  UNL1        0.0020
     23  C         19.1810  -21.7980  -11.2970 C.2     1  UNL1        0.0140
     24  S         24.4310  -21.6380  -15.1500 S.O2    1  UNL1        0.2630
     25  O         23.4560  -20.5700  -15.1450 O.2     1  UNL1       -0.2000
     26  O         24.1820  -22.8340  -15.9240 O.2     1  UNL1       -0.2000
     27  N         25.9160  -21.0440  -15.6620 N.pl3   1  UNL1       -0.2800
     28  H         26.7010  -21.5500  -15.2600 H       1  UNL1        0.1790
     29  C         26.0960  -19.6870  -16.0620 C.2     1  UNL1        0.0480
     30  C         25.9120  -19.3040  -17.3930 C.2     1  UNL1        0.0310
     31  C         26.0840  -17.9730  -17.7810 C.2     1  UNL1        0.0090
     32  C         26.4600  -17.0050  -16.8450 C.2     1  UNL1       -0.0610
     33  C         26.6860  -15.5830  -17.2680 C.3     1  UNL1        0.0480
     34  C         26.6870  -17.3950  -15.5220 C.2     1  UNL1        0.0150
     35  C         26.5130  -18.7310  -15.1160 C.2     1  UNL1       -0.0340
     36  C         26.7690  -19.0830  -13.6760 C.3     1  UNL1        0.0500
@<TRIPOS>BOND
     1    31    30    1
     2    31    32    2
     3    30    29    2
     4    33    32    1
     5    32    34    1
     6    29    27    1
     7    29    35    1
     8    26    24    2
     9    27    28    1
    10    27    24    1
    11    34    35    2
    12    24    25    2
    13    24     1    1
    14    35    36    1
    15     7     6    1
    16     1     6    2
    17     1     2    1
    18     6     5    1
    19     2     3    2
    20     5     4    2
    21    22    23    2
    22    22    20    1
    23    23    19    1
    24     3     4    1
    25     3     8    1
    26    11    10    1
    27    20    18    2
    28    10     8   am
    29    10    12    1
    30     8     9    2
    31    19    12    2
    32    19    16    1
    33    18    16    1
    34    18    21    1
    35    12    13    1
    36    16    15    2
    37    21    17    2
    38    13    14    2
    39    15    14    1
    40    15    17    1
