@<TRIPOS>MOLECULE
55171_out_ligand_01.pdbqt
 35 39 0 0 0
SMALL
GASTEIGER

@<TRIPOS>ATOM
      1  C         22.7890  -22.2650  -11.5690 C.2     1  UNL1        0.0860
      2  C         22.0730  -22.7520  -10.4610 C.2     1  UNL1        0.0420
      3  C         20.6890  -22.5840  -10.3850 C.2     1  UNL1        0.0330
      4  C         20.0130  -21.9270  -11.4140 C.2     1  UNL1        0.0170
      5  C         20.7270  -21.4220  -12.5030 C.2     1  UNL1        0.0090
      6  C         22.1240  -21.5750  -12.6000 C.2     1  UNL1       -0.0390
      7  C         22.8120  -21.0040  -13.8080 C.3     1  UNL1        0.0500
      8  C         19.9680  -23.1720   -9.2240 C.2     1  UNL1        0.2560
      9  O         20.4840  -24.1320   -8.6650 O.2     1  UNL1       -0.2670
     10  N         18.7920  -22.5300   -8.8890 N.am    1  UNL1       -0.3220
     11  H         18.5930  -21.6720   -9.3800 H       1  UNL1        0.1690
     12  C         17.8680  -22.8810   -7.8740 C.2     1  UNL1        0.0460
     13  C         16.7820  -23.7520   -8.1110 C.2     1  UNL1        0.0310
     14  C         15.8670  -24.0870   -7.1000 C.2     1  UNL1        0.0100
     15  C         16.0370  -23.5440   -5.8420 C.2     1  UNL1       -0.0460
     16  C         17.0890  -22.6970   -5.6120 C.2     1  UNL1       -0.0110
     17  C         15.2060  -23.7470   -4.6090 C.2     1  UNL1        0.0440
     18  C         17.0690  -22.2750   -4.3060 C.2     1  UNL1       -0.0460
     19  C         18.0400  -22.3190   -6.5690 C.2     1  UNL1        0.0020
     20  C         18.0450  -21.4080   -3.8490 C.2     1  UNL1        0.0080
     21  C         15.9160  -22.8680   -3.5500 C.2     1  UNL1        0.0440
     22  C         19.0330  -20.9850   -4.7460 C.2     1  UNL1        0.0020
     23  C         19.0360  -21.4300   -6.0850 C.2     1  UNL1        0.0140
     24  S         24.5510  -22.5950  -11.5530 S.O2    1  UNL1        0.2630
     25  O         24.8350  -23.2620  -10.2990 O.2     1  UNL1       -0.2000
     26  O         25.2840  -21.4120  -11.9400 O.2     1  UNL1       -0.2000
     27  N         24.7250  -23.7660  -12.7620 N.pl3   1  UNL1       -0.2810
     28  H         23.9620  -24.4420  -12.7520 H       1  UNL1        0.1790
     29  C         25.2530  -23.3840  -14.0260 C.2     1  UNL1        0.0430
     30  C         26.5670  -22.9210  -14.0980 C.2     1  UNL1        0.0300
     31  C         27.1210  -22.5890  -15.3340 C.2     1  UNL1        0.0030
     32  C         26.3590  -22.7140  -16.4970 C.2     1  UNL1        0.0070
     33  C         25.0340  -23.1580  -16.4320 C.2     1  UNL1       -0.0600
     34  C         24.2260  -23.3220  -17.6850 C.3     1  UNL1        0.0480
     35  C         24.4900  -23.5040  -15.1870 C.2     1  UNL1        0.0370
@<TRIPOS>BOND
     1    34    33    1
     2    32    33    2
     3    32    31    1
     4    33    35    1
     5    31    30    2
     6    35    29    2
     7    30    29    1
     8    29    27    1
     9     7     6    1
    10    27    28    1
    11    27    24    1
    12     6     5    1
    13     6     1    2
    14     5     4    2
    15    26    24    2
    16     1    24    1
    17     1     2    1
    18    24    25    2
    19     4     3    1
    20     2     3    2
    21     3     8    1
    22    11    10    1
    23     8    10   am
    24     8     9    2
    25    10    12    1
    26    13    12    2
    27    13    14    1
    28    12    19    1
    29    14    15    2
    30    19    23    1
    31    19    16    2
    32    23    22    2
    33    15    16    1
    34    15    17    1
    35    16    18    1
    36    22    20    1
    37    17    21    2
    38    18    20    2
    39    18    21    1
