@<TRIPOS>MOLECULE
55173_out_ligand_01.pdbqt
 36 40 0 0 0
SMALL
GASTEIGER

@<TRIPOS>ATOM
      1  C         24.7180  -22.6560  -13.0740 C.2     1  UNL1        0.0860
      2  C         23.4830  -22.2970  -12.5070 C.2     1  UNL1        0.0420
      3  C         23.2700  -22.4300  -11.1340 C.2     1  UNL1        0.0330
      4  C         24.2910  -22.9200  -10.3170 C.2     1  UNL1        0.0170
      5  C         25.5250  -23.2590  -10.8780 C.2     1  UNL1        0.0090
      6  C         25.7640  -23.1310  -12.2600 C.2     1  UNL1       -0.0390
      7  C         27.1190  -23.5200  -12.7760 C.3     1  UNL1        0.0500
      8  C         21.9300  -22.0900  -10.5900 C.2     1  UNL1        0.2560
      9  O         21.3370  -21.1460  -11.0930 O.2     1  UNL1       -0.2670
     10  N         21.5190  -22.8800   -9.5330 N.am    1  UNL1       -0.3230
     11  H         22.1920  -23.5410   -9.1670 H       1  UNL1        0.1690
     12  C         20.2920  -22.8030   -8.8370 C.2     1  UNL1        0.0370
     13  C         19.1240  -22.9810   -9.5960 C.2     1  UNL1        0.0300
     14  C         17.8470  -22.9270   -9.0140 C.2     1  UNL1        0.0170
     15  C         17.7460  -22.6840   -7.6340 C.ar    1  UNL1        0.0110
     16  C         18.9190  -22.5100   -6.9100 C.ar    1  UNL1        0.0890
     17  C         16.6810  -22.5590   -6.6960 C.ar    1  UNL1        0.0110
     18  C         20.2010  -22.5580   -7.4630 C.2     1  UNL1        0.0670
     19  O         18.6390  -22.2860   -5.5960 O.2     1  UNL1       -0.3090
     20  C         17.2850  -22.3190   -5.4660 C.ar    1  UNL1        0.0870
     21  C         16.5860  -22.1370   -4.2740 C.2     1  UNL1        0.0380
     22  C         15.1910  -22.2060   -4.3500 C.2     1  UNL1        0.0030
     23  C         14.5450  -22.4470   -5.5660 C.2     1  UNL1        0.0010
     24  C         15.2760  -22.6240   -6.7500 C.2     1  UNL1        0.0150
     25  S         24.8370  -22.4570  -14.8500 S.O2    1  UNL1        0.2630
     26  O         24.8740  -23.7910  -15.4140 O.2     1  UNL1       -0.2000
     27  O         23.8670  -21.4900  -15.3110 O.2     1  UNL1       -0.2000
     28  N         26.3880  -21.8170  -15.0540 N.pl3   1  UNL1       -0.2810
     29  H         27.0970  -22.3650  -14.5690 H       1  UNL1        0.1790
     30  C         26.5570  -20.4050  -15.1020 C.2     1  UNL1        0.0420
     31  C         26.9250  -19.6910  -13.9660 C.2     1  UNL1        0.0300
     32  C         27.1150  -18.3090  -14.0410 C.2     1  UNL1        0.0090
     33  C         26.9490  -17.6350  -15.2570 C.2     1  UNL1       -0.0620
     34  C         27.1210  -16.1460  -15.3280 C.3     1  UNL1        0.0480
     35  C         26.5620  -18.3600  -16.3910 C.2     1  UNL1        0.0090
     36  C         26.3690  -19.7410  -16.3150 C.2     1  UNL1        0.0300
@<TRIPOS>BOND
     1    35    36    1
     2    35    33    2
     3    36    30    2
     4    26    25    2
     5    34    33    1
     6    27    25    2
     7    33    32    1
     8    30    28    1
     9    30    31    1
    10    28    25    1
    11    28    29    1
    12    25     1    1
    13    32    31    2
    14     1     2    2
    15     1     6    1
    16     7     6    1
    17     2     3    1
    18     6     5    2
    19     3     8    1
    20     3     4    2
    21     9     8    2
    22     5     4    1
    23     8    10   am
    24    13    14    1
    25    13    12    2
    26    10    11    1
    27    10    12    1
    28    14    15    2
    29    12    18    1
    30    15    16   ar
    31    15    17   ar
    32    18    16    2
    33    16    19   ar
    34    24    17    2
    35    24    23    1
    36    17    20   ar
    37    19    20   ar
    38    23    22    2
    39    20    21    2
    40    22    21    1
