@<TRIPOS>MOLECULE
55177_out_ligand_01.pdbqt
 35 39 0 0 0
SMALL
GASTEIGER

@<TRIPOS>ATOM
      1  C         22.6540  -22.3250  -11.4920 C.2     1  UNL1        0.0810
      2  C         21.9310  -22.9180  -10.4460 C.2     1  UNL1        0.0420
      3  C         20.5500  -22.7280  -10.3530 C.2     1  UNL1        0.0330
      4  C         19.8900  -21.9350  -11.2970 C.2     1  UNL1        0.0170
      5  C         20.6110  -21.3500  -12.3410 C.2     1  UNL1        0.0090
      6  C         22.0010  -21.5280  -12.4540 C.2     1  UNL1       -0.0390
      7  C         22.7090  -20.8770  -13.6100 C.3     1  UNL1        0.0500
      8  C         19.8190  -23.3510   -9.2170 C.2     1  UNL1        0.2560
      9  O         20.2800  -24.3780   -8.7370 O.2     1  UNL1       -0.2670
     10  N         18.6610  -22.6910   -8.8500 N.am    1  UNL1       -0.3220
     11  H         18.3650  -21.9350   -9.4480 H       1  UNL1        0.1690
     12  C         17.7850  -23.0040   -7.7810 C.2     1  UNL1        0.0460
     13  C         16.7170  -23.9190   -7.9250 C.2     1  UNL1        0.0310
     14  C         15.8630  -24.2330   -6.8550 C.2     1  UNL1        0.0100
     15  C         16.0790  -23.6310   -5.6320 C.2     1  UNL1       -0.0460
     16  C         17.1160  -22.7460   -5.4920 C.2     1  UNL1       -0.0110
     17  C         15.3150  -23.7990   -4.3520 C.2     1  UNL1        0.0440
     18  C         17.1500  -22.2690   -4.2040 C.2     1  UNL1       -0.0460
     19  C         18.0050  -22.3830   -6.5110 C.2     1  UNL1        0.0020
     20  C         18.1210  -21.3560   -3.8360 C.2     1  UNL1        0.0080
     21  C         16.0540  -22.8610   -3.3660 C.2     1  UNL1        0.0440
     22  C         19.0470  -20.9430   -4.8000 C.2     1  UNL1        0.0020
     23  C         18.9960  -21.4430   -6.1180 C.2     1  UNL1        0.0140
     24  S         24.4160  -22.6340  -11.5580 S.O2    1  UNL1        0.2460
     25  O         25.0450  -21.4850  -12.1750 O.2     1  UNL1       -0.2060
     26  O         24.8320  -23.1170  -10.2600 O.2     1  UNL1       -0.2060
     27  N         24.4670  -23.8910  -12.7130 N.pl3   1  UNL1       -0.1810
     28  H         23.5010  -24.1620  -12.9060 H       1  UNL1        0.1460
     29  C         25.1450  -23.5340  -13.9250 C.2     1  UNL1        0.0220
     30  C         26.4770  -23.9020  -14.1170 C.2     1  UNL1        0.0250
     31  C         27.1210  -23.5840  -15.3150 C.2     1  UNL1        0.0080
     32  C         26.4310  -22.9170  -16.3360 C.2     1  UNL1       -0.0620
     33  C         27.1200  -22.5570  -17.6190 C.3     1  UNL1        0.0480
     34  C         25.0910  -22.5630  -16.1350 C.2     1  UNL1        0.0080
     35  C         24.4470  -22.8790  -14.9380 C.2     1  UNL1        0.0250
@<TRIPOS>BOND
     1    33    32    1
     2    32    34    2
     3    32    31    1
     4    34    35    1
     5    31    30    2
     6    35    29    2
     7    30    29    1
     8    29    27    1
     9     7     6    1
    10    28    27    1
    11    27    24    1
    12     6     5    1
    13     6     1    2
    14     5     4    2
    15    25    24    2
    16    24     1    1
    17    24    26    2
    18     1     2    1
    19     4     3    1
    20     2     3    2
    21     3     8    1
    22    11    10    1
    23     8    10   am
    24     8     9    2
    25    10    12    1
    26    13    12    2
    27    13    14    1
    28    12    19    1
    29    14    15    2
    30    19    23    1
    31    19    16    2
    32    23    22    2
    33    15    16    1
    34    15    17    1
    35    16    18    1
    36    22    20    1
    37    17    21    2
    38    18    20    2
    39    18    21    1
