@<TRIPOS>MOLECULE
55186_out_ligand_01.pdbqt
 36 39 0 0 0
SMALL
GASTEIGER

@<TRIPOS>ATOM
      1  C         16.6160  -22.4280   -5.9690 C.2     1  UNL1        0.0290
      2  C         17.8580  -22.1990   -6.5660 C.2     1  UNL1        0.0420
      3  C         18.9230  -21.7180   -5.7970 C.2     1  UNL1        0.0340
      4  C         18.7380  -21.4510   -4.4370 C.2     1  UNL1        0.0170
      5  C         17.4970  -21.6890   -3.8430 C.2     1  UNL1        0.0090
      6  C         16.4220  -22.1800   -4.6010 C.2     1  UNL1       -0.0400
      7  C         15.1050  -22.4460   -3.9290 C.3     1  UNL1        0.0500
      8  C         20.2290  -21.4860   -6.4690 C.2     1  UNL1        0.2560
      9  O         20.9250  -20.5630   -6.0670 O.2     1  UNL1       -0.2670
     10  N         20.4950  -22.3430   -7.5210 N.am    1  UNL1       -0.3230
     11  H         19.7550  -22.9770   -7.7930 H       1  UNL1        0.1690
     12  C         21.6490  -22.3730   -8.3300 C.2     1  UNL1        0.0350
     13  C         22.0710  -23.6240   -8.7940 C.2     1  UNL1        0.0300
     14  C         23.2080  -23.7420   -9.5980 C.2     1  UNL1        0.0100
     15  C         23.9460  -22.6080   -9.9570 C.2     1  UNL1       -0.0540
     16  C         23.5220  -21.3570   -9.4910 C.2     1  UNL1        0.0100
     17  C         22.3850  -21.2420   -8.6830 C.2     1  UNL1        0.0300
     18  C         25.1810  -22.7320  -10.8190 C.3     1  UNL1        0.0770
     19  C         25.2170  -21.7620  -11.9750 C.2     1  UNL1       -0.0510
     20  C         24.2910  -21.8580  -13.0210 C.2     1  UNL1        0.0260
     21  C         24.3660  -20.9430  -14.0610 C.2     1  UNL1        0.1160
     22  N         25.2860  -19.9550  -14.1330 N.2     1  UNL1       -0.2730
     23  C         26.1670  -19.8760  -13.1120 C.2     1  UNL1        0.1160
     24  C         26.1730  -20.7420  -12.0270 C.2     1  UNL1        0.0260
     25  N         15.5510  -22.9860   -6.7590 N.pl3   1  UNL1       -0.1810
     26  H         15.1320  -22.2600   -7.3470 H       1  UNL1        0.1460
     27  S         16.0590  -24.2270   -7.8220 S.O2    1  UNL1        0.2450
     28  O         17.0700  -24.9800   -7.1110 O.2     1  UNL1       -0.2060
     29  O         14.9100  -24.8660   -8.4250 O.2     1  UNL1       -0.2060
     30  C         16.8620  -23.2630   -9.0780 C.2     1  UNL1        0.0740
     31  C         16.2080  -22.1670   -9.6480 C.2     1  UNL1        0.0250
     32  C         16.8560  -21.4170  -10.6310 C.2     1  UNL1        0.0080
     33  C         18.1520  -21.7590  -11.0460 C.2     1  UNL1       -0.0620
     34  C         18.8570  -20.9260  -12.0780 C.3     1  UNL1        0.0480
     35  C         18.8050  -22.8460  -10.4460 C.2     1  UNL1        0.0080
     36  C         18.1630  -23.6020   -9.4630 C.2     1  UNL1        0.0250
@<TRIPOS>BOND
     1    22    21    2
     2    22    23    1
     3    21    20    1
     4    23    24    2
     5    20    19    2
     6    34    33    1
     7    24    19    1
     8    19    18    1
     9    33    32    2
    10    33    35    1
    11    18    15    1
    12    32    31    1
    13    35    36    2
    14    15    14    2
    15    15    16    1
    16    31    30    2
    17    14    13    1
    18    16    17    2
    19    36    30    1
    20    30    27    1
    21    13    12    2
    22    17    12    1
    23    29    27    2
    24    12    10    1
    25    27    28    2
    26    27    25    1
    27    11    10    1
    28    10     8   am
    29    26    25    1
    30    25     1    1
    31     2     1    2
    32     2     3    1
    33     8     9    2
    34     8     3    1
    35     1     6    1
    36     3     4    2
    37     6     7    1
    38     6     5    2
    39     4     5    1
