@<TRIPOS>MOLECULE
55185_out_ligand_01.pdbqt
 35 39 0 0 0
SMALL
GASTEIGER

@<TRIPOS>ATOM
      1  C         22.6730  -22.5160  -11.5170 C.2     1  UNL1        0.0290
      2  C         21.9570  -21.6820  -12.3880 C.2     1  UNL1        0.0250
      3  C         20.6200  -21.3760  -12.1480 C.2     1  UNL1        0.0030
      4  C         19.9800  -21.9230  -11.0420 C.2     1  UNL1        0.0180
      5  C         20.6850  -22.7700  -10.1750 C.2     1  UNL1        0.0400
      6  C         22.0570  -23.0510  -10.3700 C.2     1  UNL1       -0.0240
      7  C         22.8090  -23.9110   -9.3880 C.3     1  UNL1        0.0510
      8  C         19.9030  -23.3620   -9.0600 C.2     1  UNL1        0.2560
      9  O         20.3280  -24.3800   -8.5320 O.2     1  UNL1       -0.2670
     10  N         18.7830  -22.6260   -8.7280 N.am    1  UNL1       -0.3220
     11  H         18.6560  -21.7590   -9.2310 H       1  UNL1        0.1690
     12  C         17.8100  -22.9190   -7.7430 C.2     1  UNL1        0.0460
     13  C         16.6960  -23.7440   -8.0080 C.2     1  UNL1        0.0310
     14  C         15.7310  -24.0230   -7.0250 C.2     1  UNL1        0.0100
     15  C         15.8810  -23.4690   -5.7700 C.2     1  UNL1       -0.0460
     16  C         16.9600  -22.6650   -5.5140 C.2     1  UNL1       -0.0110
     17  C         15.0000  -23.6190   -4.5640 C.2     1  UNL1        0.0440
     18  C         16.9130  -22.2210   -4.2150 C.2     1  UNL1       -0.0460
     19  C         17.9610  -22.3470   -6.4410 C.2     1  UNL1        0.0020
     20  C         17.9110  -21.3920   -3.7380 C.2     1  UNL1        0.0080
     21  C         15.7040  -22.7460   -3.4960 C.2     1  UNL1        0.0440
     22  C         18.9480  -21.0290   -4.6050 C.2     1  UNL1        0.0020
     23  C         18.9800  -21.4950   -5.9350 C.2     1  UNL1        0.0140
     24  N         24.0510  -22.7760  -11.8390 N.pl3   1  UNL1       -0.1810
     25  H         24.3180  -23.7410  -11.6470 H       1  UNL1        0.1460
     26  S         25.1860  -21.7730  -11.0460 S.O2    1  UNL1        0.2450
     27  O         24.5280  -20.9310  -10.0710 O.2     1  UNL1       -0.2060
     28  O         26.3120  -22.6180  -10.7030 O.2     1  UNL1       -0.2060
     29  C         25.6730  -20.7280  -12.4000 C.2     1  UNL1        0.0740
     30  C         26.5110  -19.6380  -12.1450 C.2     1  UNL1        0.0250
     31  C         26.9070  -18.8140  -13.2010 C.2     1  UNL1        0.0080
     32  C         26.4820  -19.0850  -14.5100 C.2     1  UNL1       -0.0620
     33  C         26.8910  -18.1790  -15.6380 C.3     1  UNL1        0.0480
     34  C         25.6380  -20.1790  -14.7490 C.2     1  UNL1        0.0080
     35  C         25.2370  -21.0080  -13.6980 C.2     1  UNL1        0.0250
@<TRIPOS>BOND
     1    33    32    1
     2    34    32    2
     3    34    35    1
     4    32    31    1
     5    35    29    2
     6    31    30    2
     7    29    30    1
     8    29    26    1
     9     2     3    1
    10     2     1    2
    11     3     4    2
    12    24    25    1
    13    24     1    1
    14    24    26    1
    15     1     6    1
    16    26    28    2
    17    26    27    2
    18     4     5    1
    19     6     5    2
    20     6     7    1
    21     5     8    1
    22    11    10    1
    23     8    10   am
    24     8     9    2
    25    10    12    1
    26    13    12    2
    27    13    14    1
    28    12    19    1
    29    14    15    2
    30    19    23    1
    31    19    16    2
    32    23    22    2
    33    15    16    1
    34    15    17    1
    35    16    18    1
    36    22    20    1
    37    17    21    2
    38    18    20    2
    39    18    21    1
