@<TRIPOS>MOLECULE
55200_out_ligand_01.pdbqt
 37 41 0 0 0
SMALL
GASTEIGER

@<TRIPOS>ATOM
      1  C         22.4150  -21.5000  -12.7150 C.2     1  UNL1       -0.0390
      2  C         23.0490  -22.2810  -11.7390 C.2     1  UNL1        0.0100
      3  C         22.3180  -22.8420  -10.6850 C.2     1  UNL1        0.0170
      4  C         20.9410  -22.6100  -10.5790 C.2     1  UNL1        0.0320
      5  C         20.3060  -21.8270  -11.5560 C.2     1  UNL1        0.0170
      6  C         21.0350  -21.2800  -12.6150 C.2     1  UNL1        0.0100
      7  C         20.0980  -23.1990   -9.4910 C.2     1  UNL1        0.2560
      8  O         20.5280  -24.1930   -8.9140 O.2     1  UNL1       -0.2670
      9  N         18.8910  -22.5630   -9.2490 N.am    1  UNL1       -0.3220
     10  H         18.6360  -21.8110   -9.8680 H       1  UNL1        0.1690
     11  C         17.9270  -22.8720   -8.2540 C.2     1  UNL1        0.0460
     12  C         16.8020  -23.6840   -8.5180 C.2     1  UNL1        0.0310
     13  C         15.8550  -23.9810   -7.5250 C.2     1  UNL1        0.0100
     14  C         16.0370  -23.4700   -6.2560 C.2     1  UNL1       -0.0460
     15  C         17.1330  -22.6900   -5.9960 C.2     1  UNL1       -0.0110
     16  C         15.1730  -23.6380   -5.0410 C.2     1  UNL1        0.0440
     17  C         17.1260  -22.3040   -4.6780 C.2     1  UNL1       -0.0460
     18  C         18.1140  -22.3460   -6.9350 C.2     1  UNL1        0.0020
     19  C         18.1480  -21.5100   -4.1900 C.2     1  UNL1        0.0080
     20  C         15.9450  -22.8670   -3.9420 C.2     1  UNL1        0.0440
     21  C         19.1650  -21.1190   -5.0680 C.2     1  UNL1        0.0020
     22  C         19.1550  -21.5270   -6.4190 C.2     1  UNL1        0.0140
     23  C         23.2030  -20.9240  -13.8680 C.3     1  UNL1        0.1800
     24  N         24.2540  -21.8110  -14.3890 N.pl3   1  UNL1       -0.2710
     25  C         25.2650  -22.2830  -13.4910 C.2     1  UNL1        0.0510
     26  C         25.3190  -23.6650  -13.2660 C.2     1  UNL1        0.0310
     27  C         26.2470  -24.2010  -12.3750 C.2     1  UNL1        0.0020
     28  C         27.1190  -23.3560  -11.6980 C.2     1  UNL1        0.0010
     29  C         27.0690  -21.9780  -11.9160 C.2     1  UNL1        0.0100
     30  C         26.1500  -21.4130  -12.8240 C.2     1  UNL1       -0.0270
     31  C         26.1370  -19.9060  -13.0440 C.3     1  UNL1        0.0130
     32  C         26.6710  -19.1720  -11.8120 C.3     1  UNL1        0.0150
     33  C         26.9120  -19.4870  -14.2990 C.3     1  UNL1        0.0150
     34  S         24.5170  -21.9340  -16.0470 S.O2    1  UNL1        0.2290
     35  C         26.1580  -22.6240  -16.0910 C.3     1  UNL1        0.1860
     36  O         24.5990  -20.6130  -16.6360 O.2     1  UNL1       -0.2060
     37  O         23.6210  -22.9320  -16.5990 O.2     1  UNL1       -0.2060
@<TRIPOS>BOND
     1    36    34    2
     2    37    34    2
     3    35    34    1
     4    34    24    1
     5    24    23    1
     6    24    25    1
     7    33    31    1
     8    23     1    1
     9    25    26    2
    10    25    30    1
    11    26    27    1
    12    31    30    1
    13    31    32    1
    14    30    29    2
    15     1     6    2
    16     1     2    1
    17     6     5    1
    18    27    28    2
    19    29    28    1
    20     2     3    2
    21     5     4    2
    22     3     4    1
    23     4     7    1
    24    10     9    1
    25     7     9   am
    26     7     8    2
    27     9    11    1
    28    12    11    2
    29    12    13    1
    30    11    18    1
    31    13    14    2
    32    18    22    1
    33    18    15    2
    34    22    21    2
    35    14    15    1
    36    14    16    1
    37    15    17    1
    38    21    19    1
    39    16    20    2
    40    17    19    2
    41    17    20    1
