@<TRIPOS>MOLECULE
55209_out_ligand_01.pdbqt
 38 42 0 0 0
SMALL
GASTEIGER

@<TRIPOS>ATOM
      1  C         24.3360  -23.1920  -12.7510 C.2     1  UNL1        0.0340
      2  C         23.6660  -22.1330  -13.3870 C.2     1  UNL1        0.0310
      3  C         23.8780  -21.8640  -14.7410 C.2     1  UNL1        0.0270
      4  C         24.7700  -22.6550  -15.4650 C.2     1  UNL1        0.0800
      5  C         25.4240  -23.7270  -14.8550 C.2     1  UNL1        0.0270
      6  C         25.2080  -23.9880  -13.4980 C.2     1  UNL1        0.0310
      7  N         24.0800  -23.3750  -11.3780 N.am    1  UNL1       -0.3270
      8  C         23.1460  -22.7190  -10.5920 C.2     1  UNL1        0.2260
      9  O         22.3870  -21.8240  -10.9560 O.2     1  UNL1       -0.2730
     10  H         24.5910  -24.1270  -10.9290 H       1  UNL1        0.1690
     11  C         23.1490  -23.1920   -9.1430 C.3     1  UNL1        0.1410
     12  C         21.7760  -23.1960   -8.5100 C.2     1  UNL1       -0.0490
     13  C         21.3720  -22.1320   -7.6960 C.2     1  UNL1        0.0080
     14  C         20.0950  -22.1190   -7.1270 C.2     1  UNL1        0.0130
     15  C         19.1930  -23.1710   -7.3520 C.2     1  UNL1       -0.0260
     16  C         19.6120  -24.2380   -8.1610 C.2     1  UNL1        0.0130
     17  C         20.8890  -24.2540   -8.7300 C.2     1  UNL1        0.0080
     18  C         17.8470  -23.1540   -6.7560 C.2     1  UNL1       -0.0260
     19  C         16.7900  -22.4670   -7.3770 C.2     1  UNL1        0.0120
     20  C         15.5090  -22.4550   -6.8170 C.2     1  UNL1        0.0010
     21  C         15.2660  -23.1280   -5.6220 C.2     1  UNL1        0.0000
     22  C         16.3000  -23.8090   -4.9860 C.2     1  UNL1        0.0010
     23  C         17.5800  -23.8220   -5.5490 C.2     1  UNL1        0.0120
     24  S         25.0550  -22.3000  -17.1800 S.O2    1  UNL1        0.2630
     25  O         25.0440  -23.5380  -17.9260 O.2     1  UNL1       -0.2000
     26  O         24.1750  -21.2080  -17.5410 O.2     1  UNL1       -0.2000
     27  N         26.6130  -21.6500  -17.1660 N.pl3   1  UNL1       -0.2800
     28  H         27.2650  -22.2530  -16.6670 H       1  UNL1        0.1790
     29  C         26.7570  -20.2390  -16.9890 C.2     1  UNL1        0.0530
     30  C         26.7740  -19.4450  -18.1400 C.2     1  UNL1        0.0310
     31  C         26.9050  -18.0660  -18.0350 C.2     1  UNL1        0.0030
     32  C         27.0210  -17.4740  -16.7780 C.2     1  UNL1        0.0120
     33  C         27.0020  -18.2510  -15.6090 C.2     1  UNL1       -0.0240
     34  C         27.1210  -17.6400  -14.3480 C.2     1  UNL1        0.0120
     35  C         26.8600  -19.6580  -15.7000 C.2     1  UNL1        0.0010
     36  C         27.0960  -18.3960  -13.1780 C.2     1  UNL1        0.0010
     37  C         26.9470  -19.7750  -13.2510 C.2     1  UNL1        0.0010
     38  C         26.8290  -20.4000  -14.4950 C.2     1  UNL1        0.0140
@<TRIPOS>BOND
     1    30    31    1
     2    30    29    2
     3    31    32    2
     4    25    24    2
     5    26    24    2
     6    24    27    1
     7    24     4    1
     8    27    29    1
     9    27    28    1
    10    29    35    1
    11    32    33    1
    12    35    33    2
    13    35    38    1
    14    33    34    1
    15     4     5    2
    16     4     3    1
    17     5     6    1
    18     3     2    2
    19    38    37    2
    20    34    36    2
    21     6     1    2
    22     2     1    1
    23    37    36    1
    24     1     7    1
    25     7    10    1
    26     7     8   am
    27     9     8    2
    28     8    11    1
    29    11    12    1
    30    17    12    2
    31    17    16    1
    32    12    13    1
    33    16    15    2
    34    13    14    2
    35    19    20    1
    36    19    18    2
    37    15    14    1
    38    15    18    1
    39    20    21    2
    40    18    23    1
    41    21    22    1
    42    23    22    2
