@<TRIPOS>MOLECULE
55210_out_ligand_01.pdbqt
 35 38 0 0 0
SMALL
GASTEIGER

@<TRIPOS>ATOM
      1  C         24.7640  -22.2100  -15.1270 C.2     1  UNL1        0.0800
      2  C         25.2950  -23.3390  -14.5020 C.2     1  UNL1        0.0270
      3  C         24.8980  -23.6550  -13.2000 C.2     1  UNL1        0.0310
      4  C         23.9820  -22.8460  -12.5120 C.2     1  UNL1        0.0340
      5  C         23.4700  -21.7120  -13.1470 C.2     1  UNL1        0.0310
      6  C         23.8630  -21.3860  -14.4500 C.2     1  UNL1        0.0270
      7  N         23.6360  -23.2440  -11.2050 N.am    1  UNL1       -0.3270
      8  C         22.4110  -23.1150  -10.5730 C.2     1  UNL1        0.2260
      9  O         21.3890  -22.6540  -11.0760 O.2     1  UNL1       -0.2730
     10  H         24.3910  -23.6280  -10.6500 H       1  UNL1        0.1690
     11  C         22.3630  -23.6830   -9.1570 C.3     1  UNL1        0.1410
     12  C         21.0820  -23.4320   -8.3950 C.2     1  UNL1       -0.0490
     13  C         20.0320  -24.3550   -8.4470 C.2     1  UNL1        0.0080
     14  C         18.8540  -24.1280   -7.7270 C.2     1  UNL1        0.0130
     15  C         18.6930  -22.9770   -6.9390 C.2     1  UNL1       -0.0260
     16  C         19.7520  -22.0570   -6.8990 C.2     1  UNL1        0.0130
     17  C         20.9310  -22.2770   -7.6190 C.2     1  UNL1        0.0080
     18  C         17.4520  -22.7410   -6.1850 C.2     1  UNL1       -0.0260
     19  C         17.4730  -22.5560   -4.7920 C.2     1  UNL1        0.0120
     20  C         16.2950  -22.3290   -4.0760 C.2     1  UNL1        0.0010
     21  C         15.0720  -22.2830   -4.7390 C.2     1  UNL1        0.0000
     22  C         15.0280  -22.4660   -6.1190 C.2     1  UNL1        0.0010
     23  C         16.2060  -22.6920   -6.8340 C.2     1  UNL1        0.0120
     24  S         25.2760  -21.8020  -16.7760 S.O2    1  UNL1        0.2630
     25  O         24.3090  -20.8580  -17.2980 O.2     1  UNL1       -0.2000
     26  O         25.5840  -23.0210  -17.4890 O.2     1  UNL1       -0.2000
     27  N         26.6910  -20.9120  -16.5170 N.pl3   1  UNL1       -0.2800
     28  H         27.2220  -21.2990  -15.7390 H       1  UNL1        0.1790
     29  C         26.6220  -19.4910  -16.6200 C.2     1  UNL1        0.0480
     30  C         26.4910  -18.9210  -17.8890 C.2     1  UNL1        0.0300
     31  C         26.3760  -17.5390  -18.0290 C.2     1  UNL1        0.0020
     32  C         26.3880  -16.7250  -16.9010 C.2     1  UNL1        0.0010
     33  C         26.5140  -17.2920  -15.6310 C.2     1  UNL1        0.0090
     34  C         26.6350  -18.6820  -15.4740 C.2     1  UNL1       -0.0350
     35  C         26.7460  -19.2580  -14.0900 C.3     1  UNL1        0.0500
@<TRIPOS>BOND
     1    31    30    1
     2    31    32    2
     3    30    29    2
     4    26    24    2
     5    25    24    2
     6    32    33    1
     7    24    27    1
     8    24     1    1
     9    29    27    1
    10    29    34    1
    11    27    28    1
    12    33    34    2
    13    34    35    1
    14     1     2    2
    15     1     6    1
    16     2     3    1
    17     6     5    2
    18     3     4    2
    19     5     4    1
    20     4     7    1
    21     7    10    1
    22     7     8   am
    23     9     8    2
    24     8    11    1
    25    11    12    1
    26    13    12    2
    27    13    14    1
    28    12    17    1
    29    14    15    2
    30    17    16    2
    31    15    16    1
    32    15    18    1
    33    23    18    2
    34    23    22    1
    35    18    19    1
    36    22    21    2
    37    19    20    2
    38    21    20    1
