@<TRIPOS>MOLECULE
55227_out_ligand_01.pdbqt
 33 37 0 0 0
SMALL
GASTEIGER

@<TRIPOS>ATOM
      1  S         22.8880  -23.1220   -9.0630 S.O2    1  UNL1        0.2720
      2  O         23.8480  -24.0350   -8.4790 O.2     1  UNL1       -0.2030
      3  O         22.2060  -22.1400   -8.2410 O.2     1  UNL1       -0.2030
      4  C         23.7560  -22.2000  -10.2960 C.ar    1  UNL1        0.2330
      5  N         24.4490  -21.0940  -10.1060 N.ar    1  UNL1       -0.1270
      6  N         25.0490  -20.6760  -11.2800 N.ar    1  UNL1       -0.1220
      7  C         24.8010  -21.4920  -12.2820 C.ar    1  UNL1        0.1970
      8  S         23.7780  -22.7970  -11.8940 S.2     1  UNL1       -0.0150
      9  N         25.3220  -21.2860  -13.5350 N.am    1  UNL1       -0.3000
     10  C         24.6280  -20.9600  -14.6750 C.2     1  UNL1        0.2590
     11  O         23.4120  -20.8470  -14.7840 O.2     1  UNL1       -0.2670
     12  H         26.3280  -21.4020  -13.5720 H       1  UNL1        0.1710
     13  C         25.4500  -20.8130  -15.9100 C.2     1  UNL1        0.0540
     14  C         26.2870  -19.6840  -15.9720 C.2     1  UNL1        0.0190
     15  C         27.0910  -19.4520  -17.0890 C.2     1  UNL1        0.0010
     16  C         27.0770  -20.3490  -18.1530 C.2     1  UNL1        0.0020
     17  C         26.2630  -21.4820  -18.0970 C.2     1  UNL1        0.0250
     18  C         25.4540  -21.7210  -16.9790 C.2     1  UNL1        0.0490
     19 CL         24.5260  -23.1800  -16.9900 Cl      1  UNL1       -0.0830
     20  N         21.6510  -24.0280   -9.8050 N.pl3   1  UNL1       -0.1790
     21  H         21.8960  -25.0160   -9.8260 H       1  UNL1        0.1460
     22  C         20.3050  -23.7160   -9.4250 C.2     1  UNL1        0.0340
     23  C         19.7380  -24.3660   -8.3100 C.2     1  UNL1        0.0260
     24  C         18.4050  -24.1370   -7.9360 C.2     1  UNL1        0.0100
     25  C         17.6480  -23.2550   -8.6870 C.2     1  UNL1       -0.0460
     26  C         18.2150  -22.6250   -9.7650 C.2     1  UNL1       -0.0110
     27  C         16.2160  -22.8500   -8.5020 C.2     1  UNL1        0.0440
     28  C         17.2960  -21.8030  -10.3660 C.2     1  UNL1       -0.0460
     29  C         19.5350  -22.7990  -10.1920 C.2     1  UNL1       -0.0030
     30  C         17.6610  -21.0700  -11.4820 C.2     1  UNL1        0.0080
     31  C         15.9720  -21.8510   -9.6610 C.2     1  UNL1        0.0440
     32  C         18.9710  -21.1890  -11.9630 C.2     1  UNL1        0.0020
     33  C         19.9030  -22.0380  -11.3300 C.2     1  UNL1        0.0140
@<TRIPOS>BOND
     1    16    17    2
     2    16    15    1
     3    17    18    1
     4    15    14    2
     5    19    18    1
     6    18    13    2
     7    14    13    1
     8    13    10    1
     9    11    10    2
    10    10     9   am
    11    12     9    1
    12     9     7    1
    13     7     8   ar
    14     7     6   ar
    15    32    30    1
    16    32    33    2
    17     8     4   ar
    18    30    28    2
    19    33    29    1
    20     6     5   ar
    21    28    26    1
    22    28    31    1
    23     4     5   ar
    24     4     1    1
    25    29    26    1
    26    29    22    2
    27    21    20    1
    28    20    22    1
    29    20     1    1
    30    26    25    2
    31    31    27    2
    32    22    23    1
    33     1     2    2
    34     1     3    2
    35    25    27    1
    36    25    24    1
    37    23    24    2
