@<TRIPOS>MOLECULE
55234_out_ligand_01.pdbqt
 37 40 0 0 0
SMALL
GASTEIGER

@<TRIPOS>ATOM
      1  C         18.2070  -23.2600   -8.8930 C.2     1  UNL1        0.0800
      2  C         19.0250  -24.0320   -8.0630 C.2     1  UNL1        0.0270
      3  C         20.3490  -24.2670   -8.4340 C.2     1  UNL1        0.0260
      4  C         20.8540  -23.7100   -9.6110 C.2     1  UNL1        0.0220
      5  C         20.0400  -22.9220  -10.4290 C.2     1  UNL1        0.0260
      6  C         18.7150  -22.6800  -10.0610 C.2     1  UNL1        0.0270
      7  N         22.1820  -24.0510  -10.0260 N.pl3   1  UNL1       -0.1810
      8  H         22.5340  -24.8460   -9.4860 H       1  UNL1        0.1460
      9  S         23.3080  -22.7820   -9.8030 S.O2    1  UNL1        0.2450
     10  O         22.6310  -21.5800   -9.3680 O.2     1  UNL1       -0.2060
     11  O         24.4150  -23.3540   -9.0650 O.2     1  UNL1       -0.2060
     12  C         23.8350  -22.5120  -11.4750 C.2     1  UNL1        0.0750
     13  C         25.0900  -22.9640  -11.8740 C.2     1  UNL1        0.0270
     14  C         25.5110  -22.7700  -13.1970 C.2     1  UNL1        0.0320
     15  C         24.6950  -22.1290  -14.1490 C.2     1  UNL1        0.0450
     16  C         23.4320  -21.6900  -13.7080 C.2     1  UNL1        0.0320
     17  C         23.0000  -21.8770  -12.3870 C.2     1  UNL1        0.0270
     18  N         25.1280  -21.9450  -15.5040 N.am    1  UNL1       -0.2520
     19  C         25.6320  -20.7660  -16.0130 C.2     1  UNL1        0.2310
     20  O         25.7100  -19.6610  -15.4910 O.2     1  UNL1       -0.2730
     21  C         26.1260  -21.0040  -17.4070 C.3     1  UNL1        0.1130
     22  C         25.5130  -22.3240  -17.7890 C.3     1  UNL1        0.1130
     23  C         25.0910  -22.9200  -16.4800 C.2     1  UNL1        0.2310
     24  O         24.7690  -24.0970  -16.3970 O.2     1  UNL1       -0.2730
     25  S         16.5010  -23.0040   -8.4530 S.O2    1  UNL1        0.2630
     26  O         15.9010  -22.2030   -9.5010 O.2     1  UNL1       -0.2000
     27  O         15.9420  -24.2870   -8.0840 O.2     1  UNL1       -0.2000
     28  N         16.5970  -22.0010   -7.0980 N.pl3   1  UNL1       -0.2800
     29  H         17.3060  -21.2790   -7.2020 H       1  UNL1        0.1790
     30  C         16.3800  -22.5490   -5.7970 C.2     1  UNL1        0.0490
     31  C         15.1370  -22.4110   -5.1570 C.2     1  UNL1       -0.0350
     32  C         15.0010  -22.8940   -3.8470 C.2     1  UNL1        0.0090
     33  C         13.9630  -21.7320   -5.8060 C.3     1  UNL1        0.0500
     34  C         16.0660  -23.5250   -3.1990 C.2     1  UNL1        0.0070
     35  C         17.2870  -23.6960   -3.8510 C.2     1  UNL1       -0.0600
     36  C         18.4430  -24.3500   -3.1530 C.3     1  UNL1        0.0480
     37  C         17.4390  -23.1920   -5.1480 C.2     1  UNL1        0.0370
@<TRIPOS>BOND
     1    22    21    1
     2    22    23    1
     3    21    19    1
     4    23    24    2
     5    23    18   am
     6    19    18   am
     7    19    20    2
     8    18    15    1
     9    15    16    2
    10    15    14    1
    11    16    17    1
    12    14    13    2
    13    17    12    2
    14    13    12    1
    15    12     9    1
    16     5     6    1
    17     5     4    2
    18     6     1    2
    19     7     9    1
    20     7     4    1
    21     7     8    1
    22     9    10    2
    23     9    11    2
    24     4     3    1
    25    26    25    2
    26     1    25    1
    27     1     2    1
    28    25    27    2
    29    25    28    1
    30     3     2    2
    31    29    28    1
    32    28    30    1
    33    33    31    1
    34    30    31    2
    35    30    37    1
    36    31    32    1
    37    37    35    2
    38    35    34    1
    39    35    36    1
    40    32    34    2
