@<TRIPOS>MOLECULE
5524_out_ligand_01.pdbqt
 37 40 0 0 0
SMALL
GASTEIGER

@<TRIPOS>ATOM
      1  C         20.6550  -21.9160  -10.4000 C.2     1  UNL1        0.1020
      2  C         19.3090  -22.1480  -10.7000 C.2     1  UNL1        0.0520
      3  C         18.5520  -22.9950   -9.8840 C.2     1  UNL1       -0.0140
      4  C         19.1370  -23.6490   -8.8000 C.2     1  UNL1        0.0160
      5  C         20.4780  -23.4200   -8.4940 C.2     1  UNL1        0.0400
      6  C         21.2350  -22.5410   -9.2790 C.2     1  UNL1        0.1020
      7  C         17.1440  -23.2410  -10.2500 C.2     1  UNL1        0.1500
      8  N         16.0980  -23.2890   -9.4810 N.2     1  UNL1       -0.1830
      9  N         16.2220  -22.9410   -8.1720 N.am    1  UNL1       -0.2430
     10  C         16.2260  -23.9170   -7.1860 C.2     1  UNL1        0.2720
     11  O         16.2440  -25.1300   -7.3530 O.2     1  UNL1       -0.2660
     12  H         16.1910  -21.9600   -7.9100 H       1  UNL1        0.1920
     13  C         16.2840  -23.3700   -5.8110 C.2     1  UNL1        0.0440
     14  C         15.2980  -23.8270   -4.9240 C.2     1  UNL1        0.0180
     15  C         15.3230  -23.4220   -3.5960 C.2     1  UNL1        0.0020
     16  C         16.3280  -22.5610   -3.1530 C.2     1  UNL1        0.0120
     17  C         17.3100  -22.0740   -4.0340 C.2     1  UNL1       -0.0250
     18  C         18.3020  -21.1910   -3.5700 C.2     1  UNL1        0.0120
     19  C         17.2970  -22.4650   -5.3950 C.2     1  UNL1       -0.0100
     20  C         19.2690  -20.6780   -4.4330 C.2     1  UNL1        0.0010
     21  C         19.2550  -21.0320   -5.7750 C.2     1  UNL1        0.0010
     22  C         18.2790  -21.9110   -6.2530 C.2     1  UNL1        0.0130
     23  O         21.4870  -21.1020  -11.1280 O.2     1  UNL1       -0.3530
     24  C         21.1790  -20.8970  -12.5000 C.3     1  UNL1        0.2100
     25  O         22.5680  -22.2950   -9.0540 O.2     1  UNL1       -0.3390
     26  C         23.4620  -23.3660   -9.3430 C.3     1  UNL1        0.2780
     27  C         24.4210  -23.0730  -10.5010 C.2     1  UNL1        0.2460
     28  O         25.5490  -22.6410  -10.2840 O.2     1  UNL1       -0.2710
     29  N         23.8570  -23.3410  -11.7360 N.am    1  UNL1       -0.3250
     30  H         22.9150  -23.7200  -11.7060 H       1  UNL1        0.1690
     31  C         24.4490  -23.2160  -13.0070 C.2     1  UNL1        0.0340
     32  C         24.3330  -21.9770  -13.6480 C.2     1  UNL1        0.0300
     33  C         24.8850  -21.7740  -14.9180 C.2     1  UNL1        0.0090
     34  C         25.5760  -22.8050  -15.5610 C.2     1  UNL1       -0.0620
     35  C         26.1500  -22.6070  -16.9320 C.3     1  UNL1        0.0480
     36  C         25.6840  -24.0450  -14.9250 C.2     1  UNL1        0.0090
     37  C         25.1290  -24.2470  -13.6550 C.2     1  UNL1        0.0300
@<TRIPOS>BOND
     1    35    34    1
     2    34    36    2
     3    34    33    1
     4    36    37    1
     5    33    32    2
     6    37    31    2
     7    32    31    1
     8    31    29    1
     9    24    23    1
    10    29    30    1
    11    29    27   am
    12    23     1    1
    13     2     1    2
    14     2     3    1
    15    27    28    2
    16    27    26    1
    17     1     6    1
    18     7     3    1
    19     7     8    2
    20     3     4    2
    21     8     9    1
    22    26    25    1
    23     6    25    1
    24     6     5    2
    25     4     5    1
    26     9    12    1
    27     9    10   am
    28    11    10    2
    29    10    13    1
    30    22    21    2
    31    22    19    1
    32    13    19    2
    33    13    14    1
    34    21    20    1
    35    19    17    1
    36    14    15    2
    37    20    18    2
    38    17    18    1
    39    17    16    2
    40    15    16    1
