@<TRIPOS>MOLECULE
55259_out_ligand_01.pdbqt
 33 37 0 0 0
SMALL
GASTEIGER

@<TRIPOS>ATOM
      1  S         22.9490  -23.1240   -9.0750 S.O2    1  UNL1        0.2720
      2  O         23.9200  -24.0330   -8.5010 O.2     1  UNL1       -0.2030
      3  O         22.2660  -22.1510   -8.2430 O.2     1  UNL1       -0.2030
      4  C         23.8000  -22.1930  -10.3130 C.ar    1  UNL1        0.2330
      5  N         24.5210  -21.1070  -10.1200 N.ar    1  UNL1       -0.1270
      6  N         25.1080  -20.6820  -11.2970 N.ar    1  UNL1       -0.1220
      7  C         24.8280  -21.4790  -12.3050 C.ar    1  UNL1        0.1970
      8  S         23.7780  -22.7640  -11.9200 S.2     1  UNL1       -0.0150
      9  N         25.3260  -21.2660  -13.5650 N.am    1  UNL1       -0.3000
     10  C         24.6170  -20.8630  -14.6710 C.2     1  UNL1        0.2580
     11  O         23.4110  -20.6820  -14.7640 O.2     1  UNL1       -0.2670
     12  H         26.3050  -21.5010  -13.6610 H       1  UNL1        0.1710
     13  C         25.4510  -20.7060  -15.8910 C.2     1  UNL1        0.0380
     14  C         26.1730  -19.5080  -16.0090 C.2     1  UNL1        0.0170
     15  C         26.9500  -19.2660  -17.1390 C.2     1  UNL1        0.0010
     16  C         27.0110  -20.2210  -18.1530 C.2     1  UNL1        0.0010
     17  C         26.3120  -21.4250  -18.0300 C.2     1  UNL1        0.0070
     18  C         25.5390  -21.6950  -16.8900 C.2     1  UNL1       -0.0460
     19  C         24.8420  -23.0230  -16.7860 C.3     1  UNL1        0.0490
     20  N         21.7120  -24.0360   -9.8140 N.pl3   1  UNL1       -0.1790
     21  H         21.9530  -25.0240   -9.8200 H       1  UNL1        0.1460
     22  C         20.3680  -23.7150   -9.4370 C.2     1  UNL1        0.0340
     23  C         19.7870  -24.3760   -8.3350 C.2     1  UNL1        0.0260
     24  C         18.4530  -24.1440   -7.9700 C.2     1  UNL1        0.0100
     25  C         17.7090  -23.2480   -8.7150 C.2     1  UNL1       -0.0460
     26  C         18.2870  -22.6080   -9.7800 C.2     1  UNL1       -0.0110
     27  C         16.2740  -22.8460   -8.5430 C.2     1  UNL1        0.0440
     28  C         17.3790  -21.7680  -10.3750 C.2     1  UNL1       -0.0460
     29  C         19.6090  -22.7870  -10.2000 C.2     1  UNL1       -0.0030
     30  C         17.7560  -21.0270  -11.4800 C.2     1  UNL1        0.0080
     31  C         16.0570  -21.8010   -9.6670 C.2     1  UNL1        0.0440
     32  C         19.0670  -21.1540  -11.9580 C.2     1  UNL1        0.0020
     33  C         19.9880  -22.0170  -11.3290 C.2     1  UNL1        0.0140
@<TRIPOS>BOND
     1    16    17    2
     2    16    15    1
     3    17    18    1
     4    15    14    2
     5    18    19    1
     6    18    13    2
     7    14    13    1
     8    13    10    1
     9    11    10    2
    10    10     9   am
    11    12     9    1
    12     9     7    1
    13     7     8   ar
    14     7     6   ar
    15    32    30    1
    16    32    33    2
    17     8     4   ar
    18    30    28    2
    19    33    29    1
    20     6     5   ar
    21    28    26    1
    22    28    31    1
    23     4     5   ar
    24     4     1    1
    25    29    26    1
    26    29    22    2
    27    21    20    1
    28    20    22    1
    29    20     1    1
    30    26    25    2
    31    31    27    2
    32    22    23    1
    33     1     2    2
    34     1     3    2
    35    25    27    1
    36    25    24    1
    37    23    24    2
