@<TRIPOS>MOLECULE
5531_out_ligand_01.pdbqt
 37 40 0 0 0
SMALL
GASTEIGER

@<TRIPOS>ATOM
      1  C         19.0460  -21.9500  -11.1710 C.2     1  UNL1        0.0700
      2  C         18.4970  -20.6790  -11.3500 C.2     1  UNL1        0.0370
      3  C         17.1740  -20.4250  -10.9710 C.2     1  UNL1        0.0040
      4  C         16.3950  -21.4390  -10.4130 C.2     1  UNL1        0.0130
      5  C         16.9390  -22.7150  -10.2450 C.2     1  UNL1       -0.0150
      6  C         18.2670  -22.9620  -10.6010 C.2     1  UNL1        0.0490
      7  C         16.0920  -23.7450   -9.6130 C.2     1  UNL1        0.1440
      8  N         15.5880  -23.7810   -8.4130 N.2     1  UNL1       -0.1980
      9  N         15.9980  -22.7070   -7.4760 N.pl3   1  UNL1       -0.1030
     10  H         15.2550  -22.0640   -7.1890 H       1  UNL1        0.1680
     11  S         16.9420  -23.1180   -6.1030 S.O2    1  UNL1        0.2600
     12  O         16.8330  -24.5550   -5.9470 O.2     1  UNL1       -0.2040
     13  O         16.6210  -22.2120   -5.0190 O.2     1  UNL1       -0.2040
     14  C         18.5940  -22.7570   -6.6500 C.2     1  UNL1        0.0770
     15  C         19.1990  -21.5570   -6.2760 C.2     1  UNL1        0.0260
     16  C         20.4860  -21.2660   -6.7310 C.2     1  UNL1        0.0140
     17  C         21.1710  -22.1630   -7.5690 C.2     1  UNL1       -0.0260
     18  C         22.4660  -21.8830   -8.0320 C.2     1  UNL1        0.0120
     19  C         20.5440  -23.3700   -7.9600 C.2     1  UNL1       -0.0250
     20  C         23.1350  -22.7790   -8.8680 C.2     1  UNL1        0.0010
     21  C         22.5170  -23.9650   -9.2540 C.2     1  UNL1        0.0010
     22  C         21.2290  -24.2590   -8.8040 C.2     1  UNL1        0.0120
     23  C         19.2500  -23.6540   -7.4980 C.2     1  UNL1        0.0370
     24  O         20.3280  -22.3220  -11.4720 O.2     1  UNL1       -0.3420
     25  C         21.2610  -21.2890  -11.7820 C.3     1  UNL1        0.2780
     26  C         22.5160  -21.7720  -12.5180 C.2     1  UNL1        0.2460
     27  N         22.8260  -20.9810  -13.6090 N.am    1  UNL1       -0.3250
     28  H         22.1590  -20.2410  -13.8060 H       1  UNL1        0.1690
     29  O         23.1430  -22.7460  -12.1120 O.2     1  UNL1       -0.2710
     30  C         23.9090  -21.1060  -14.5000 C.2     1  UNL1        0.0350
     31  C         23.9300  -22.2360  -15.3210 C.2     1  UNL1        0.0300
     32  C         24.9700  -22.4350  -16.2330 C.2     1  UNL1        0.0090
     33  C         26.0120  -21.5050  -16.3440 C.2     1  UNL1       -0.0560
     34  C         27.1210  -21.7550  -17.3300 C.3     1  UNL1        0.0490
     35  C         26.0030  -20.3660  -15.5180 C.2     1  UNL1       -0.0540
     36  C         24.9460  -20.1780  -14.6060 C.2     1  UNL1        0.0370
     37  C         27.1010  -19.3380  -15.5880 C.3     1  UNL1        0.0490
@<TRIPOS>BOND
     1    34    33    1
     2    33    32    2
     3    33    35    1
     4    32    31    1
     5    37    35    1
     6    35    36    2
     7    31    30    2
     8    36    30    1
     9    30    27    1
    10    28    27    1
    11    27    26   am
    12    26    29    2
    13    26    25    1
    14    25    24    1
    15    24     1    1
    16     2     1    2
    17     2     3    1
    18     1     6    1
    19     3     4    2
    20     6     5    2
    21     4     5    1
    22     5     7    1
    23     7     8    2
    24    21    20    2
    25    21    22    1
    26    20    18    1
    27    22    19    2
    28     8     9    1
    29    18    17    2
    30    19    17    1
    31    19    23    1
    32    17    16    1
    33    23    14    2
    34     9    10    1
    35     9    11    1
    36    16    15    2
    37    14    15    1
    38    14    11    1
    39    11    12    2
    40    11    13    2
