@<TRIPOS>MOLECULE
55310_out_ligand_01.pdbqt
 31 35 0 0 0
SMALL
GASTEIGER

@<TRIPOS>ATOM
      1  C         21.8710  -21.7200  -12.3060 C.2     1  UNL1        0.0100
      2  C         21.8670  -22.5980  -11.2140 C.2     1  UNL1        0.0160
      3  C         20.7220  -22.7480  -10.4220 C.2     1  UNL1        0.0180
      4  C         19.5650  -22.0120  -10.7050 C.2     1  UNL1        0.0320
      5  C         19.5510  -21.1450  -11.8010 C.2     1  UNL1        0.0180
      6  C         20.6990  -20.9980  -12.5870 C.2     1  UNL1        0.0160
      7  C         18.3690  -22.2030   -9.8360 C.2     1  UNL1        0.2560
      8  O         17.2900  -21.7950  -10.2480 O.2     1  UNL1       -0.2670
      9  N         18.6170  -22.8770   -8.6540 N.am    1  UNL1       -0.3220
     10  H         19.5390  -23.2730   -8.5600 H       1  UNL1        0.1690
     11  C         17.7090  -23.1630   -7.5990 C.2     1  UNL1        0.0460
     12  C         16.6440  -24.0540   -7.7860 C.2     1  UNL1        0.0300
     13  C         15.7430  -24.3230   -6.7590 C.2     1  UNL1        0.0030
     14  C         15.8920  -23.7030   -5.5250 C.2     1  UNL1        0.0120
     15  C         16.9400  -22.8040   -5.2970 C.2     1  UNL1       -0.0240
     16  C         17.0570  -22.1920   -4.0370 C.2     1  UNL1        0.0120
     17  C         17.8720  -22.5140   -6.3300 C.2     1  UNL1        0.0010
     18  C         18.0820  -21.2930   -3.7640 C.2     1  UNL1        0.0010
     19  C         19.0090  -20.9950   -4.7500 C.2     1  UNL1        0.0010
     20  C         18.9070  -21.5930   -6.0100 C.2     1  UNL1        0.0140
     21  C         23.0460  -21.5280  -13.1640 C.ar    1  UNL1        0.1390
     22  N         24.3460  -21.7580  -12.7720 N.ar    1  UNL1       -0.3380
     23  C         25.1830  -21.4820  -13.8220 C.ar    1  UNL1        0.0620
     24  H         24.6380  -22.0940  -11.8680 H       1  UNL1        0.1670
     25  C         26.5690  -21.5490  -13.9650 C.2     1  UNL1        0.0320
     26  C         24.3290  -21.0880  -14.8410 C.ar    1  UNL1        0.0860
     27  C         27.0890  -21.1860  -15.2150 C.2     1  UNL1        0.0090
     28  C         26.2600  -20.7670  -16.2670 C.2     1  UNL1       -0.0600
     29  C         26.8510  -20.4180  -17.6020 C.3     1  UNL1        0.0480
     30  C         24.8660  -20.7280  -16.0860 C.2     1  UNL1        0.0400
     31  N         23.0220  -21.1260  -14.4240 N.ar    1  UNL1       -0.2280
@<TRIPOS>BOND
     1    29    28    1
     2    28    30    2
     3    28    27    1
     4    30    26    1
     5    27    25    2
     6    26    31   ar
     7    26    23   ar
     8    31    21   ar
     9    25    23    1
    10    23    22   ar
    11    21    22   ar
    12    21     1    1
    13    22    24    1
    14     6     1    2
    15     6     5    1
    16     1     2    1
    17     5     4    2
    18     2     3    2
    19     4     3    1
    20     4     7    1
    21     8     7    2
    22     7     9   am
    23     9    10    1
    24     9    11    1
    25    12    11    2
    26    12    13    1
    27    11    17    1
    28    13    14    2
    29    17    20    1
    30    17    15    2
    31    20    19    2
    32    14    15    1
    33    15    16    1
    34    19    18    1
    35    16    18    2
