@<TRIPOS>MOLECULE
55372_out_ligand_01.pdbqt
 28 31 0 0 0
SMALL
GASTEIGER

@<TRIPOS>ATOM
      1  C         22.0530  -22.0160   -9.6100 C.2     1  UNL1        0.0320
      2  C         20.8190  -22.3230  -10.1890 C.2     1  UNL1        0.0180
      3  C         19.6950  -22.5180   -9.3810 C.2     1  UNL1        0.0160
      4  C         19.7840  -22.4300   -7.9840 C.2     1  UNL1        0.0100
      5  C         21.0300  -22.1340   -7.4120 C.2     1  UNL1        0.0160
      6  C         22.1600  -21.9320   -8.2180 C.2     1  UNL1        0.0180
      7  C         23.2250  -21.8160  -10.5050 C.2     1  UNL1        0.2520
      8  O         24.1830  -21.1560  -10.1190 O.2     1  UNL1       -0.2680
      9  N         23.1610  -22.4270  -11.7400 N.am    1  UNL1       -0.3520
     10  H         22.3570  -22.9890  -11.9810 H       1  UNL1        0.1630
     11  C         24.2170  -22.2570  -12.7440 C.3     1  UNL1        0.0840
     12  C         23.6420  -21.5520  -13.9830 C.3     1  UNL1        0.0250
     13  C         24.6070  -20.5750  -14.6720 C.3     1  UNL1        0.0020
     14  C         25.4770  -21.1890  -15.7650 C.3     1  UNL1        0.0000
     15  C         26.8570  -21.6780  -15.3230 C.3     1  UNL1        0.0000
     16  C         26.9230  -22.6230  -14.1250 C.3     1  UNL1        0.0000
     17  C         25.8740  -23.7320  -14.1450 C.3     1  UNL1        0.0020
     18  C         24.8360  -23.6370  -13.0280 C.3     1  UNL1        0.0250
     19  C         18.5770  -22.6470   -7.1770 C.ar    1  UNL1        0.1390
     20  N         17.5470  -23.4030   -7.5170 N.ar    1  UNL1       -0.2280
     21  C         16.6530  -23.3280   -6.4790 C.ar    1  UNL1        0.0860
     22  C         15.3980  -23.9340   -6.3290 C.2     1  UNL1        0.0340
     23  C         17.1410  -22.5150   -5.4670 C.ar    1  UNL1        0.0620
     24  C         14.6750  -23.6950   -5.1530 C.2     1  UNL1        0.0020
     25  C         15.1940  -22.8730   -4.1490 C.2     1  UNL1        0.0020
     26  C         16.4460  -22.2600   -4.2830 C.2     1  UNL1        0.0320
     27  N         18.3620  -22.1000   -5.9310 N.ar    1  UNL1       -0.3380
     28  H         19.0070  -21.5100   -5.4290 H       1  UNL1        0.1670
@<TRIPOS>BOND
     1    14    15    1
     2    14    13    1
     3    15    16    1
     4    13    12    1
     5    17    16    1
     6    17    18    1
     7    12    11    1
     8    18    11    1
     9    11     9    1
    10    10     9    1
    11     9     7   am
    12     7     8    2
    13     7     1    1
    14     2     1    2
    15     2     3    1
    16     1     6    1
    17     3     4    2
    18     6     5    2
    19     4     5    1
    20     4    19    1
    21    20    19   ar
    22    20    21   ar
    23    19    27   ar
    24    21    22    2
    25    21    23   ar
    26    22    24    1
    27    27    23   ar
    28    27    28    1
    29    23    26    2
    30    24    25    2
    31    26    25    1
