@<TRIPOS>MOLECULE
55379_out_ligand_01.pdbqt
 29 32 0 0 0
SMALL
GASTEIGER

@<TRIPOS>ATOM
      1  C         21.3010  -21.7790  -11.9780 C.2     1  UNL1        0.0100
      2  C         21.2770  -22.7430  -10.9590 C.2     1  UNL1        0.0160
      3  C         20.1190  -22.9730  -10.2100 C.2     1  UNL1        0.0180
      4  C         18.9540  -22.2490  -10.4800 C.2     1  UNL1        0.0320
      5  C         18.9640  -21.2790  -11.4890 C.2     1  UNL1        0.0180
      6  C         20.1290  -21.0500  -12.2340 C.2     1  UNL1        0.0160
      7  C         17.7390  -22.5300   -9.6660 C.2     1  UNL1        0.2510
      8  O         16.7290  -21.8510   -9.8060 O.2     1  UNL1       -0.2680
      9  N         17.8490  -23.5470   -8.7390 N.am    1  UNL1       -0.3570
     10  H         18.7770  -23.8580   -8.4800 H       1  UNL1        0.1620
     11  C         16.7980  -23.7840   -7.7650 C.3     1  UNL1        0.1270
     12  C         17.3330  -24.2880   -6.4190 C.3     1  UNL1        0.0580
     13  C         17.7650  -23.1600   -5.5090 C.2     1  UNL1       -0.0570
     14  C         18.5100  -22.0870   -6.0170 C.2     1  UNL1        0.0070
     15  C         18.9350  -21.0590   -5.1740 C.2     1  UNL1        0.0010
     16  C         18.6190  -21.0950   -3.8160 C.2     1  UNL1        0.0000
     17  C         17.8780  -22.1570   -3.3020 C.2     1  UNL1        0.0010
     18  C         17.4530  -23.1870   -4.1430 C.2     1  UNL1        0.0070
     19  C         22.5400  -21.5740  -12.7360 C.ar    1  UNL1        0.1390
     20  N         23.8070  -21.7720  -12.2310 N.ar    1  UNL1       -0.3380
     21  C         24.7250  -21.4940  -13.2090 C.ar    1  UNL1        0.0620
     22  H         24.0250  -22.0890  -11.2990 H       1  UNL1        0.1670
     23  C         26.1210  -21.5240  -13.2290 C.2     1  UNL1        0.0320
     24  C         23.9550  -21.1370  -14.3050 C.ar    1  UNL1        0.0860
     25  C         26.7380  -21.1700  -14.4350 C.2     1  UNL1        0.0090
     26  C         25.9930  -20.8150  -15.5710 C.2     1  UNL1       -0.0600
     27  C         26.6920  -20.4100  -16.8370 C.3     1  UNL1        0.0480
     28  C         24.5880  -20.7850  -15.5060 C.2     1  UNL1        0.0400
     29  N         22.6180  -21.1950  -14.0000 N.ar    1  UNL1       -0.2280
@<TRIPOS>BOND
     1    27    26    1
     2    26    28    2
     3    26    25    1
     4    28    24    1
     5    25    23    2
     6    24    29   ar
     7    24    21   ar
     8    29    19   ar
     9    23    21    1
    10    21    20   ar
    11    19    20   ar
    12    19     1    1
    13     6     1    2
    14     6     5    1
    15    20    22    1
    16     1     2    1
    17     5     4    2
    18     2     3    2
    19     4     3    1
    20     4     7    1
    21     8     7    2
    22     7     9   am
    23     9    10    1
    24     9    11    1
    25    11    12    1
    26    12    13    1
    27    14    13    2
    28    14    15    1
    29    13    18    1
    30    15    16    2
    31    18    17    2
    32    16    17    1
