@<TRIPOS>MOLECULE
55384_out_ligand_01.pdbqt
 29 32 0 0 0
SMALL
GASTEIGER

@<TRIPOS>ATOM
      1  C         19.4880  -22.3160  -10.5150 C.2     1  UNL1        0.0320
      2  C         19.3700  -21.4240  -11.5880 C.2     1  UNL1        0.0180
      3  C         20.4770  -21.1570  -12.4030 C.2     1  UNL1        0.0160
      4  C         21.7150  -21.7690  -12.1540 C.2     1  UNL1        0.0100
      5  C         21.8180  -22.6550  -11.0700 C.2     1  UNL1        0.0160
      6  C         20.7190  -22.9200  -10.2480 C.2     1  UNL1        0.0180
      7  C         18.3350  -22.6190   -9.6230 C.2     1  UNL1        0.2560
      8  N         18.6050  -22.5030   -8.2720 N.am    1  UNL1       -0.3230
      9  H         19.5040  -22.1140   -8.0190 H       1  UNL1        0.1690
     10  O         17.2640  -22.9080  -10.1400 O.2     1  UNL1       -0.2670
     11  C         17.7270  -22.7670   -7.1990 C.2     1  UNL1        0.0360
     12  C         18.1670  -23.6640   -6.2200 C.2     1  UNL1        0.0300
     13  C         17.3580  -23.9860   -5.1260 C.2     1  UNL1        0.0110
     14  C         16.0860  -23.4180   -4.9900 C.2     1  UNL1       -0.0400
     15  C         15.2350  -23.7800   -3.8050 C.3     1  UNL1        0.0500
     16  C         15.6460  -22.5220   -5.9750 C.2     1  UNL1        0.0420
     17  C         16.4590  -22.2000   -7.0700 C.2     1  UNL1        0.0530
     18 CL         14.0840  -21.7830   -5.8810 Cl      1  UNL1       -0.0840
     19  C         22.8990  -21.5190  -12.9840 C.ar    1  UNL1        0.1390
     20  N         22.8880  -21.1990  -14.2660 N.ar    1  UNL1       -0.2280
     21  C         24.2010  -21.0670  -14.6420 C.ar    1  UNL1        0.0870
     22  C         24.7450  -20.7340  -15.8890 C.2     1  UNL1        0.0570
     23  C         25.0480  -21.3220  -13.5720 C.ar    1  UNL1        0.0620
     24  C         26.1360  -20.6720  -16.0030 C.2     1  UNL1        0.0360
     25 CL         26.8400  -20.2640  -17.5230 Cl      1  UNL1       -0.0840
     26  C         26.9710  -20.9330  -14.9120 C.2     1  UNL1        0.0260
     27  C         26.4400  -21.2680  -13.6600 C.2     1  UNL1        0.0340
     28  N         24.1980  -21.6100  -12.5350 N.ar    1  UNL1       -0.3380
     29  H         24.4790  -21.8740  -11.6040 H       1  UNL1        0.1670
@<TRIPOS>BOND
     1    25    24    1
     2    24    22    1
     3    24    26    2
     4    22    21    2
     5    26    27    1
     6    21    20   ar
     7    21    23   ar
     8    20    19   ar
     9    27    23    2
    10    23    28   ar
    11    19    28   ar
    12    19     4    1
    13    28    29    1
    14     3     4    2
    15     3     2    1
    16     4     5    1
    17     2     1    2
    18     5     6    2
    19     1     6    1
    20     1     7    1
    21    10     7    2
    22     7     8   am
    23     8     9    1
    24     8    11    1
    25    11    17    2
    26    11    12    1
    27    17    16    1
    28    12    13    2
    29    16    18    1
    30    16    14    2
    31    13    14    1
    32    14    15    1
