@<TRIPOS>MOLECULE
55385_out_ligand_01.pdbqt
 29 32 0 0 0
SMALL
GASTEIGER

@<TRIPOS>ATOM
      1  C         19.6470  -22.2950  -10.5840 C.2     1  UNL1        0.0320
      2  C         19.5630  -21.4000  -11.6540 C.2     1  UNL1        0.0180
      3  C         20.6870  -21.1630  -12.4530 C.2     1  UNL1        0.0160
      4  C         21.9130  -21.7980  -12.1920 C.2     1  UNL1        0.0100
      5  C         21.9880  -22.6820  -11.1070 C.2     1  UNL1        0.0160
      6  C         20.8660  -22.9240  -10.3060 C.2     1  UNL1        0.0180
      7  C         18.4800  -22.5850   -9.7010 C.2     1  UNL1        0.2560
      8  O         17.3970  -22.8010  -10.2280 O.2     1  UNL1       -0.2670
      9  N         18.7450  -22.5380   -8.3440 N.am    1  UNL1       -0.3230
     10  H         19.6620  -22.2080   -8.0690 H       1  UNL1        0.1690
     11  C         17.8460  -22.8040   -7.2890 C.2     1  UNL1        0.0360
     12  C         18.2540  -23.7340   -6.3250 C.2     1  UNL1        0.0310
     13  C         17.4220  -24.0600   -5.2500 C.2     1  UNL1        0.0280
     14  C         16.1680  -23.4590   -5.1280 C.2     1  UNL1        0.0550
     15 CL         15.1910  -23.9070   -3.7760 Cl      1  UNL1       -0.0830
     16  C         15.7500  -22.5340   -6.0880 C.2     1  UNL1        0.0580
     17 CL         14.2080  -21.7560   -6.0040 Cl      1  UNL1       -0.0820
     18  C         16.5880  -22.2100   -7.1650 C.2     1  UNL1        0.0550
     19  C         23.0600  -21.5120  -13.0620 C.ar    1  UNL1        0.1390
     20  N         22.9960  -21.2460  -14.3560 N.ar    1  UNL1       -0.2280
     21  C         24.2860  -21.0360  -14.7720 C.ar    1  UNL1        0.0870
     22  C         24.7760  -20.7260  -16.0490 C.2     1  UNL1        0.0570
     23  C         25.1730  -21.1660  -13.7120 C.ar    1  UNL1        0.0620
     24  C         26.1550  -20.5580  -16.1990 C.2     1  UNL1        0.0360
     25 CL         26.7910  -20.1760  -17.7540 Cl      1  UNL1       -0.0840
     26  C         27.0290  -20.6920  -15.1170 C.2     1  UNL1        0.0260
     27  C         26.5530  -21.0010  -13.8370 C.2     1  UNL1        0.0340
     28  N         24.3700  -21.4630  -12.6400 N.ar    1  UNL1       -0.3380
     29  H         24.6890  -21.6040  -11.6930 H       1  UNL1        0.1670
@<TRIPOS>BOND
     1    25    24    1
     2    24    22    1
     3    24    26    2
     4    22    21    2
     5    26    27    1
     6    21    20   ar
     7    21    23   ar
     8    20    19   ar
     9    27    23    2
    10    23    28   ar
    11    19    28   ar
    12    19     4    1
    13    28    29    1
    14     3     4    2
    15     3     2    1
    16     4     5    1
    17     2     1    2
    18     5     6    2
    19     1     6    1
    20     1     7    1
    21     8     7    2
    22     7     9   am
    23     9    10    1
    24     9    11    1
    25    11    18    2
    26    11    12    1
    27    18    16    1
    28    12    13    2
    29    16    17    1
    30    16    14    2
    31    13    14    1
    32    14    15    1
