@<TRIPOS>MOLECULE
55386_out_ligand_01.pdbqt
 31 34 0 0 0
SMALL
GASTEIGER

@<TRIPOS>ATOM
      1  C         19.9560  -22.2120  -10.1620 C.2     1  UNL1        0.0320
      2  C         21.1900  -22.8440   -9.9900 C.2     1  UNL1        0.0180
      3  C         22.2080  -22.6530  -10.9290 C.2     1  UNL1        0.0160
      4  C         22.0060  -21.8500  -12.0620 C.2     1  UNL1        0.0100
      5  C         20.7580  -21.2310  -12.2310 C.2     1  UNL1        0.0160
      6  C         19.7370  -21.4130  -11.2890 C.2     1  UNL1        0.0180
      7  C         18.8930  -22.4320   -9.1440 C.2     1  UNL1        0.2560
      8  O         17.8280  -22.9120   -9.5120 O.2     1  UNL1       -0.2670
      9  N         19.2500  -22.0920   -7.8520 N.am    1  UNL1       -0.3230
     10  H         20.2190  -21.8470   -7.6970 H       1  UNL1        0.1690
     11  C         18.4410  -22.1520   -6.6980 C.2     1  UNL1        0.0350
     12  C         18.9260  -21.5210   -5.5460 C.2     1  UNL1        0.0290
     13  C         18.1860  -21.5320   -4.3620 C.2     1  UNL1        0.0030
     14  C         16.9490  -22.1710   -4.3190 C.2     1  UNL1        0.0160
     15  C         16.4400  -22.7990   -5.4630 C.2     1  UNL1        0.0500
     16  C         17.1990  -22.7860   -6.6480 C.2     1  UNL1        0.0450
     17  C         15.1070  -23.5070   -5.4330 C.3     1  UNL1        0.4170
     18  F         14.9240  -24.2590   -4.3100 F       1  UNL1       -0.1660
     19  F         14.9470  -24.3620   -6.4800 F       1  UNL1       -0.1660
     20  F         14.0490  -22.6510   -5.4770 F       1  UNL1       -0.1660
     21  C         23.1030  -21.6840  -13.0220 C.ar    1  UNL1        0.1390
     22  N         22.9850  -21.2400  -14.2610 N.ar    1  UNL1       -0.2280
     23  C         24.2490  -21.2350  -14.7940 C.ar    1  UNL1        0.0870
     24  C         24.6780  -20.8610  -16.0740 C.2     1  UNL1        0.0570
     25  C         25.1780  -21.6770  -13.8610 C.ar    1  UNL1        0.0620
     26  C         26.0430  -20.9500  -16.3600 C.2     1  UNL1        0.0360
     27 CL         26.6070  -20.5000  -17.9250 Cl      1  UNL1       -0.0840
     28  C         26.9610  -21.3960  -15.4050 C.2     1  UNL1        0.0260
     29  C         26.5450  -21.7720  -14.1220 C.2     1  UNL1        0.0340
     30  N         24.4270  -21.9480  -12.7460 N.ar    1  UNL1       -0.3380
     31  H         24.7900  -22.2660  -11.8600 H       1  UNL1        0.1670
@<TRIPOS>BOND
     1    27    26    1
     2    26    24    1
     3    26    28    2
     4    24    23    2
     5    28    29    1
     6    23    22   ar
     7    23    25   ar
     8    22    21   ar
     9    29    25    2
    10    25    30   ar
    11    21    30   ar
    12    21     4    1
    13    30    31    1
    14     5     4    2
    15     5     6    1
    16     4     3    1
    17     6     1    2
    18     3     2    2
    19     1     2    1
    20     1     7    1
    21     8     7    2
    22     7     9   am
    23     9    10    1
    24     9    11    1
    25    11    16    2
    26    11    12    1
    27    16    15    1
    28    19    17    1
    29    12    13    2
    30    20    17    1
    31    15    17    1
    32    15    14    2
    33    17    18    1
    34    13    14    1
