@<TRIPOS>MOLECULE
55390_out_ligand_01.pdbqt
 30 33 0 0 0
SMALL
GASTEIGER

@<TRIPOS>ATOM
      1  C         20.2720  -22.2150   -9.9530 C.2     1  UNL1        0.0320
      2  C         20.0330  -21.4490  -11.0960 C.2     1  UNL1        0.0180
      3  C         21.0020  -21.3750  -12.1010 C.2     1  UNL1        0.0160
      4  C         22.2300  -22.0410  -11.9720 C.2     1  UNL1        0.0100
      5  C         22.4650  -22.7970  -10.8120 C.2     1  UNL1        0.0160
      6  C         21.4940  -22.8820   -9.8070 C.2     1  UNL1        0.0180
      7  C         19.2200  -22.2780   -8.9010 C.2     1  UNL1        0.2560
      8  N         19.6880  -22.1140   -7.6100 N.am    1  UNL1       -0.3230
      9  H         20.6920  -22.1210   -7.4870 H       1  UNL1        0.1690
     10  O         18.0680  -22.5040   -9.2440 O.2     1  UNL1       -0.2670
     11  C         18.9220  -22.0680   -6.4250 C.2     1  UNL1        0.0350
     12  C         19.2550  -21.0770   -5.4930 C.2     1  UNL1        0.0290
     13  C         18.5480  -20.9570   -4.2940 C.2     1  UNL1        0.0030
     14  C         17.4930  -21.8240   -4.0170 C.2     1  UNL1        0.0150
     15  C         17.1430  -22.8140   -4.9430 C.2     1  UNL1        0.0110
     16  C         17.8570  -22.9290   -6.1480 C.2     1  UNL1        0.0440
     17  C         16.0070  -23.7480   -4.6930 C.2     1  UNL1        0.1550
     18  C         14.8980  -23.8310   -5.7090 C.3     1  UNL1        0.0960
     19  O         15.9930  -24.4450   -3.6810 O.2     1  UNL1       -0.2930
     20  C         23.2190  -21.9300  -13.0480 C.ar    1  UNL1        0.1390
     21  N         23.0810  -21.2180  -14.1530 N.ar    1  UNL1       -0.2280
     22  C         24.2380  -21.3880  -14.8700 C.ar    1  UNL1        0.0870
     23  C         24.6060  -20.8590  -16.1150 C.2     1  UNL1        0.0570
     24  C         25.1210  -22.2160  -14.1900 C.ar    1  UNL1        0.0620
     25  C         25.8630  -21.1930  -16.6250 C.2     1  UNL1        0.0360
     26 CL         26.3480  -20.5610  -18.1530 Cl      1  UNL1       -0.0840
     27  C         26.7370  -22.0280  -15.9210 C.2     1  UNL1        0.0260
     28  C         26.3820  -22.5620  -14.6770 C.2     1  UNL1        0.0340
     29  N         24.4540  -22.5400  -13.0360 N.ar    1  UNL1       -0.3380
     30  H         24.8190  -23.1090  -12.2890 H       1  UNL1        0.1670
@<TRIPOS>BOND
     1    26    25    1
     2    25    23    1
     3    25    27    2
     4    23    22    2
     5    27    28    1
     6    22    24   ar
     7    22    21   ar
     8    28    24    2
     9    24    29   ar
    10    21    20   ar
    11    20    29   ar
    12    20     4    1
    13    29    30    1
    14     3     4    2
    15     3     2    1
    16     4     5    1
    17     2     1    2
    18     5     6    2
    19     1     6    1
    20     1     7    1
    21    10     7    2
    22     7     8   am
    23     8     9    1
    24     8    11    1
    25    11    16    2
    26    11    12    1
    27    16    15    1
    28    18    17    1
    29    12    13    2
    30    15    17    1
    31    15    14    2
    32    17    19    2
    33    13    14    1
