@<TRIPOS>MOLECULE
55399_out_ligand_01.pdbqt
 28 31 0 0 0
SMALL
GASTEIGER

@<TRIPOS>ATOM
      1  C         20.4060  -22.2440   -8.1960 C.2     1  UNL1        0.0320
      2  C         19.9200  -22.4390   -9.4900 C.2     1  UNL1        0.0180
      3  C         20.8110  -22.5680  -10.5580 C.2     1  UNL1        0.0160
      4  C         22.1980  -22.4850  -10.3590 C.2     1  UNL1        0.0100
      5  C         22.6750  -22.2760   -9.0550 C.2     1  UNL1        0.0160
      6  C         21.7860  -22.1520   -7.9790 C.2     1  UNL1        0.0180
      7  C         19.4320  -22.1090   -7.0770 C.2     1  UNL1        0.2560
      8  N         18.2550  -22.8150   -7.2520 N.am    1  UNL1       -0.3230
      9  H         18.1130  -23.2530   -8.1530 H       1  UNL1        0.1690
     10  O         19.7280  -21.3830   -6.1380 O.2     1  UNL1       -0.2670
     11  C         17.1740  -22.9150   -6.3510 C.2     1  UNL1        0.0350
     12  C         17.3570  -23.7220   -5.2210 C.2     1  UNL1        0.0290
     13  C         16.3420  -23.8620   -4.2740 C.2     1  UNL1        0.0030
     14  C         15.1300  -23.1990   -4.4470 C.2     1  UNL1        0.0070
     15  C         14.9220  -22.3980   -5.5750 C.2     1  UNL1       -0.0600
     16  C         13.6320  -21.6530   -5.7530 C.3     1  UNL1        0.0480
     17  C         15.9560  -22.2510   -6.5150 C.2     1  UNL1        0.0360
     18  C         23.0940  -22.6230  -11.5120 C.ar    1  UNL1        0.1390
     19  N         23.0920  -21.8530  -12.5860 N.ar    1  UNL1       -0.2280
     20  C         24.0900  -22.3240  -13.4030 C.ar    1  UNL1        0.0870
     21  C         24.5030  -21.8700  -14.6620 C.2     1  UNL1        0.0570
     22  C         24.7340  -23.4050  -12.8170 C.ar    1  UNL1        0.0620
     23  C         25.5650  -22.5370  -15.2820 C.2     1  UNL1        0.0360
     24 CL         26.0990  -22.0070  -16.8320 Cl      1  UNL1       -0.0840
     25  C         26.2000  -23.6220  -14.6740 C.2     1  UNL1        0.0260
     26  C         25.7960  -24.0850  -13.4150 C.2     1  UNL1        0.0340
     27  N         24.0880  -23.5700  -11.6180 N.ar    1  UNL1       -0.3380
     28  H         24.3220  -24.2570  -10.9190 H       1  UNL1        0.1670
@<TRIPOS>BOND
     1    24    23    1
     2    23    25    2
     3    23    21    1
     4    25    26    1
     5    21    20    2
     6    26    22    2
     7    20    22   ar
     8    20    19   ar
     9    22    27   ar
    10    19    18   ar
    11    27    18   ar
    12    27    28    1
    13    18     4    1
    14     3     4    2
    15     3     2    1
    16     4     5    1
    17     2     1    2
    18     5     6    2
    19     1     6    1
    20     1     7    1
    21     9     8    1
    22     8     7   am
    23     8    11    1
    24     7    10    2
    25    17    11    2
    26    17    15    1
    27    11    12    1
    28    16    15    1
    29    15    14    2
    30    12    13    2
    31    14    13    1
