@<TRIPOS>MOLECULE
55418_out_ligand_01.pdbqt
 29 32 0 0 0
SMALL
GASTEIGER

@<TRIPOS>ATOM
      1  C         19.7830  -22.0890  -10.5680 C.2     1  UNL1        0.0320
      2  C         20.9550  -22.8230  -10.3750 C.2     1  UNL1        0.0180
      3  C         22.0310  -22.6630  -11.2540 C.2     1  UNL1        0.0160
      4  C         21.9630  -21.7550  -12.3240 C.2     1  UNL1        0.0100
      5  C         20.7850  -21.0140  -12.4990 C.2     1  UNL1        0.0160
      6  C         19.7010  -21.1760  -11.6260 C.2     1  UNL1        0.0180
      7  C         18.6530  -22.2800   -9.6160 C.2     1  UNL1        0.2560
      8  N         19.0330  -22.7250   -8.3630 N.am    1  UNL1       -0.3220
      9  H         20.0260  -22.7500   -8.1850 H       1  UNL1        0.1690
     10  O         17.5260  -22.0040  -10.0020 O.2     1  UNL1       -0.2670
     11  C         18.1980  -23.0540   -7.2640 C.2     1  UNL1        0.0410
     12  C         17.2390  -24.0690   -7.3480 C.2     1  UNL1        0.0300
     13  C         16.4340  -24.3860   -6.2560 C.2     1  UNL1        0.0030
     14  C         16.5770  -23.6930   -5.0620 C.2     1  UNL1        0.0070
     15  C         17.5300  -22.6720   -4.9360 C.2     1  UNL1       -0.0540
     16  C         17.6340  -21.9600   -3.6130 C.3     1  UNL1        0.0490
     17  C         18.3530  -22.3430   -6.0430 C.2     1  UNL1       -0.0290
     18  C         19.3830  -21.2440   -5.9290 C.3     1  UNL1        0.0510
     19  C         23.1190  -21.6200  -13.2160 C.ar    1  UNL1        0.1390
     20  N         23.1000  -21.1000  -14.4310 N.ar    1  UNL1       -0.2280
     21  C         24.3850  -21.1790  -14.9070 C.ar    1  UNL1        0.0870
     22  C         24.9100  -20.7660  -16.1370 C.2     1  UNL1        0.0570
     23  C         25.2200  -21.7730  -13.9700 C.ar    1  UNL1        0.0620
     24  C         26.2730  -20.9710  -16.3720 C.2     1  UNL1        0.0360
     25 CL         26.9540  -20.4740  -17.8750 Cl      1  UNL1       -0.0840
     26  C         27.0950  -21.5730  -15.4150 C.2     1  UNL1        0.0260
     27  C         26.5820  -21.9920  -14.1810 C.2     1  UNL1        0.0340
     28  N         24.3930  -22.0480  -12.9110 N.ar    1  UNL1       -0.3380
     29  H         24.6680  -22.5120  -12.0590 H       1  UNL1        0.1670
@<TRIPOS>BOND
     1    25    24    1
     2    24    22    1
     3    24    26    2
     4    22    21    2
     5    26    27    1
     6    21    20   ar
     7    21    23   ar
     8    20    19   ar
     9    27    23    2
    10    23    28   ar
    11    19    28   ar
    12    19     4    1
    13    28    29    1
    14     5     4    2
    15     5     6    1
    16     4     3    1
    17     6     1    2
    18     3     2    2
    19     1     2    1
    20     1     7    1
    21    10     7    2
    22     7     8   am
    23     8     9    1
    24     8    11    1
    25    12    11    2
    26    12    13    1
    27    11    17    1
    28    13    14    2
    29    17    18    1
    30    17    15    2
    31    14    15    1
    32    15    16    1
