@<TRIPOS>MOLECULE
55411_out_ligand_01.pdbqt
 28 31 0 0 0
SMALL
GASTEIGER

@<TRIPOS>ATOM
      1  C         22.4450  -22.7460   -9.5470 C.2     1  UNL1        0.0100
      2  C         21.2650  -23.5020   -9.6130 C.2     1  UNL1        0.0160
      3  C         20.2600  -23.3550   -8.6520 C.2     1  UNL1        0.0180
      4  C         20.4140  -22.4290   -7.6170 C.2     1  UNL1        0.0320
      5  C         21.5880  -21.6710   -7.5340 C.2     1  UNL1        0.0180
      6  C         22.5950  -21.8280   -8.4960 C.2     1  UNL1        0.0160
      7  C         23.4720  -22.9370  -10.5770 C.ar    1  UNL1        0.1390
      8  N         24.7760  -23.3000  -10.3180 N.ar    1  UNL1       -0.3380
      9  C         25.4540  -23.3990  -11.5040 C.ar    1  UNL1        0.0620
     10  H         25.1640  -23.4890   -9.4070 H       1  UNL1        0.1670
     11  C         26.7750  -23.7290  -11.8120 C.2     1  UNL1        0.0320
     12  C         24.5020  -23.0890  -12.4650 C.ar    1  UNL1        0.0860
     13  C         27.1210  -23.7320  -13.1690 C.2     1  UNL1        0.0090
     14  C         26.1910  -23.4110  -14.1700 C.2     1  UNL1       -0.0600
     15  C         26.5910  -23.4600  -15.6160 C.3     1  UNL1        0.0480
     16  C         24.8650  -23.1000  -13.8190 C.2     1  UNL1        0.0400
     17  N         23.2910  -22.8180  -11.8800 N.ar    1  UNL1       -0.2280
     18  C         19.3260  -22.2920   -6.6110 C.2     1  UNL1        0.2560
     19  O         19.2830  -21.2650   -5.9450 O.2     1  UNL1       -0.2670
     20  N         18.4880  -23.3880   -6.5230 N.am    1  UNL1       -0.3220
     21  H         18.7670  -24.2050   -7.0460 H       1  UNL1        0.1690
     22  C         17.3400  -23.5400   -5.7080 C.2     1  UNL1        0.0410
     23  C         17.3870  -23.3960   -4.3160 C.2     1  UNL1        0.0300
     24  C         16.2370  -23.5440   -3.5360 C.2     1  UNL1        0.0020
     25  C         15.0190  -23.8340   -4.1390 C.2     1  UNL1        0.0010
     26  C         14.9510  -23.9780   -5.5230 C.2     1  UNL1        0.0090
     27  C         16.1010  -23.8320   -6.3210 C.2     1  UNL1       -0.0350
     28  C         15.9570  -24.0010   -7.8100 C.3     1  UNL1        0.0500
@<TRIPOS>BOND
     1    15    14    1
     2    14    16    2
     3    14    13    1
     4    16    12    1
     5    13    11    2
     6    12    17   ar
     7    12     9   ar
     8    17     7   ar
     9    11     9    1
    10     9     8   ar
    11     7     8   ar
    12     7     1    1
    13     8    10    1
    14     2     1    2
    15     2     3    1
    16     1     6    1
    17     3     4    2
    18     6     5    2
    19    28    27    1
    20     4     5    1
    21     4    18    1
    22    21    20    1
    23    18    20   am
    24    18    19    2
    25    20    22    1
    26    27    22    2
    27    27    26    1
    28    22    23    1
    29    26    25    2
    30    23    24    2
    31    25    24    1
