@<TRIPOS>MOLECULE
55414_out_ligand_01.pdbqt
 29 32 0 0 0
SMALL
GASTEIGER

@<TRIPOS>ATOM
      1  C         21.8490  -21.7400  -12.3130 C.2     1  UNL1        0.0100
      2  C         21.9580  -22.5700  -11.1860 C.2     1  UNL1        0.0160
      3  C         20.8780  -22.7480  -10.3160 C.2     1  UNL1        0.0180
      4  C         19.6750  -22.0790  -10.5500 C.2     1  UNL1        0.0320
      5  C         19.5480  -21.2520  -11.6730 C.2     1  UNL1        0.0180
      6  C         20.6310  -21.0820  -12.5450 C.2     1  UNL1        0.0160
      7  C         18.5440  -22.2840   -9.6040 C.2     1  UNL1        0.2560
      8  O         17.4180  -21.9890   -9.9830 O.2     1  UNL1       -0.2670
      9  N         18.9100  -22.8310   -8.3880 N.am    1  UNL1       -0.3220
     10  H         19.8680  -23.1410   -8.3150 H       1  UNL1        0.1690
     11  C         18.0820  -23.1060   -7.2700 C.2     1  UNL1        0.0410
     12  C         17.0570  -24.0550   -7.3290 C.2     1  UNL1        0.0300
     13  C         16.2530  -24.3130   -6.2210 C.2     1  UNL1        0.0030
     14  C         16.4610  -23.6240   -5.0340 C.2     1  UNL1        0.0070
     15  C         17.4750  -22.6590   -4.9360 C.2     1  UNL1       -0.0540
     16  C         17.6470  -21.9470   -3.6210 C.3     1  UNL1        0.0490
     17  C         18.2930  -22.3860   -6.0620 C.2     1  UNL1       -0.0290
     18  C         19.3860  -21.3470   -5.9770 C.3     1  UNL1        0.0510
     19  C         23.0070  -21.5880  -13.2000 C.ar    1  UNL1        0.1390
     20  N         24.3060  -21.8760  -12.8420 N.ar    1  UNL1       -0.3380
     21  C         25.1300  -21.6120  -13.9040 C.ar    1  UNL1        0.0620
     22  H         24.6060  -22.2120  -11.9410 H       1  UNL1        0.1670
     23  C         26.5090  -21.7350  -14.0830 C.2     1  UNL1        0.0320
     24  C         24.2720  -21.1470  -14.8900 C.ar    1  UNL1        0.0860
     25  C         27.0150  -21.3590  -15.3340 C.2     1  UNL1        0.0090
     26  C         26.1820  -20.8740  -16.3530 C.2     1  UNL1       -0.0600
     27  C         26.7500  -20.4960  -17.6910 C.3     1  UNL1        0.0480
     28  C         24.7960  -20.7750  -16.1370 C.2     1  UNL1        0.0400
     29  N         22.9750  -21.1340  -14.4400 N.ar    1  UNL1       -0.2280
@<TRIPOS>BOND
     1    27    26    1
     2    26    28    2
     3    26    25    1
     4    28    24    1
     5    25    23    2
     6    24    29   ar
     7    24    21   ar
     8    29    19   ar
     9    23    21    1
    10    21    20   ar
    11    19    20   ar
    12    19     1    1
    13    20    22    1
    14     6     1    2
    15     6     5    1
    16     1     2    1
    17     5     4    2
    18     2     3    2
    19     4     3    1
    20     4     7    1
    21     8     7    2
    22     7     9   am
    23     9    10    1
    24     9    11    1
    25    12    11    2
    26    12    13    1
    27    11    17    1
    28    13    14    2
    29    17    18    1
    30    17    15    2
    31    14    15    1
    32    15    16    1
