@<TRIPOS>MOLECULE
55415_out_ligand_01.pdbqt
 29 32 0 0 0
SMALL
GASTEIGER

@<TRIPOS>ATOM
      1  C         22.6240  -22.1080  -12.0970 C.2     1  UNL1        0.0100
      2  C         23.0380  -22.9280  -11.0360 C.2     1  UNL1        0.0160
      3  C         22.1510  -23.3020  -10.0230 C.2     1  UNL1        0.0180
      4  C         20.8320  -22.8400  -10.0450 C.2     1  UNL1        0.0320
      5  C         20.4000  -22.0270  -11.1000 C.2     1  UNL1        0.0180
      6  C         21.2930  -21.6630  -12.1160 C.2     1  UNL1        0.0160
      7  C         19.9110  -23.2520   -8.9510 C.2     1  UNL1        0.2560
      8  O         19.8950  -24.4320   -8.6220 O.2     1  UNL1       -0.2670
      9  N         19.1820  -22.2180   -8.3950 N.am    1  UNL1       -0.3230
     10  H         19.4200  -21.2800   -8.6900 H       1  UNL1        0.1690
     11  C         18.2050  -22.3050   -7.3810 C.2     1  UNL1        0.0350
     12  C         16.8790  -22.4850   -7.7860 C.2     1  UNL1        0.0300
     13  C         15.8530  -22.5890   -6.8440 C.2     1  UNL1        0.0090
     14  C         16.1300  -22.5160   -5.4720 C.2     1  UNL1       -0.0560
     15  C         15.0040  -22.6280   -4.4830 C.3     1  UNL1        0.0490
     16  C         17.4620  -22.3370   -5.0540 C.2     1  UNL1       -0.0540
     17  C         17.8200  -22.2530   -3.5940 C.3     1  UNL1        0.0490
     18  C         18.4850  -22.2360   -6.0160 C.2     1  UNL1        0.0370
     19  C         23.5910  -21.7460  -13.1380 C.ar    1  UNL1        0.1390
     20  N         24.9500  -21.6510  -12.9400 N.ar    1  UNL1       -0.3380
     21  C         25.5480  -21.2860  -14.1180 C.ar    1  UNL1        0.0620
     22  H         25.4290  -21.7990  -12.0650 H       1  UNL1        0.1670
     23  C         26.8770  -21.0520  -14.4680 C.2     1  UNL1        0.0320
     24  C         24.4920  -21.1620  -15.0080 C.ar    1  UNL1        0.0860
     25  C         27.1200  -20.6810  -15.7980 C.2     1  UNL1        0.0090
     26  C         26.0820  -20.5610  -16.7320 C.2     1  UNL1       -0.0600
     27  C         26.3770  -20.1290  -18.1390 C.3     1  UNL1        0.0480
     28  C         24.7520  -20.7900  -16.3360 C.2     1  UNL1        0.0400
     29  N         23.2990  -21.4400  -14.3900 N.ar    1  UNL1       -0.2280
@<TRIPOS>BOND
     1    27    26    1
     2    26    28    2
     3    26    25    1
     4    28    24    1
     5    25    23    2
     6    24    29   ar
     7    24    21   ar
     8    23    21    1
     9    29    19   ar
    10    21    20   ar
    11    19    20   ar
    12    19     1    1
    13    20    22    1
    14     6     1    2
    15     6     5    1
    16     1     2    1
    17     5     4    2
    18     2     3    2
    19     4     3    1
    20     4     7    1
    21     7     8    2
    22     7     9   am
    23    10     9    1
    24     9    11    1
    25    12    11    2
    26    12    13    1
    27    11    18    1
    28    13    14    2
    29    18    16    2
    30    14    16    1
    31    14    15    1
    32    16    17    1
