@<TRIPOS>MOLECULE
55412_out_ligand_01.pdbqt
 28 31 0 0 0
SMALL
GASTEIGER

@<TRIPOS>ATOM
      1  C         20.4070  -22.2420   -8.1890 C.2     1  UNL1        0.0320
      2  C         21.7870  -22.1490   -7.9730 C.2     1  UNL1        0.0180
      3  C         22.6760  -22.2750   -9.0480 C.2     1  UNL1        0.0160
      4  C         22.1990  -22.4880  -10.3510 C.2     1  UNL1        0.0100
      5  C         20.8130  -22.5730  -10.5510 C.2     1  UNL1        0.0160
      6  C         19.9210  -22.4410   -9.4830 C.2     1  UNL1        0.0180
      7  C         19.4320  -22.1070   -7.0710 C.2     1  UNL1        0.2560
      8  N         18.2580  -22.8180   -7.2450 N.am    1  UNL1       -0.3230
      9  H         18.1180  -23.2570   -8.1450 H       1  UNL1        0.1690
     10  O         19.7260  -21.3780   -6.1330 O.2     1  UNL1       -0.2670
     11  C         17.1770  -22.9190   -6.3450 C.2     1  UNL1        0.0350
     12  C         17.3580  -23.7270   -5.2150 C.2     1  UNL1        0.0290
     13  C         16.3410  -23.8670   -4.2700 C.2     1  UNL1        0.0030
     14  C         15.1300  -23.2030   -4.4430 C.2     1  UNL1        0.0070
     15  C         14.9240  -22.4000   -5.5690 C.2     1  UNL1       -0.0600
     16  C         13.6360  -21.6520   -5.7480 C.3     1  UNL1        0.0480
     17  C         15.9600  -22.2530   -6.5080 C.2     1  UNL1        0.0360
     18  C         23.0960  -22.6290  -11.5040 C.ar    1  UNL1        0.1390
     19  N         23.0920  -21.8650  -12.5820 N.ar    1  UNL1       -0.2280
     20  C         24.0900  -22.3400  -13.3950 C.ar    1  UNL1        0.0860
     21  C         24.5090  -21.8970  -14.6590 C.2     1  UNL1        0.0400
     22  C         24.7380  -23.4150  -12.8030 C.ar    1  UNL1        0.0620
     23  C         25.5700  -22.5630  -15.3000 C.2     1  UNL1       -0.0600
     24  C         26.0540  -22.0820  -16.6370 C.3     1  UNL1        0.0480
     25  C         26.2090  -23.6360  -14.6600 C.2     1  UNL1        0.0090
     26  C         25.8040  -24.0900  -13.3970 C.2     1  UNL1        0.0320
     27  N         24.0930  -23.5740  -11.6060 N.ar    1  UNL1       -0.3380
     28  H         24.3300  -24.2560  -10.9010 H       1  UNL1        0.1670
@<TRIPOS>BOND
     1    24    23    1
     2    23    25    2
     3    23    21    1
     4    25    26    1
     5    21    20    2
     6    26    22    2
     7    20    22   ar
     8    20    19   ar
     9    22    27   ar
    10    19    18   ar
    11    27    18   ar
    12    27    28    1
    13    18     4    1
    14     5     4    2
    15     5     6    1
    16     4     3    1
    17     6     1    2
    18     3     2    2
    19     1     2    1
    20     1     7    1
    21     9     8    1
    22     8     7   am
    23     8    11    1
    24     7    10    2
    25    17    11    2
    26    17    15    1
    27    11    12    1
    28    16    15    1
    29    15    14    2
    30    12    13    2
    31    14    13    1
