@<TRIPOS>MOLECULE
55421_out_ligand_01.pdbqt
 31 35 0 0 0
SMALL
GASTEIGER

@<TRIPOS>ATOM
      1  C         19.6100  -22.1060  -10.6820 C.2     1  UNL1        0.0320
      2  C         20.8050  -22.7760  -10.3990 C.2     1  UNL1        0.0180
      3  C         21.9130  -22.6030  -11.2330 C.2     1  UNL1        0.0160
      4  C         21.8590  -21.7540  -12.3510 C.2     1  UNL1        0.0100
      5  C         20.6600  -21.0780  -12.6160 C.2     1  UNL1        0.0160
      6  C         19.5470  -21.2480  -11.7850 C.2     1  UNL1        0.0180
      7  C         18.4010  -22.2560   -9.8240 C.2     1  UNL1        0.2560
      8  O         17.3480  -21.7820  -10.2320 O.2     1  UNL1       -0.2670
      9  N         18.6040  -22.9720   -8.6580 N.am    1  UNL1       -0.3220
     10  H         19.5040  -23.4170   -8.5680 H       1  UNL1        0.1690
     11  C         17.6730  -23.2360   -7.6170 C.2     1  UNL1        0.0460
     12  C         16.5980  -24.1110   -7.8150 C.2     1  UNL1        0.0300
     13  C         15.6770  -24.3580   -6.8000 C.2     1  UNL1        0.0030
     14  C         15.8140  -23.7310   -5.5690 C.2     1  UNL1        0.0120
     15  C         16.8720  -22.8460   -5.3310 C.2     1  UNL1       -0.0240
     16  C         16.9770  -22.2270   -4.0730 C.2     1  UNL1        0.0120
     17  C         17.8270  -22.5790   -6.3500 C.2     1  UNL1        0.0010
     18  C         18.0130  -21.3430   -3.7900 C.2     1  UNL1        0.0010
     19  C         18.9600  -21.0650   -4.7630 C.2     1  UNL1        0.0010
     20  C         18.8700  -21.6720   -6.0200 C.2     1  UNL1        0.0140
     21  C         23.0520  -21.6100  -13.1930 C.ar    1  UNL1        0.1390
     22  N         23.0910  -21.0390  -14.3850 N.ar    1  UNL1       -0.2280
     23  C         24.3900  -21.1260  -14.8160 C.ar    1  UNL1        0.0870
     24  C         24.9690  -20.6740  -16.0090 C.2     1  UNL1        0.0570
     25  C         25.1770  -21.7750  -13.8750 C.ar    1  UNL1        0.0620
     26  C         26.3360  -20.8980  -16.2000 C.2     1  UNL1        0.0360
     27 CL         27.0820  -20.3550  -17.6560 Cl      1  UNL1       -0.0840
     28  C         27.1090  -21.5540  -15.2390 C.2     1  UNL1        0.0260
     29  C         26.5430  -22.0120  -14.0440 C.2     1  UNL1        0.0340
     30  N         24.3050  -22.0750  -12.8590 N.ar    1  UNL1       -0.3380
     31  H         24.5430  -22.5700  -12.0140 H       1  UNL1        0.1670
@<TRIPOS>BOND
     1    27    26    1
     2    26    24    1
     3    26    28    2
     4    24    23    2
     5    28    29    1
     6    23    22   ar
     7    23    25   ar
     8    22    21   ar
     9    29    25    2
    10    25    30   ar
    11    21    30   ar
    12    21     4    1
    13    30    31    1
    14     5     4    2
    15     5     6    1
    16     4     3    1
    17     6     1    2
    18     3     2    2
    19     1     2    1
    20     1     7    1
    21     8     7    2
    22     7     9   am
    23     9    10    1
    24     9    11    1
    25    12    11    2
    26    12    13    1
    27    11    17    1
    28    13    14    2
    29    17    20    1
    30    17    15    2
    31    20    19    2
    32    14    15    1
    33    15    16    1
    34    19    18    1
    35    16    18    2
