@<TRIPOS>MOLECULE
55423_out_ligand_01.pdbqt
 28 31 0 0 0
SMALL
GASTEIGER

@<TRIPOS>ATOM
      1  C         20.3350  -22.2780   -8.2670 C.2     1  UNL1        0.0320
      2  C         19.8890  -22.4580   -9.5800 C.2     1  UNL1        0.0180
      3  C         20.8170  -22.5750  -10.6200 C.2     1  UNL1        0.0160
      4  C         22.1990  -22.5010  -10.3770 C.2     1  UNL1        0.0100
      5  C         22.6330  -22.3050   -9.0570 C.2     1  UNL1        0.0160
      6  C         21.7070  -22.1890   -8.0120 C.2     1  UNL1        0.0180
      7  C         19.3890  -22.1480   -7.1210 C.2     1  UNL1        0.2560
      8  O         19.7270  -21.4530   -6.1720 O.2     1  UNL1       -0.2670
      9  N         18.2210  -22.8770   -7.2430 N.am    1  UNL1       -0.3230
     10  H         18.1540  -23.5100   -8.0290 H       1  UNL1        0.1690
     11  C         17.1380  -22.9140   -6.3370 C.2     1  UNL1        0.0360
     12  C         17.2890  -23.7150   -5.1960 C.2     1  UNL1        0.0290
     13  C         16.2660  -23.8130   -4.2490 C.2     1  UNL1        0.0040
     14  C         15.0780  -23.1110   -4.4370 C.2     1  UNL1        0.0240
     15  C         14.9220  -22.3180   -5.5710 C.2     1  UNL1        0.0360
     16 CL         13.4480  -21.4550   -5.8020 Cl      1  UNL1       -0.0840
     17  C         15.9420  -22.2170   -6.5190 C.2     1  UNL1        0.0530
     18  C         23.1270  -22.6290  -11.5060 C.ar    1  UNL1        0.1390
     19  N         23.1460  -21.8570  -12.5780 N.ar    1  UNL1       -0.2280
     20  C         24.1670  -22.3180  -13.3700 C.ar    1  UNL1        0.0870
     21  C         24.6090  -21.8580  -14.6170 C.2     1  UNL1        0.0570
     22  C         24.8030  -23.3980  -12.7730 C.ar    1  UNL1        0.0620
     23  C         25.6880  -22.5170  -15.2140 C.2     1  UNL1        0.0360
     24 CL         26.2590  -21.9780  -16.7480 Cl      1  UNL1       -0.0840
     25  C         26.3150  -23.6020  -14.5950 C.2     1  UNL1        0.0260
     26  C         25.8830  -24.0700  -13.3480 C.2     1  UNL1        0.0340
     27  N         24.1280  -23.5720  -11.5910 N.ar    1  UNL1       -0.3380
     28  H         24.3440  -24.2660  -10.8920 H       1  UNL1        0.1670
@<TRIPOS>BOND
     1    24    23    1
     2    23    21    1
     3    23    25    2
     4    21    20    2
     5    25    26    1
     6    20    22   ar
     7    20    19   ar
     8    26    22    2
     9    22    27   ar
    10    19    18   ar
    11    27    18   ar
    12    27    28    1
    13    18     4    1
    14     3     4    2
    15     3     2    1
    16     4     5    1
    17     2     1    2
    18     5     6    2
    19     1     6    1
    20     1     7    1
    21    10     9    1
    22     9     7   am
    23     9    11    1
    24     7     8    2
    25    17    11    2
    26    17    15    1
    27    11    12    1
    28    16    15    1
    29    15    14    2
    30    12    13    2
    31    14    13    1
