@<TRIPOS>MOLECULE
55431_out_ligand_01.pdbqt
 29 32 0 0 0
SMALL
GASTEIGER

@<TRIPOS>ATOM
      1  C         20.4670  -22.3050   -8.2850 C.2     1  UNL1        0.0320
      2  C         20.0050  -22.5400   -9.5820 C.2     1  UNL1        0.0180
      3  C         20.9110  -22.6490  -10.6410 C.2     1  UNL1        0.0160
      4  C         22.2910  -22.5060  -10.4300 C.2     1  UNL1        0.0100
      5  C         22.7440  -22.2570   -9.1250 C.2     1  UNL1        0.0160
      6  C         21.8400  -22.1520   -8.0590 C.2     1  UNL1        0.0180
      7  C         19.4710  -22.1950   -7.1860 C.2     1  UNL1        0.2520
      8  O         19.6520  -21.3940   -6.2760 O.2     1  UNL1       -0.2680
      9  N         18.3630  -23.0110   -7.2830 N.am    1  UNL1       -0.3520
     10  H         18.2650  -23.6270   -8.0780 H       1  UNL1        0.1630
     11  C         17.3370  -23.0670   -6.2320 C.3     1  UNL1        0.0840
     12  C         17.9110  -23.8090   -5.0160 C.3     1  UNL1        0.0250
     13  C         17.0780  -23.8940   -3.7340 C.3     1  UNL1        0.0020
     14  C         16.2810  -22.6620   -3.3190 C.3     1  UNL1        0.0000
     15  C         15.1590  -22.1600   -4.2330 C.3     1  UNL1        0.0000
     16  C         14.2950  -23.1990   -4.9400 C.3     1  UNL1        0.0000
     17  C         14.9540  -24.1740   -5.9170 C.3     1  UNL1        0.0020
     18  C         16.0470  -23.6440   -6.8420 C.3     1  UNL1        0.0250
     19  C         23.2030  -22.6240  -11.5740 C.ar    1  UNL1        0.1390
     20  N         23.2290  -21.8240  -12.6260 N.ar    1  UNL1       -0.2280
     21  C         24.2310  -22.2850  -13.4410 C.ar    1  UNL1        0.0870
     22  C         24.6710  -21.8030  -14.6800 C.2     1  UNL1        0.0570
     23  C         24.8510  -23.3930  -12.8780 C.ar    1  UNL1        0.0620
     24  C         25.7300  -22.4670  -15.3040 C.2     1  UNL1        0.0360
     25 CL         26.2970  -21.9000  -16.8300 Cl      1  UNL1       -0.0840
     26  C         26.3410  -23.5790  -14.7190 C.2     1  UNL1        0.0260
     27  C         25.9110  -24.0710  -13.4810 C.2     1  UNL1        0.0340
     28  N         24.1840  -23.5830  -11.6940 N.ar    1  UNL1       -0.3380
     29  H         24.3960  -24.2950  -11.0120 H       1  UNL1        0.1670
@<TRIPOS>BOND
     1    25    24    1
     2    24    26    2
     3    24    22    1
     4    26    27    1
     5    22    21    2
     6    27    23    2
     7    21    23   ar
     8    21    20   ar
     9    23    28   ar
    10    20    19   ar
    11    28    19   ar
    12    28    29    1
    13    19     4    1
    14     3     4    2
    15     3     2    1
    16     4     5    1
    17     2     1    2
    18     5     6    2
    19     1     6    1
    20     1     7    1
    21    10     9    1
    22     9     7   am
    23     9    11    1
    24     7     8    2
    25    18    11    1
    26    18    17    1
    27    11    12    1
    28    17    16    1
    29    12    13    1
    30    16    15    1
    31    15    14    1
    32    13    14    1
