@<TRIPOS>MOLECULE
55438_out_ligand_01.pdbqt
 32 35 0 0 0
SMALL
GASTEIGER

@<TRIPOS>ATOM
      1  C         22.6350  -22.2460   -9.7610 C.2     1  UNL1        0.0320
      2  C         22.6410  -21.7930   -8.4360 C.2     1  UNL1        0.0180
      3  C         21.5020  -21.9540   -7.6350 C.2     1  UNL1        0.0160
      4  C         20.3490  -22.5700   -8.1450 C.2     1  UNL1        0.0100
      5  C         20.3610  -23.0210   -9.4750 C.2     1  UNL1        0.0160
      6  C         21.4980  -22.8720  -10.2740 C.2     1  UNL1        0.0180
      7  C         23.8300  -22.1020  -10.6370 C.2     1  UNL1        0.2560
      8  N         24.0050  -23.1330  -11.5420 N.am    1  UNL1       -0.3230
      9  H         23.3910  -23.9310  -11.4460 H       1  UNL1        0.1690
     10  O         24.5550  -21.1310  -10.4700 O.2     1  UNL1       -0.2670
     11  C         25.0120  -23.2440  -12.5260 C.2     1  UNL1        0.0370
     12  C         26.1680  -24.0040  -12.3700 C.2     1  UNL1        0.0290
     13  C         27.1210  -24.0530  -13.3890 C.2     1  UNL1        0.0040
     14  C         26.9290  -23.3380  -14.5730 C.2     1  UNL1        0.0290
     15  C         25.7820  -22.5680  -14.7510 C.2     1  UNL1        0.0360
     16  C         24.8290  -22.5270  -13.7190 C.2     1  UNL1        0.0590
     17  N         25.5070  -21.8200  -15.9160 N.am    1  UNL1       -0.3270
     18  C         25.0690  -22.2980  -17.1390 C.2     1  UNL1        0.2180
     19  C         24.8750  -21.1940  -18.1500 C.3     1  UNL1        0.1170
     20  O         24.8680  -23.4660  -17.4470 O.2     1  UNL1       -0.2740
     21  H         25.6540  -20.8220  -15.8470 H       1  UNL1        0.1690
     22  C         19.1380  -22.7570   -7.3410 C.ar    1  UNL1        0.1390
     23  N         18.1700  -23.6210   -7.5920 N.ar    1  UNL1       -0.2280
     24  C         17.2510  -23.4740   -6.5830 C.ar    1  UNL1        0.0860
     25  C         16.0360  -24.1410   -6.3690 C.2     1  UNL1        0.0400
     26  C         17.6600  -22.5020   -5.6820 C.ar    1  UNL1        0.0620
     27  C         15.2680  -23.8170   -5.2350 C.2     1  UNL1       -0.0600
     28  C         13.9510  -24.4980   -5.0040 C.3     1  UNL1        0.0480
     29  C         15.7110  -22.8180   -4.3540 C.2     1  UNL1        0.0090
     30  C         16.9220  -22.1420   -4.5540 C.2     1  UNL1        0.0320
     31  N         18.8600  -22.0680   -6.1810 N.ar    1  UNL1       -0.3380
     32  H         19.4560  -21.3800   -5.7500 H       1  UNL1        0.1670
@<TRIPOS>BOND
     1    19    18    1
     2    20    18    2
     3    18    17   am
     4    17    21    1
     5    17    15    1
     6    15    14    2
     7    15    16    1
     8    14    13    1
     9    16    11    2
    10    13    12    2
    11    11    12    1
    12    11     8    1
    13     8     9    1
    14     8     7   am
    15     7    10    2
    16     7     1    1
    17     6     1    2
    18     6     5    1
    19     1     2    1
    20     5     4    2
    21     2     3    2
    22     4     3    1
    23     4    22    1
    24    23    22   ar
    25    23    24   ar
    26    22    31   ar
    27    24    25    2
    28    24    26   ar
    29    25    27    1
    30    31    32    1
    31    31    26   ar
    32    26    30    2
    33    27    28    1
    34    27    29    2
    35    30    29    1
