@<TRIPOS>MOLECULE
55441_out_ligand_01.pdbqt
 29 32 0 0 0
SMALL
GASTEIGER

@<TRIPOS>ATOM
      1  C         20.7750  -22.5030   -8.7890 C.2     1  UNL1        0.0100
      2  C         21.8950  -22.0250   -8.0900 C.2     1  UNL1        0.0160
      3  C         23.1050  -21.7640   -8.7440 C.2     1  UNL1        0.0180
      4  C         23.2170  -21.9940  -10.1180 C.2     1  UNL1        0.0320
      5  C         22.1040  -22.4590  -10.8290 C.2     1  UNL1        0.0180
      6  C         20.8960  -22.7170  -10.1700 C.2     1  UNL1        0.0160
      7  C         24.4750  -21.7330  -10.8700 C.2     1  UNL1        0.2520
      8  O         25.2450  -20.8610  -10.4840 O.2     1  UNL1       -0.2680
      9  N         24.6840  -22.4960  -11.9990 N.am    1  UNL1       -0.3520
     10  H         23.9990  -23.1890  -12.2620 H       1  UNL1        0.1630
     11  C         25.9220  -22.4270  -12.7610 C.3     1  UNL1        0.0840
     12  C         26.3340  -23.7850  -13.3700 C.3     1  UNL1        0.0250
     13  C         25.2660  -24.5660  -14.1360 C.3     1  UNL1        0.0020
     14  C         25.2570  -24.3590  -15.6510 C.3     1  UNL1        0.0000
     15  C         25.1780  -22.9190  -16.1540 C.3     1  UNL1        0.0000
     16  C         24.1390  -22.0690  -15.4280 C.3     1  UNL1        0.0000
     17  C         24.7280  -20.9360  -14.5940 C.3     1  UNL1        0.0020
     18  C         25.9560  -21.2350  -13.7290 C.3     1  UNL1        0.0250
     19  C         19.5320  -22.7580   -8.0520 C.ar    1  UNL1        0.1390
     20  N         18.5580  -23.6520   -8.4430 N.ar    1  UNL1       -0.3380
     21  C         17.5390  -23.6300   -7.5270 C.ar    1  UNL1        0.0620
     22  H         18.5810  -24.2200   -9.2750 H       1  UNL1        0.1670
     23  C         16.3320  -24.3230   -7.4440 C.2     1  UNL1        0.0320
     24  C         17.9460  -22.6900   -6.5920 C.ar    1  UNL1        0.0860
     25  C         15.5170  -24.0330   -6.3410 C.2     1  UNL1        0.0090
     26  C         15.8980  -23.1010   -5.3650 C.2     1  UNL1       -0.0600
     27  C         14.9830  -22.7920   -4.2160 C.3     1  UNL1        0.0480
     28  C         17.1170  -22.4110   -5.4940 C.2     1  UNL1        0.0400
     29  N         19.1660  -22.1620   -6.9300 N.ar    1  UNL1       -0.2280
@<TRIPOS>BOND
     1    15    14    1
     2    15    16    1
     3    14    13    1
     4    16    17    1
     5    17    18    1
     6    13    12    1
     7    18    11    1
     8    12    11    1
     9    11     9    1
    10    10     9    1
    11     9     7   am
    12     7     8    2
    13     7     4    1
    14     5     6    1
    15     5     4    2
    16     6     1    2
    17     4     3    1
    18    22    20    1
    19     1     2    1
    20     1    19    1
    21     3     2    2
    22    20    19   ar
    23    20    21   ar
    24    19    29   ar
    25    21    23    2
    26    21    24   ar
    27    23    25    1
    28    29    24   ar
    29    24    28    2
    30    25    26    2
    31    28    26    1
    32    26    27    1
