@<TRIPOS>MOLECULE
55440_out_ligand_01.pdbqt
 31 34 0 0 0
SMALL
GASTEIGER

@<TRIPOS>ATOM
      1  C         21.0830  -21.7780  -11.8410 C.2     1  UNL1        0.0100
      2  C         20.9280  -22.7050  -10.8000 C.2     1  UNL1        0.0160
      3  C         19.6900  -22.8910  -10.1790 C.2     1  UNL1        0.0180
      4  C         18.5770  -22.1620  -10.6050 C.2     1  UNL1        0.0320
      5  C         18.7170  -21.2270  -11.6360 C.2     1  UNL1        0.0180
      6  C         19.9620  -21.0400  -12.2520 C.2     1  UNL1        0.0160
      7  C         17.2770  -22.3860   -9.9190 C.2     1  UNL1        0.2510
      8  O         16.2580  -21.8550  -10.3440 O.2     1  UNL1       -0.2680
      9  N         17.3120  -23.1870   -8.7960 N.am    1  UNL1       -0.3530
     10  H         18.2020  -23.5090   -8.4420 H       1  UNL1        0.1630
     11  C         16.1050  -23.5230   -8.0500 C.3     1  UNL1        0.0810
     12  C         15.4470  -22.2550   -7.5120 C.3     1  UNL1        0.0320
     13  C         16.3880  -24.5560   -6.9420 C.3     1  UNL1        0.0290
     14  C         17.8180  -24.5120   -6.3930 C.3     1  UNL1        0.0400
     15  C         18.0330  -23.3270   -5.4850 C.2     1  UNL1       -0.0580
     16  C         17.5550  -23.3400   -4.1680 C.2     1  UNL1        0.0070
     17  C         17.7670  -22.2450   -3.3280 C.2     1  UNL1        0.0010
     18  C         18.4610  -21.1300   -3.7950 C.2     1  UNL1        0.0000
     19  C         18.9450  -21.1090   -5.1010 C.2     1  UNL1        0.0010
     20  C         18.7340  -22.2020   -5.9430 C.2     1  UNL1        0.0070
     21  C         22.4050  -21.6150  -12.4600 C.ar    1  UNL1        0.1390
     22  N         23.5980  -21.9260  -11.8460 N.ar    1  UNL1       -0.3380
     23  C         24.6280  -21.6580  -12.7090 C.ar    1  UNL1        0.0620
     24  H         23.7010  -22.3070  -10.9190 H       1  UNL1        0.1670
     25  C         26.0130  -21.7810  -12.5940 C.2     1  UNL1        0.0320
     26  C         23.9950  -21.1920  -13.8530 C.ar    1  UNL1        0.0860
     27  C         26.7700  -21.4040  -13.7110 C.2     1  UNL1        0.0090
     28  C         26.1690  -20.9400  -14.8910 C.2     1  UNL1       -0.0600
     29  C         27.0160  -20.5150  -16.0540 C.3     1  UNL1        0.0480
     30  C         24.7700  -20.8190  -14.9620 C.2     1  UNL1        0.0400
     31  N         22.6330  -21.1760  -13.6850 N.ar    1  UNL1       -0.2280
@<TRIPOS>BOND
     1    29    28    1
     2    30    28    2
     3    30    26    1
     4    28    27    1
     5    26    31   ar
     6    26    23   ar
     7    27    25    2
     8    31    21   ar
     9    23    25    1
    10    23    22   ar
    11    21    22   ar
    12    21     1    1
    13     6     1    2
    14     6     5    1
    15    22    24    1
    16     1     2    1
    17     5     4    2
    18     2     3    2
    19     4     3    1
    20     4     7    1
    21     8     7    2
    22     7     9   am
    23     9    10    1
    24     9    11    1
    25    11    12    1
    26    11    13    1
    27    13    14    1
    28    14    15    1
    29    20    15    2
    30    20    19    1
    31    15    16    1
    32    19    18    2
    33    16    17    2
    34    18    17    1
