@<TRIPOS>MOLECULE
55459_out_ligand_01.pdbqt
 33 35 0 0 0
SMALL
GASTEIGER

@<TRIPOS>ATOM
      1  C         17.4320  -23.3660   -8.8110 C.2     1  UNL1        0.0860
      2  C         18.8350  -23.4000   -8.8920 C.2     1  UNL1        0.0420
      3  C         19.5060  -22.7140   -9.9070 C.2     1  UNL1        0.0340
      4  C         18.7760  -21.9850  -10.8480 C.2     1  UNL1        0.0170
      5  C         17.3830  -21.9320  -10.7550 C.2     1  UNL1        0.0090
      6  C         16.6860  -22.6150   -9.7390 C.2     1  UNL1       -0.0390
      7  C         15.1880  -22.4930   -9.7120 C.3     1  UNL1        0.0500
      8  S         16.7130  -24.2960   -7.4590 S.O2    1  UNL1        0.2630
      9  O         15.5500  -24.9730   -7.9970 O.2     1  UNL1       -0.2000
     10  O         17.7400  -25.0450   -6.7740 O.2     1  UNL1       -0.2000
     11  N         16.1160  -23.0870   -6.4440 N.pl3   1  UNL1       -0.2800
     12  H         15.4160  -22.5040   -6.8940 H       1  UNL1        0.1790
     13  C         16.9550  -22.5100   -5.4500 C.2     1  UNL1        0.0490
     14  C         16.7420  -22.7500   -4.0840 C.2     1  UNL1       -0.0350
     15  C         17.5740  -22.1050   -3.1540 C.2     1  UNL1        0.0090
     16  C         15.6370  -23.6190   -3.5490 C.3     1  UNL1        0.0500
     17  C         18.6120  -21.2680   -3.5710 C.2     1  UNL1        0.0070
     18  C         18.8480  -21.0630   -4.9300 C.2     1  UNL1       -0.0600
     19  C         19.9480  -20.1520   -5.3850 C.3     1  UNL1        0.0480
     20  C         18.0050  -21.6790   -5.8630 C.2     1  UNL1        0.0370
     21  C         20.9860  -22.8350   -9.9810 C.2     1  UNL1        0.2570
     22  O         21.5050  -23.7830   -9.4040 O.2     1  UNL1       -0.2670
     23  N         21.6110  -21.8300  -10.6800 N.am    1  UNL1       -0.3000
     24  H         21.0810  -21.0330  -11.0020 H       1  UNL1        0.1710
     25  C         22.9610  -21.6990  -10.8910 C.ar    1  UNL1        0.1970
     26  N         23.7620  -21.1970   -9.9770 N.ar    1  UNL1       -0.1220
     27  N         25.0770  -21.1720  -10.4000 N.ar    1  UNL1       -0.1330
     28  C         25.2090  -21.6440  -11.6200 C.ar    1  UNL1        0.1600
     29  S         23.7370  -22.1380  -12.3420 S.2     1  UNL1       -0.0220
     30  S         26.7470  -21.7510  -12.4450 S.3     1  UNL1       -0.0970
     31  C         26.9290  -20.0600  -13.1140 C.3     1  UNL1        0.0460
     32  C         25.6940  -19.6710  -13.9240 C.3     1  UNL1        0.0210
     33  C         27.1210  -19.0960  -11.9440 C.3     1  UNL1        0.0210
@<TRIPOS>BOND
     1    32    31    1
     2    31    30    1
     3    31    33    1
     4    30    28    1
     5    29    28   ar
     6    29    25   ar
     7    28    27   ar
     8    24    23    1
     9    25    23    1
    10    25    26   ar
    11     4     5    2
    12     4     3    1
    13     5     6    1
    14    23    21   am
    15    27    26   ar
    16    21     3    1
    17    21    22    2
    18     3     2    2
    19     6     7    1
    20     6     1    2
    21     2     1    1
    22     1     8    1
    23     9     8    2
    24     8    10    2
    25     8    11    1
    26    12    11    1
    27    11    13    1
    28    20    13    2
    29    20    18    1
    30    13    14    1
    31    19    18    1
    32    18    17    2
    33    14    16    1
    34    14    15    2
    35    17    15    1
