@<TRIPOS>MOLECULE
55464_out_ligand_01.pdbqt
 32 35 0 0 0
SMALL
GASTEIGER

@<TRIPOS>ATOM
      1  C         22.8960  -22.5890   -9.3470 C.2     1  UNL1        0.0320
      2  C         22.3790  -21.9410   -8.2190 C.2     1  UNL1        0.0170
      3  C         21.1220  -22.2970   -7.7210 C.2     1  UNL1        0.0100
      4  C         20.3630  -23.2970   -8.3470 C.2     1  UNL1       -0.0300
      5  C         20.8830  -23.9330   -9.4840 C.2     1  UNL1        0.0100
      6  C         22.1380  -23.5770   -9.9850 C.2     1  UNL1        0.0170
      7  C         24.2270  -22.2380   -9.9160 C.2     1  UNL1        0.2510
      8  O         24.5080  -21.0720  -10.1690 O.2     1  UNL1       -0.2680
      9  N         25.0810  -23.2900  -10.1650 N.am    1  UNL1       -0.3530
     10  H         24.7010  -24.2260  -10.2040 H       1  UNL1        0.1630
     11  C         26.3390  -23.0560  -10.8330 C.3     1  UNL1        0.1610
     12  C         26.2420  -23.4150  -12.2920 C.2     1  UNL1       -0.0400
     13  C         27.0370  -24.4340  -12.8310 C.2     1  UNL1        0.0090
     14  C         26.9560  -24.7530  -14.1870 C.2     1  UNL1        0.0010
     15  C         26.0850  -24.0500  -15.0200 C.2     1  UNL1        0.0160
     16  C         25.2940  -23.0120  -14.5080 C.2     1  UNL1        0.0480
     17  C         25.3760  -22.7070  -13.1390 C.2     1  UNL1        0.0250
     18  C         24.3390  -22.2590  -15.4020 C.3     1  UNL1        0.4170
     19  F         23.2750  -21.7410  -14.7290 F       1  UNL1       -0.1660
     20  F         23.8160  -23.0460  -16.3830 F       1  UNL1       -0.1660
     21  F         24.9210  -21.2040  -16.0390 F       1  UNL1       -0.1660
     22  C         19.0000  -23.6810   -7.8070 C.3     1  UNL1        0.3110
     23  N         17.9570  -22.6910   -8.1130 N.3     1  UNL1        0.0970
     24  C         16.7400  -23.3180   -8.6540 C.3     1  UNL1        0.2770
     25  C         16.0030  -24.2390   -7.6680 C.3     1  UNL1        0.0690
     26  C         15.9280  -23.6670   -6.2750 C.2     1  UNL1       -0.0490
     27  C         15.1070  -24.2710   -5.3140 C.2     1  UNL1        0.0070
     28  C         16.7260  -22.5650   -5.9170 C.2     1  UNL1       -0.0240
     29  C         15.0630  -23.7740   -4.0120 C.2     1  UNL1        0.0010
     30  C         15.8390  -22.6730   -3.6590 C.2     1  UNL1        0.0010
     31  C         16.6650  -22.0690   -4.6070 C.2     1  UNL1        0.0090
     32  C         17.5930  -21.8670   -6.9450 C.3     1  UNL1        0.3110
@<TRIPOS>BOND
     1    20    18    1
     2    21    18    1
     3    18    19    1
     4    18    16    1
     5    15    16    2
     6    15    14    1
     7    16    17    1
     8    14    13    2
     9    17    12    2
    10    13    12    1
    11    12    11    1
    12    11     9    1
    13    10     9    1
    14     8     7    2
    15     9     7   am
    16     6     5    1
    17     6     1    2
    18     7     1    1
    19     5     4    2
    20     1     2    1
    21    24    23    1
    22    24    25    1
    23     4    22    1
    24     4     3    1
    25     2     3    2
    26    23    22    1
    27    23    32    1
    28    25    26    1
    29    32    28    1
    30    26    28    2
    31    26    27    1
    32    28    31    1
    33    27    29    2
    34    31    30    2
    35    29    30    1
