@<TRIPOS>MOLECULE
55471_out_ligand_01.pdbqt
 36 39 0 0 0
SMALL
GASTEIGER

@<TRIPOS>ATOM
      1  C         18.5520  -22.4270   -9.9680 C.2     1  UNL1        0.0810
      2  C         19.8600  -22.8660   -9.7120 C.2     1  UNL1        0.0420
      3  C         20.9220  -22.3990  -10.4920 C.2     1  UNL1        0.0330
      4  C         20.6790  -21.4820  -11.5180 C.2     1  UNL1        0.0170
      5  C         19.3750  -21.0480  -11.7740 C.2     1  UNL1        0.0090
      6  C         18.2930  -21.5070  -11.0030 C.2     1  UNL1       -0.0390
      7  C         16.9150  -21.0060  -11.3410 C.3     1  UNL1        0.0500
      8  C         22.2950  -22.8680  -10.1710 C.2     1  UNL1        0.2510
      9  O         22.4630  -23.7010   -9.2900 O.2     1  UNL1       -0.2680
     10  N         23.3130  -22.3240  -10.9260 N.am    1  UNL1       -0.3560
     11  H         23.0770  -21.7800  -11.7460 H       1  UNL1        0.1620
     12  C         24.6980  -22.7460  -10.7740 C.3     1  UNL1        0.1370
     13  C         25.5540  -22.7020  -12.0840 C.3     1  UNL1        0.0070
     14  C         24.6960  -22.9770  -13.3570 C.3     1  UNL1        0.0420
     15  C         24.7600  -24.4310  -13.8060 C.3     1  UNL1        0.1680
     16  O         26.0870  -24.8610  -14.1180 O.3     1  UNL1       -0.3910
     17  C         27.1210  -24.2220  -13.3710 C.3     1  UNL1        0.1680
     18  C         26.6490  -23.8090  -11.9850 C.3     1  UNL1        0.0420
     19  C         26.1130  -21.2560  -12.1970 C.2     1  UNL1       -0.0480
     20  C         26.3650  -20.7120  -13.4760 C.2     1  UNL1        0.0080
     21  C         26.8600  -19.4150  -13.6370 C.2     1  UNL1        0.0010
     22  C         27.1210  -18.6290  -12.5220 C.2     1  UNL1        0.0000
     23  C         26.8890  -19.1410  -11.2500 C.2     1  UNL1        0.0010
     24  C         26.3930  -20.4410  -11.0890 C.2     1  UNL1        0.0080
     25  S         17.2420  -23.0860   -8.9400 S.O2    1  UNL1        0.2460
     26  O         16.0840  -23.2940   -9.7810 O.2     1  UNL1       -0.2060
     27  O         17.8020  -24.1610   -8.1480 O.2     1  UNL1       -0.2060
     28  N         16.9930  -21.7700   -7.8840 N.pl3   1  UNL1       -0.1810
     29  H         17.7940  -21.1440   -7.9610 H       1  UNL1        0.1460
     30  C         16.7250  -22.1360   -6.5200 C.2     1  UNL1        0.0280
     31  C         15.4720  -22.6770   -6.2120 C.2     1  UNL1        0.0250
     32  C         15.1710  -23.0650   -4.9070 C.2     1  UNL1        0.0020
     33  C         16.1230  -22.9150   -3.9040 C.2     1  UNL1        0.0010
     34  C         17.3770  -22.3820   -4.2060 C.2     1  UNL1        0.0080
     35  C         17.6970  -21.9890   -5.5170 C.2     1  UNL1       -0.0400
     36  C         19.0630  -21.4270   -5.7930 C.3     1  UNL1        0.0500
@<TRIPOS>BOND
     1    16    15    1
     2    16    17    1
     3    15    14    1
     4    21    20    1
     5    21    22    2
     6    20    19    2
     7    17    18    1
     8    14    13    1
     9    22    23    1
    10    19    13    1
    11    19    24    1
    12    13    18    1
    13    13    12    1
    14     5     4    2
    15     5     6    1
    16    11    10    1
    17     4     3    1
    18     7     6    1
    19    23    24    2
    20     6     1    2
    21    10    12    1
    22    10     8   am
    23     3     8    1
    24     3     2    2
    25     8     9    2
    26     1     2    1
    27     1    25    1
    28    26    25    2
    29    25    27    2
    30    25    28    1
    31    29    28    1
    32    28    30    1
    33    30    31    2
    34    30    35    1
    35    31    32    1
    36    36    35    1
    37    35    34    2
    38    32    33    2
    39    34    33    1
