@<TRIPOS>MOLECULE
55484_out_ligand_01.pdbqt
 36 39 0 0 0
SMALL
GASTEIGER

@<TRIPOS>ATOM
      1  C         23.0990  -22.3780  -11.6180 C.2     1  UNL1        0.0860
      2  C         22.5650  -22.7020  -10.3600 C.2     1  UNL1        0.0420
      3  C         21.2350  -22.3950  -10.0600 C.2     1  UNL1        0.0330
      4  C         20.4350  -21.7690  -11.0200 C.2     1  UNL1        0.0170
      5  C         20.9710  -21.4300  -12.2640 C.2     1  UNL1        0.0090
      6  C         22.3080  -21.7230  -12.5850 C.2     1  UNL1       -0.0390
      7  C         22.8250  -21.3050  -13.9340 C.3     1  UNL1        0.0500
      8  C         20.6970  -22.7950   -8.7350 C.2     1  UNL1        0.2510
      9  O         21.2620  -22.4330   -7.7110 O.2     1  UNL1       -0.2680
     10  N         19.5630  -23.5720   -8.7550 N.am    1  UNL1       -0.3560
     11  H         19.1440  -23.8230   -9.6410 H       1  UNL1        0.1620
     12  C         19.0170  -24.2080   -7.5670 C.3     1  UNL1        0.1370
     13  C         17.7200  -23.5050   -7.0450 C.3     1  UNL1        0.0070
     14  C         17.1640  -22.6140   -8.1960 C.3     1  UNL1        0.0420
     15  C         15.6450  -22.4450   -8.1700 C.3     1  UNL1        0.1680
     16  O         15.1170  -22.6350   -6.8650 O.3     1  UNL1       -0.3910
     17  C         15.2960  -23.9650   -6.3830 C.3     1  UNL1        0.1680
     18  C         16.6410  -24.5810   -6.7760 C.3     1  UNL1        0.0420
     19  C         18.0390  -22.7660   -5.7190 C.2     1  UNL1       -0.0480
     20  C         17.7670  -23.3180   -4.4570 C.2     1  UNL1        0.0080
     21  C         18.0390  -22.6140   -3.2790 C.2     1  UNL1        0.0010
     22  C         18.5990  -21.3430   -3.3350 C.2     1  UNL1        0.0000
     23  C         18.8980  -20.7780   -4.5700 C.2     1  UNL1        0.0010
     24  C         18.6260  -21.4820   -5.7460 C.2     1  UNL1        0.0080
     25  S         24.8130  -22.7930  -11.9140 S.O2    1  UNL1        0.2630
     26  O         25.3440  -23.3010  -10.6660 O.2     1  UNL1       -0.2000
     27  O         24.9020  -23.5800  -13.1250 O.2     1  UNL1       -0.2000
     28  N         25.5500  -21.3020  -12.1660 N.pl3   1  UNL1       -0.2810
     29  H         26.1330  -21.0500  -11.3710 H       1  UNL1        0.1790
     30  C         25.9870  -20.8870  -13.4570 C.2     1  UNL1        0.0420
     31  C         26.5010  -21.7690  -14.4060 C.2     1  UNL1        0.0300
     32  C         26.8660  -21.3070  -15.6750 C.2     1  UNL1        0.0090
     33  C         26.6970  -19.9620  -16.0200 C.2     1  UNL1       -0.0620
     34  C         27.1210  -19.4740  -17.3730 C.3     1  UNL1        0.0480
     35  C         26.1630  -19.0830  -15.0730 C.2     1  UNL1        0.0090
     36  C         25.7980  -19.5480  -13.8070 C.2     1  UNL1        0.0300
@<TRIPOS>BOND
     1    34    33    1
     2    33    32    2
     3    33    35    1
     4    32    31    1
     5    35    36    2
     6    31    30    2
     7     7     6    1
     8    36    30    1
     9    30    28    1
    10    27    25    2
    11     6     5    1
    12     6     1    2
    13     5     4    2
    14    28    25    1
    15    28    29    1
    16    25     1    1
    17    25    26    2
    18     1     2    1
    19     4     3    1
    20     2     3    2
    21     3     8    1
    22    11    10    1
    23    10     8   am
    24    10    12    1
    25     8     9    2
    26    14    15    1
    27    14    13    1
    28    15    16    1
    29    12    13    1
    30    13    18    1
    31    13    19    1
    32    16    17    1
    33    18    17    1
    34    24    19    2
    35    24    23    1
    36    19    20    1
    37    23    22    2
    38    20    21    2
    39    22    21    1
