@<TRIPOS>MOLECULE
55486_out_ligand_01.pdbqt
 39 42 0 0 0
SMALL
GASTEIGER

@<TRIPOS>ATOM
      1  N         23.4570  -23.4230  -11.0950 N.pl3   1  UNL1       -0.1790
      2  H         22.5660  -23.0540  -11.4710 H       1  UNL1        0.1460
      3  S         23.4600  -23.1000   -9.4140 S.O2    1  UNL1        0.2720
      4  O         23.5360  -21.6600   -9.2650 O.2     1  UNL1       -0.2030
      5  O         24.4210  -23.9730   -8.7710 O.2     1  UNL1       -0.2030
      6  C         21.8740  -23.5540   -8.7740 C.ar    1  UNL1        0.2330
      7  N         21.2430  -24.6910   -8.9880 N.ar    1  UNL1       -0.1270
      8  N         19.9870  -24.6880   -8.4030 N.ar    1  UNL1       -0.1220
      9  C         19.7410  -23.5570   -7.7880 C.ar    1  UNL1        0.1970
     10  S         20.9920  -22.3990   -7.8690 S.2     1  UNL1       -0.0150
     11  N         18.6430  -23.1480   -7.0850 N.am    1  UNL1       -0.3000
     12  C         17.7770  -24.0420   -6.5040 C.2     1  UNL1        0.2580
     13  O         17.8010  -25.2610   -6.5740 O.2     1  UNL1       -0.2670
     14  H         18.4640  -22.1560   -7.0370 H       1  UNL1        0.1710
     15  C         16.6620  -23.3930   -5.7690 C.2     1  UNL1        0.0380
     16  C         15.6070  -22.8860   -6.5420 C.2     1  UNL1        0.0170
     17  C         14.5460  -22.2240   -5.9280 C.2     1  UNL1        0.0010
     18  C         14.5360  -22.0700   -4.5430 C.2     1  UNL1        0.0010
     19  C         15.5750  -22.5930   -3.7680 C.2     1  UNL1        0.0070
     20  C         16.6440  -23.2790   -4.3660 C.2     1  UNL1       -0.0460
     21  C         17.7170  -23.8610   -3.4900 C.3     1  UNL1        0.0490
     22  C         24.5850  -22.8790  -11.8160 C.2     1  UNL1        0.0380
     23  C         25.8750  -23.2350  -11.4100 C.2     1  UNL1        0.0250
     24  C         26.9900  -22.6700  -12.0300 C.2     1  UNL1        0.0020
     25  C         26.8260  -21.7540  -13.0660 C.2     1  UNL1        0.0010
     26  C         25.5440  -21.3960  -13.4860 C.2     1  UNL1        0.0190
     27  C         24.4150  -21.9440  -12.8550 C.2     1  UNL1        0.0540
     28  C         23.0490  -21.6090  -13.3420 C.2     1  UNL1        0.2530
     29  O         22.8820  -21.3900  -14.5380 O.2     1  UNL1       -0.2680
     30  N         22.0470  -21.5620  -12.3970 N.am    1  UNL1       -0.3570
     31  H         22.2190  -21.9490  -11.4790 H       1  UNL1        0.1620
     32  C         20.6790  -21.2090  -12.7360 C.3     1  UNL1        0.1270
     33  C         19.9380  -20.4850  -11.6070 C.3     1  UNL1        0.0580
     34  C         18.6910  -21.1850  -11.1290 C.2     1  UNL1       -0.0570
     35  C         18.6910  -22.5710  -10.9130 C.2     1  UNL1        0.0070
     36  C         17.5380  -23.2200  -10.4690 C.2     1  UNL1        0.0010
     37  C         16.3720  -22.4930  -10.2430 C.2     1  UNL1        0.0000
     38  C         16.3590  -21.1160  -10.4610 C.2     1  UNL1        0.0010
     39  C         17.5130  -20.4650  -10.8980 C.2     1  UNL1        0.0070
@<TRIPOS>BOND
     1    29    28    2
     2    26    25    2
     3    26    27    1
     4    28    27    1
     5    28    30   am
     6    25    24    1
     7    27    22    2
     8    32    30    1
     9    32    33    1
    10    30    31    1
    11    24    23    2
    12    22    23    1
    13    22     1    1
    14    33    34    1
    15     2     1    1
    16    34    35    2
    17    34    39    1
    18     1     3    1
    19    35    36    1
    20    39    38    2
    21    36    37    2
    22    38    37    1
    23     3     4    2
    24     3     6    1
    25     3     5    2
    26     7     6   ar
    27     7     8   ar
    28     6    10   ar
    29     8     9   ar
    30    10     9   ar
    31     9    11    1
    32    11    14    1
    33    11    12   am
    34    13    12    2
    35    16    17    1
    36    16    15    2
    37    12    15    1
    38    17    18    2
    39    15    20    1
    40    18    19    1
    41    20    19    2
    42    20    21    1
