@<TRIPOS>MOLECULE
55515_out_ligand_01.pdbqt
 36 40 0 0 0
SMALL
GASTEIGER

@<TRIPOS>ATOM
      1  S         22.7150  -23.0710   -8.9040 S.O2    1  UNL1        0.2850
      2  O         22.5770  -22.1380   -7.8060 O.2     1  UNL1       -0.1980
      3  O         23.3850  -24.3430   -8.7350 O.2     1  UNL1       -0.1980
      4  C         23.5960  -22.2530  -10.2000 C.ar    1  UNL1        0.2370
      5  N         24.3390  -21.1760  -10.0360 N.ar    1  UNL1       -0.1260
      6  N         24.9440  -20.8030  -11.2200 N.ar    1  UNL1       -0.1220
      7  C         24.6700  -21.6370  -12.1990 C.ar    1  UNL1        0.1970
      8  S         23.6130  -22.9060  -11.7720 S.2     1  UNL1       -0.0150
      9  N         25.1770  -21.4660  -13.4630 N.am    1  UNL1       -0.3000
     10  C         24.4500  -21.3080  -14.6180 C.2     1  UNL1        0.2570
     11  O         23.2320  -21.3340  -14.7330 O.2     1  UNL1       -0.2670
     12  H         26.1770  -21.6110  -13.5180 H       1  UNL1        0.1710
     13  C         25.2780  -21.1620  -15.8470 C.2     1  UNL1        0.0320
     14  C         25.5300  -22.2490  -16.6930 C.2     1  UNL1        0.0170
     15  C         26.2950  -22.0650  -17.8450 C.2     1  UNL1        0.0020
     16  C         26.8110  -20.8050  -18.1530 C.2     1  UNL1        0.0070
     17  C         26.5870  -19.7170  -17.3000 C.2     1  UNL1       -0.0610
     18  C         27.1210  -18.3570  -17.6350 C.3     1  UNL1        0.0480
     19  C         25.8150  -19.9040  -16.1460 C.2     1  UNL1        0.0230
     20  N         21.1720  -23.4230   -9.4750 N.3     1  UNL1       -0.3040
     21  H         21.1210  -23.5910  -10.4790 H       1  UNL1        0.1730
     22  C         20.0240  -22.7500   -8.8430 C.3     1  UNL1        0.1320
     23  C         19.3120  -23.7990   -7.9870 C.3     1  UNL1        0.0690
     24  C         17.9150  -23.3400   -7.5440 C.3     1  UNL1        0.0700
     25  C         17.9220  -22.1030   -6.6070 C.3     1  UNL1        0.0380
     26  O         17.1060  -23.0310   -8.6960 O.2     1  UNL1       -0.3400
     27  C         17.2160  -24.5470   -6.8570 C.3     1  UNL1        0.0380
     28  C         17.9830  -22.4930   -5.1350 C.3     1  UNL1        0.0030
     29  C         16.7500  -23.2960   -4.7190 C.3     1  UNL1        0.0000
     30  C         16.1430  -24.1030   -5.8690 C.3     1  UNL1        0.0030
     31  C         17.6920  -22.3150   -9.7010 C.2     1  UNL1        0.0780
     32  C         16.8050  -21.7540  -10.6240 C.2     1  UNL1        0.0370
     33  C         19.0710  -22.1420   -9.8420 C.2     1  UNL1       -0.0010
     34  C         17.2830  -20.9790  -11.6770 C.2     1  UNL1        0.0030
     35  C         18.6510  -20.7650  -11.8100 C.2     1  UNL1        0.0010
     36  C         19.5390  -21.3400  -10.8980 C.2     1  UNL1        0.0120
@<TRIPOS>BOND
     1    16    15    2
     2    16    17    1
     3    15    14    1
     4    18    17    1
     5    17    19    2
     6    14    13    2
     7    19    13    1
     8    13    10    1
     9    11    10    2
    10    10     9   am
    11    12     9    1
    12     9     7    1
    13     7     8   ar
    14     7     6   ar
    15    35    34    2
    16    35    36    1
    17     8     4   ar
    18    34    32    1
    19     6     5   ar
    20    36    33    2
    21    32    31    2
    22    21    20    1
    23     4     5   ar
    24     4     1    1
    25    33    31    1
    26    33    22    1
    27    31    26    1
    28    20     1    1
    29    20    22    1
    30     1     3    2
    31     1     2    2
    32    22    23    1
    33    26    24    1
    34    23    24    1
    35    24    27    1
    36    24    25    1
    37    27    30    1
    38    25    28    1
    39    30    29    1
    40    28    29    1
