@<TRIPOS>MOLECULE
55534_out_ligand_01.pdbqt
 35 37 0 0 0
SMALL
GASTEIGER

@<TRIPOS>ATOM
      1  C         17.7910  -23.5840   -8.5670 C.2     1  UNL1        0.0860
      2  C         19.1230  -23.9920   -8.3730 C.2     1  UNL1        0.0420
      3  C         20.1370  -23.5020   -9.2040 C.2     1  UNL1        0.0330
      4  C         19.8120  -22.6430  -10.2560 C.2     1  UNL1        0.0170
      5  C         18.4890  -22.2440  -10.4550 C.2     1  UNL1        0.0090
      6  C         17.4600  -22.6840   -9.6000 C.2     1  UNL1       -0.0390
      7  C         16.0640  -22.2170   -9.8880 C.3     1  UNL1        0.0500
      8  C         21.5720  -23.8560   -9.0060 C.2     1  UNL1        0.2510
      9  O         21.8830  -25.0010   -8.6940 O.2     1  UNL1       -0.2680
     10  N         22.4830  -22.8510   -9.2540 N.am    1  UNL1       -0.3530
     11  H         22.1640  -22.0200   -9.7310 H       1  UNL1        0.1630
     12  C         23.8940  -23.1430   -9.3950 C.3     1  UNL1        0.1610
     13  C         24.4320  -22.4660  -10.6340 C.2     1  UNL1       -0.0400
     14  C         25.7340  -21.9460  -10.6600 C.2     1  UNL1        0.0090
     15  C         26.1930  -21.2370  -11.7710 C.2     1  UNL1        0.0010
     16  C         25.3570  -21.0430  -12.8700 C.2     1  UNL1        0.0160
     17  C         24.0500  -21.5600  -12.8720 C.2     1  UNL1        0.0480
     18  C         23.5980  -22.2720  -11.7490 C.2     1  UNL1        0.0250
     19  C         23.1140  -21.3010  -14.0270 C.3     1  UNL1        0.4170
     20  F         23.2320  -20.0440  -14.5420 F       1  UNL1       -0.1660
     21  F         23.3300  -22.1540  -15.0670 F       1  UNL1       -0.1660
     22  F         21.8000  -21.4410  -13.7000 F       1  UNL1       -0.1660
     23  S         16.5690  -24.2560   -7.4540 S.O2    1  UNL1        0.2630
     24  O         17.2710  -25.1270   -6.5350 O.2     1  UNL1       -0.2000
     25  O         15.4650  -24.7670   -8.2430 O.2     1  UNL1       -0.2000
     26  N         16.0410  -22.9200   -6.5620 N.pl3   1  UNL1       -0.2800
     27  H         15.5470  -22.2570   -7.1610 H       1  UNL1        0.1790
     28  C         16.8960  -22.3900   -5.5470 C.2     1  UNL1        0.0490
     29  C         16.6150  -22.6300   -4.1920 C.2     1  UNL1       -0.0350
     30  C         17.4750  -22.0870   -3.2220 C.2     1  UNL1        0.0090
     31  C         15.4270  -23.4390   -3.7530 C.3     1  UNL1        0.0500
     32  C         18.5770  -21.3090   -3.5930 C.2     1  UNL1        0.0070
     33  C         18.8370  -21.0490   -4.9410 C.2     1  UNL1       -0.0600
     34  C         20.0280  -20.2310   -5.3490 C.3     1  UNL1        0.0480
     35  C         17.9990  -21.6080   -5.9140 C.2     1  UNL1        0.0370
@<TRIPOS>BOND
     1    21    19    1
     2    20    19    1
     3    19    22    1
     4    19    17    1
     5    17    16    2
     6    17    18    1
     7    16    15    1
     8    15    14    2
     9    18    13    2
    10    14    13    1
    11    13    12    1
    12     5     4    2
    13     5     6    1
    14     4     3    1
    15     7     6    1
    16    11    10    1
    17     6     1    2
    18    12    10    1
    19    10     8   am
    20     3     8    1
    21     3     2    2
    22     8     9    2
    23     1     2    1
    24     1    23    1
    25    25    23    2
    26    23    26    1
    27    23    24    2
    28    27    26    1
    29    26    28    1
    30    35    28    2
    31    35    33    1
    32    28    29    1
    33    34    33    1
    34    33    32    2
    35    29    31    1
    36    29    30    2
    37    32    30    1
