@<TRIPOS>MOLECULE
55554_out_ligand_01.pdbqt
 32 35 0 0 0
SMALL
GASTEIGER

@<TRIPOS>ATOM
      1  C         19.2910  -22.6350   -7.9050 C.2     1  UNL1        0.0710
      2  C         18.7090  -22.1580   -9.2010 C.2     1  UNL1        0.0690
      3  C         19.5840  -21.8860  -10.1880 C.2     1  UNL1        0.1460
      4  N         20.9460  -22.0520   -9.9640 N.pl3   1  UNL1       -0.2100
      5  N         21.9740  -21.8350  -10.8240 N.2     1  UNL1       -0.1600
      6  C         23.0870  -22.1350  -10.1280 C.2     1  UNL1        0.1480
      7  C         22.7790  -22.5360   -8.8120 C.2     1  UNL1        0.0910
      8  C         21.4090  -22.4830   -8.7180 C.2     1  UNL1        0.1540
      9  N         20.5680  -22.7690   -7.6830 N.2     1  UNL1       -0.2290
     10  C         24.4250  -22.0270  -10.7280 C.2     1  UNL1        0.2720
     11  O         25.1210  -21.0210  -10.6380 O.2     1  UNL1       -0.2660
     12  N         24.8080  -23.1620  -11.4080 N.am    1  UNL1       -0.3510
     13  H         24.0900  -23.8740  -11.5120 H       1  UNL1        0.1630
     14  C         25.9930  -23.1960  -12.2210 C.3     1  UNL1        0.1630
     15  C         25.6450  -23.2660  -13.6770 C.2     1  UNL1       -0.0230
     16  C         25.1870  -22.1400  -14.3690 C.2     1  UNL1        0.0120
     17  C         24.8950  -22.2360  -15.7250 C.2     1  UNL1        0.0200
     18  C         25.0740  -23.4590  -16.3500 C.2     1  UNL1        0.1160
     19  N         25.5160  -24.5670  -15.7190 N.2     1  UNL1       -0.2730
     20  C         25.7930  -24.4440  -14.4000 C.2     1  UNL1        0.1240
     21  C         19.1900  -21.3960  -11.5270 C.3     1  UNL1        0.4340
     22  F         19.3140  -20.0400  -11.6170 F       1  UNL1       -0.1650
     23  F         19.9590  -21.9050  -12.5210 F       1  UNL1       -0.1650
     24  F         17.8960  -21.6690  -11.8250 F       1  UNL1       -0.1650
     25  C         18.3260  -22.9420   -6.8110 C.2     1  UNL1       -0.0070
     26  C         17.2710  -23.8400   -6.9880 C.2     1  UNL1        0.0140
     27  C         16.3860  -24.0920   -5.9390 C.2     1  UNL1        0.0080
     28  C         16.5400  -23.4580   -4.6950 C.2     1  UNL1       -0.0560
     29  C         15.5680  -23.7650   -3.5890 C.3     1  UNL1        0.0490
     30  C         17.6250  -22.5800   -4.5010 C.2     1  UNL1       -0.0550
     31  C         18.5060  -22.3280   -5.5650 C.2     1  UNL1        0.0210
     32  C         17.8500  -21.8870   -3.1840 C.3     1  UNL1        0.0490
@<TRIPOS>BOND
     1    18    17    1
     2    18    19    2
     3    17    16    2
     4    19    20    1
     5    20    15    2
     6    16    15    1
     7    15    14    1
     8    23    21    1
     9    14    12    1
    10    24    21    1
    11    22    21    1
    12    21     3    1
    13    13    12    1
    14    12    10   am
    15     5     6    2
    16     5     4    1
    17    10    11    2
    18    10     6    1
    19     3     4    1
    20     3     2    2
    21     6     7    1
    22     4     8    1
    23     2     1    1
    24     7     8    2
    25     8     9    1
    26     1     9    2
    27     1    25    1
    28    26    25    2
    29    26    27    1
    30    25    31    1
    31    27    28    2
    32    31    30    2
    33    28    30    1
    34    28    29    1
    35    30    32    1
