@<TRIPOS>MOLECULE
55578_out_ligand_01.pdbqt
 31 33 0 0 0
SMALL
GASTEIGER

@<TRIPOS>ATOM
      1  C         22.1930  -22.0870  -11.7480 C.2     1  UNL1        0.0490
      2  C         22.9190  -22.8430  -10.9150 C.2     1  UNL1        0.0920
      3  C         22.2950  -23.5670   -9.7980 C.2     1  UNL1        0.2490
      4  O         23.0140  -24.1530   -8.9870 O.2     1  UNL1       -0.2680
      5  N         20.9130  -23.5530   -9.7090 N.am    1  UNL1       -0.3050
      6  C         20.1200  -22.6760  -10.5140 C.2     1  UNL1        0.0490
      7  C         18.7410  -22.5170  -10.3040 C.2     1  UNL1        0.0300
      8  C         17.9980  -21.6140  -11.0690 C.2     1  UNL1        0.0020
      9  C         18.6230  -20.8500  -12.0450 C.2     1  UNL1        0.0010
     10  C         19.9910  -20.9960  -12.2670 C.2     1  UNL1        0.0150
     11  C         20.7490  -21.9180  -11.5250 C.2     1  UNL1        0.0070
     12  C         20.3060  -24.3750   -8.6610 C.3     1  UNL1        0.2350
     13  C         19.5990  -23.5160   -7.6090 C.2     1  UNL1        0.2400
     14  O         20.1120  -22.4780   -7.2000 O.2     1  UNL1       -0.2710
     15  N         18.3710  -24.0350   -7.2300 N.am    1  UNL1       -0.3260
     16  H         18.0930  -24.9010   -7.6960 H       1  UNL1        0.1690
     17  C         17.4810  -23.5350   -6.2600 C.2     1  UNL1        0.0360
     18  C         17.8770  -23.6540   -4.9200 C.2     1  UNL1        0.0320
     19  C         17.0620  -23.1770   -3.8920 C.2     1  UNL1        0.0460
     20  C         15.8470  -22.5750   -4.2040 C.2     1  UNL1        0.1380
     21  F         15.0800  -22.1190   -3.2030 F       1  UNL1       -0.2040
     22  C         15.4420  -22.4520   -5.5300 C.2     1  UNL1        0.0740
     23 CL         13.9370  -21.7050   -5.9150 Cl      1  UNL1       -0.0810
     24  C         16.2560  -22.9320   -6.5600 C.2     1  UNL1        0.0560
     25  C         22.9750  -21.4880  -12.8670 C.2     1  UNL1        0.2520
     26  N         24.3310  -21.4510  -12.6460 N.am    1  UNL1       -0.3570
     27  H         24.6670  -21.6530  -11.7130 H       1  UNL1        0.1620
     28  O         22.4250  -21.0180  -13.8550 O.2     1  UNL1       -0.2680
     29  C         25.2120  -20.7560  -13.5610 C.3     1  UNL1        0.1220
     30  C         26.2670  -19.9530  -12.8090 C.3     1  UNL1        0.0150
     31  C         26.2960  -20.3160  -11.3330 C.3     1  UNL1        0.0060
@<TRIPOS>BOND
     1    28    25    2
     2    29    30    1
     3    29    26    1
     4    25    26   am
     5    25     1    1
     6    30    31    1
     7    26    27    1
     8    10     9    2
     9    10    11    1
    10     9     8    1
    11     1    11    1
    12     1     2    2
    13    11     6    2
    14     8     7    2
    15     2     3    1
    16     6     7    1
    17     6     5    1
    18     3     5   am
    19     3     4    2
    20     5    12    1
    21    12    13    1
    22    16    15    1
    23    13    15   am
    24    13    14    2
    25    15    17    1
    26    24    17    2
    27    24    22    1
    28    17    18    1
    29    23    22    1
    30    22    20    2
    31    18    19    2
    32    20    19    1
    33    20    21    1
