@<TRIPOS>MOLECULE
55571_out_ligand_01.pdbqt
 37 40 0 0 0
SMALL
GASTEIGER

@<TRIPOS>ATOM
      1  C         20.2660  -23.0350  -10.0380 C.2     1  UNL1        0.0340
      2  C         20.4930  -24.0210   -9.0690 C.2     1  UNL1        0.0310
      3  C         19.4620  -24.4480   -8.2290 C.2     1  UNL1        0.0270
      4  C         18.1990  -23.8650   -8.3450 C.2     1  UNL1        0.0800
      5  C         17.9600  -22.8670   -9.2910 C.2     1  UNL1        0.0270
      6  C         18.9980  -22.4490  -10.1290 C.2     1  UNL1        0.0310
      7  N         21.3660  -22.6530  -10.8320 N.am    1  UNL1       -0.3330
      8  H         21.1750  -22.5260  -11.8220 H       1  UNL1        0.1680
      9  C         22.7000  -22.5150  -10.5340 C.2     1  UNL1        0.1760
     10  S         23.0620  -21.5780   -9.1950 S.2     1  UNL1       -0.0410
     11  N         23.5620  -23.2570  -11.3030 N.am    1  UNL1       -0.3330
     12  H         24.0530  -23.9560  -10.7580 H       1  UNL1        0.1680
     13  C         24.0610  -23.0600  -12.6070 C.2     1  UNL1        0.0340
     14  C         24.9590  -23.9210  -13.2430 C.2     1  UNL1        0.0310
     15  C         25.4300  -23.6360  -14.5300 C.2     1  UNL1        0.0270
     16  C         25.0170  -22.4700  -15.1740 C.2     1  UNL1        0.0740
     17  C         24.1350  -21.5900  -14.5500 C.2     1  UNL1        0.0270
     18  C         23.6710  -21.8830  -13.2650 C.2     1  UNL1        0.0310
     19  S         25.6200  -22.1230  -16.8050 S.O2    1  UNL1        0.2390
     20  O         26.9040  -21.4740  -16.6900 O.2     1  UNL1       -0.2060
     21  O         25.4040  -23.2880  -17.6320 O.2     1  UNL1       -0.2060
     22  N         24.5000  -20.9840  -17.3450 N.3     1  UNL1       -0.2250
     23  H         24.9830  -20.2990  -17.9280 H       1  UNL1        0.1360
     24  H         23.7040  -21.3970  -17.8280 H       1  UNL1        0.1360
     25  S         16.8910  -24.4110   -7.2610 S.O2    1  UNL1        0.2650
     26  O         17.5490  -25.1870   -6.2310 O.2     1  UNL1       -0.2000
     27  O         15.8580  -24.9950   -8.0920 O.2     1  UNL1       -0.2000
     28  N         16.3030  -22.9150   -6.6280 N.pl3   1  UNL1       -0.2710
     29  C         14.8650  -22.9150   -6.2290 C.3     1  UNL1        0.1420
     30  C         14.7000  -23.3320   -4.7770 C.3     1  UNL1        0.0260
     31  C         15.4340  -22.3640   -3.8630 C.3     1  UNL1        0.0420
     32  C         16.8080  -22.0110   -4.3680 C.2     1  UNL1       -0.0310
     33  C         17.6950  -21.3590   -3.4950 C.2     1  UNL1        0.0090
     34  C         17.1940  -22.2440   -5.7000 C.2     1  UNL1        0.0510
     35  C         18.9490  -20.9420   -3.9360 C.2     1  UNL1        0.0010
     36  C         19.3230  -21.1570   -5.2590 C.2     1  UNL1        0.0020
     37  C         18.4470  -21.7970   -6.1360 C.2     1  UNL1        0.0310
@<TRIPOS>BOND
     1    23    22    1
     2    24    22    1
     3    21    19    2
     4    22    19    1
     5    19    20    2
     6    19    16    1
     7    16    17    2
     8    16    15    1
     9    17    18    1
    10    15    14    2
    11    18    13    2
    12    14    13    1
    13    13    11    1
    14     8     7    1
    15    11    12    1
    16    11     9    1
    17     7     9    1
    18     7     1    1
    19     9    10    2
    20     6     1    2
    21     6     5    1
    22     1     2    1
    23     5     4    2
    24     2     3    2
    25     4     3    1
    26     4    25    1
    27    27    25    2
    28    25    28    1
    29    25    26    2
    30    28    29    1
    31    28    34    1
    32    29    30    1
    33    37    34    1
    34    37    36    2
    35    34    32    2
    36    36    35    1
    37    30    31    1
    38    32    31    1
    39    32    33    1
    40    35    33    2
