@<TRIPOS>MOLECULE
55586_out_ligand_01.pdbqt
 30 33 0 0 0
SMALL
GASTEIGER

@<TRIPOS>ATOM
      1  C         22.8910  -23.1470   -8.9820 C.2     1  UNL1        0.0340
      2  C         21.9340  -24.1320   -9.2670 C.2     1  UNL1        0.0300
      3  C         20.6330  -24.0380   -8.7590 C.2     1  UNL1        0.0170
      4  C         20.2750  -22.9540   -7.9520 C.2     1  UNL1        0.0100
      5  C         21.2220  -21.9630   -7.6770 C.2     1  UNL1        0.0170
      6  C         22.5230  -22.0630   -8.1840 C.2     1  UNL1        0.0300
      7  N         24.1720  -23.3210   -9.5360 N.am    1  UNL1       -0.3270
      8  C         24.7620  -22.6060  -10.5640 C.2     1  UNL1        0.2310
      9  O         24.2790  -21.6340  -11.1380 O.2     1  UNL1       -0.2720
     10  H         24.7090  -24.1150   -9.2000 H       1  UNL1        0.1690
     11  C         26.1770  -23.0660  -10.9020 C.3     1  UNL1        0.1820
     12  S         26.9470  -22.0990  -12.2500 S.3     1  UNL1       -0.1210
     13  C         26.1710  -22.8400  -13.6780 C.2     1  UNL1        0.0010
     14  C         25.5990  -22.0030  -14.6420 C.2     1  UNL1        0.0180
     15  C         24.9900  -22.5440  -15.7760 C.2     1  UNL1        0.0010
     16  C         24.9410  -23.9260  -15.9480 C.2     1  UNL1        0.0000
     17  C         25.4920  -24.7670  -14.9820 C.2     1  UNL1        0.0010
     18  C         26.1010  -24.2270  -13.8470 C.2     1  UNL1        0.0180
     19  C         18.9040  -22.8110   -7.3950 C.ar    1  UNL1        0.1410
     20  N         18.7140  -22.7130   -6.1170 N.ar    1  UNL1       -0.2300
     21  C         17.3990  -22.5760   -5.6440 C.ar    1  UNL1        0.0740
     22  C         17.1850  -22.4450   -4.2710 C.2     1  UNL1        0.0320
     23  C         16.2910  -22.5640   -6.4950 C.ar    1  UNL1        0.0610
     24  C         15.8900  -22.3070   -3.7610 C.2     1  UNL1        0.0020
     25  C         14.7940  -22.2970   -4.6240 C.2     1  UNL1        0.0010
     26  C         14.9910  -22.4270   -5.9990 C.2     1  UNL1        0.0190
     27  C         16.5450  -22.7060   -7.9360 C.ar    1  UNL1        0.2590
     28  O         15.6410  -22.7420   -8.7630 O.2     1  UNL1       -0.2670
     29  N         17.8650  -22.8040   -8.2990 N.ar    1  UNL1       -0.3070
     30  H         18.0210  -22.9550   -9.2840 H       1  UNL1        0.1700
@<TRIPOS>BOND
     1    16    15    2
     2    16    17    1
     3    15    14    1
     4    17    18    2
     5    14    13    2
     6    18    13    1
     7    13    12    1
     8    12    11    1
     9     9     8    2
    10    11     8    1
    11     8     7   am
    12     7    10    1
    13     7     1    1
    14    30    29    1
    15     2     1    2
    16     2     3    1
    17     1     6    1
    18    28    27    2
    19     3     4    2
    20    29    27   ar
    21    29    19   ar
    22     6     5    2
    23     4     5    1
    24     4    19    1
    25    27    23   ar
    26    19    20   ar
    27    23    26    1
    28    23    21   ar
    29    20    21   ar
    30    26    25    2
    31    21    22    1
    32    25    24    1
    33    22    24    2
