@<TRIPOS>MOLECULE
55646_out_ligand_01.pdbqt
 35 39 0 0 0
SMALL
GASTEIGER

@<TRIPOS>ATOM
      1  N         21.2150  -23.4890   -9.8810 N.am    1  UNL1       -0.3050
      2  C         20.5650  -24.3500   -9.0100 C.2     1  UNL1        0.2490
      3  O         21.1200  -25.2720   -8.4170 O.2     1  UNL1       -0.2680
      4  C         19.1190  -24.1570   -8.8060 C.2     1  UNL1        0.0920
      5  C         18.4470  -23.2100   -9.4700 C.2     1  UNL1        0.0500
      6  C         19.1210  -22.3520  -10.4470 C.2     1  UNL1        0.0070
      7  C         18.4080  -21.4030  -11.1990 C.2     1  UNL1        0.0150
      8  C         19.0640  -20.5870  -12.1180 C.2     1  UNL1        0.0010
      9  C         20.4350  -20.7150  -12.2970 C.2     1  UNL1        0.0020
     10  C         21.1550  -21.6610  -11.5620 C.2     1  UNL1        0.0300
     11  C         20.5100  -22.4920  -10.6320 C.2     1  UNL1        0.0490
     12  C         22.6670  -23.6510  -10.0410 C.3     1  UNL1        0.2350
     13  C         23.4490  -22.3410  -10.2270 C.2     1  UNL1        0.2400
     14  N         24.2430  -22.3210  -11.3580 N.am    1  UNL1       -0.3250
     15  H         24.2030  -23.1600  -11.9210 H       1  UNL1        0.1690
     16  O         23.3820  -21.4660   -9.3670 O.2     1  UNL1       -0.2710
     17  C         25.0870  -21.2920  -11.8300 C.2     1  UNL1        0.0400
     18  C         26.0070  -20.6370  -11.0040 C.2     1  UNL1        0.0300
     19  C         26.8270  -19.6210  -11.5050 C.2     1  UNL1        0.0020
     20  C         26.7370  -19.2470  -12.8390 C.2     1  UNL1        0.0010
     21  C         25.8250  -19.8850  -13.6750 C.2     1  UNL1        0.0090
     22  C         24.9930  -20.9100  -13.1870 C.2     1  UNL1       -0.0350
     23  C         24.0270  -21.5600  -14.1450 C.3     1  UNL1        0.0500
     24  C         16.9990  -23.1370   -9.1490 C.2     1  UNL1        0.2550
     25  O         16.2040  -23.7660   -9.8450 O.2     1  UNL1       -0.2670
     26  N         16.6250  -22.3550   -8.0700 N.am    1  UNL1       -0.3430
     27  C         15.2230  -22.3640   -7.6610 C.3     1  UNL1        0.1310
     28  C         17.5330  -21.8410   -7.0450 C.3     1  UNL1        0.1650
     29  C         15.0290  -23.3510   -6.5100 C.3     1  UNL1        0.0590
     30  C         16.0660  -23.1560   -5.4250 C.2     1  UNL1       -0.0490
     31  C         15.8530  -23.7140   -4.1570 C.2     1  UNL1        0.0080
     32  C         17.2710  -22.4720   -5.6920 C.2     1  UNL1       -0.0340
     33  C         16.8110  -23.5720   -3.1530 C.2     1  UNL1        0.0010
     34  C         17.9920  -22.8790   -3.4090 C.2     1  UNL1        0.0010
     35  C         18.2210  -22.3290   -4.6700 C.2     1  UNL1        0.0090
@<TRIPOS>BOND
     1    23    22    1
     2    21    22    1
     3    21    20    2
     4    22    17    2
     5    20    19    1
     6     9     8    2
     7     9    10    1
     8     8     7    1
     9    15    14    1
    10    17    14    1
    11    17    18    1
    12    10    11    2
    13    19    18    2
    14    14    13   am
    15     7     6    2
    16    11     6    1
    17    11     1    1
    18     6     5    1
    19    13    12    1
    20    13    16    2
    21    12     1    1
    22     1     2   am
    23    25    24    2
    24     5    24    1
    25     5     4    2
    26    24    26   am
    27     2     4    1
    28     2     3    2
    29    26    27    1
    30    26    28    1
    31    27    29    1
    32    28    32    1
    33    29    30    1
    34    32    30    2
    35    32    35    1
    36    30    31    1
    37    35    34    2
    38    31    33    2
    39    34    33    1
