@<TRIPOS>MOLECULE
55640_out_ligand_01.pdbqt
 33 36 0 0 0
SMALL
GASTEIGER

@<TRIPOS>ATOM
      1  N         21.6890  -23.2290   -8.8390 N.am    1  UNL1       -0.3570
      2  C         20.6390  -24.1180   -8.7590 C.2     1  UNL1        0.2520
      3  O         20.7520  -25.3340   -8.8490 O.2     1  UNL1       -0.2680
      4  H         21.4690  -22.2540   -9.0070 H       1  UNL1        0.1620
      5  C         19.2950  -23.5080   -8.6360 C.2     1  UNL1        0.0460
      6  C         18.6150  -23.7780   -7.4490 C.2     1  UNL1        0.0510
      7  C         17.3340  -23.2850   -7.3040 C.2     1  UNL1        0.0750
      8  N         16.7320  -22.5560   -8.2700 N.2     1  UNL1       -0.2470
      9  C         17.3980  -22.2680   -9.3990 C.2     1  UNL1        0.0680
     10  C         16.7580  -21.4960  -10.3580 C.2     1  UNL1        0.0320
     11  C         18.7130  -22.7080   -9.6470 C.2     1  UNL1        0.0080
     12  C         17.3820  -21.1250  -11.5500 C.2     1  UNL1        0.0020
     13  C         18.6860  -21.5270  -11.7950 C.2     1  UNL1        0.0010
     14  C         19.3500  -22.3060  -10.8500 C.2     1  UNL1        0.0150
     15  C         16.5480  -23.5190   -6.0820 C.2     1  UNL1        0.0330
     16  C         15.2230  -23.9060   -5.9560 C.2     1  UNL1        0.0210
     17  C         14.8020  -24.0220   -4.5980 C.2     1  UNL1        0.0080
     18  C         15.8160  -23.7180   -3.7200 C.2     1  UNL1        0.0500
     19  S         17.2600  -23.2980   -4.5290 S.3     1  UNL1       -0.1000
     20  C         23.0340  -23.6690   -9.1620 C.3     1  UNL1        0.1270
     21  C         23.9440  -22.5070   -9.5730 C.3     1  UNL1        0.0580
     22  C         24.1210  -22.3870  -11.0700 C.2     1  UNL1       -0.0570
     23  C         23.0780  -21.9000  -11.8710 C.2     1  UNL1        0.0090
     24  C         23.2470  -21.7700  -13.2510 C.2     1  UNL1        0.0250
     25  C         24.4620  -22.1370  -13.8340 C.2     1  UNL1        0.0740
     26  C         25.5140  -22.6110  -13.0490 C.2     1  UNL1        0.0250
     27  C         25.3400  -22.7400  -11.6700 C.2     1  UNL1        0.0090
     28  S         24.6890  -21.9420  -15.5770 S.O2    1  UNL1        0.2390
     29  O         23.7650  -22.8050  -16.2760 O.2     1  UNL1       -0.2060
     30  O         26.1010  -21.9160  -15.8730 O.2     1  UNL1       -0.2060
     31  N         24.1350  -20.3760  -15.8270 N.3     1  UNL1       -0.2250
     32  H         24.6390  -19.9520  -16.6060 H       1  UNL1        0.1360
     33  H         23.1220  -20.3830  -15.9490 H       1  UNL1        0.1360
@<TRIPOS>BOND
     1    32    31    1
     2    29    28    2
     3    33    31    1
     4    30    28    2
     5    31    28    1
     6    28    25    1
     7    25    24    2
     8    25    26    1
     9    24    23    1
    10    26    27    2
    11    23    22    2
    12    13    12    1
    13    13    14    2
    14    27    22    1
    15    12    10    2
    16    22    21    1
    17    14    11    1
    18    10     9    1
    19    11     9    1
    20    11     5    2
    21    21    20    1
    22     9     8    2
    23    20     1    1
    24     4     1    1
    25     3     2    2
    26     1     2   am
    27     2     5    1
    28     5     6    1
    29     8     7    1
    30     6     7    2
    31     7    15    1
    32    15    16    2
    33    15    19    1
    34    16    17    1
    35    17    18    2
    36    19    18    1
