@<TRIPOS>MOLECULE
55675_out_ligand_01.pdbqt
 34 37 0 0 0
SMALL
GASTEIGER

@<TRIPOS>ATOM
      1  N         21.5000  -23.3870   -9.8650 N.am    1  UNL1       -0.3050
      2  C         22.8690  -23.2940  -10.0540 C.2     1  UNL1        0.2490
      3  O         23.6900  -23.8010   -9.2900 O.2     1  UNL1       -0.2680
      4  C         23.3490  -22.5530  -11.2310 C.2     1  UNL1        0.0920
      5  C         22.5060  -21.8840  -12.0280 C.2     1  UNL1        0.0490
      6  C         21.0730  -21.8240  -11.7010 C.2     1  UNL1        0.0070
      7  C         20.1880  -20.9900  -12.4080 C.2     1  UNL1        0.0150
      8  C         18.8310  -20.9520  -12.0920 C.2     1  UNL1        0.0010
      9  C         18.3440  -21.7320  -11.0540 C.2     1  UNL1        0.0020
     10  C         19.2130  -22.5460  -10.3230 C.2     1  UNL1        0.0300
     11  C         20.5820  -22.6000  -10.6290 C.2     1  UNL1        0.0490
     12  C         21.0360  -24.2320   -8.7620 C.3     1  UNL1        0.2350
     13  C         20.1490  -23.4590   -7.7820 C.2     1  UNL1        0.2400
     14  N         18.8880  -24.0160   -7.6480 N.am    1  UNL1       -0.3260
     15  H         18.7030  -24.8460   -8.2110 H       1  UNL1        0.1690
     16  O         20.5690  -22.4440   -7.2320 O.2     1  UNL1       -0.2710
     17  C         17.8330  -23.5830   -6.8230 C.2     1  UNL1        0.0340
     18  C         17.8110  -23.7320   -5.4370 C.2     1  UNL1        0.0300
     19  C         16.7160  -23.2770   -4.6920 C.2     1  UNL1        0.0090
     20  C         15.6230  -22.6770   -5.3230 C.2     1  UNL1       -0.0620
     21  C         14.4680  -22.1690   -4.5120 C.3     1  UNL1        0.0480
     22  C         15.6490  -22.5160   -6.7110 C.2     1  UNL1        0.0090
     23  C         16.7430  -22.9710   -7.4540 C.2     1  UNL1        0.0300
     24  C         23.1540  -21.2660  -13.2190 C.2     1  UNL1        0.2530
     25  O         22.5380  -20.5370  -13.9870 O.2     1  UNL1       -0.2680
     26  N         24.4920  -21.5360  -13.3300 N.am    1  UNL1       -0.3530
     27  H         24.9740  -21.9980  -12.5690 H       1  UNL1        0.1630
     28  C         25.2910  -20.9280  -14.3670 C.3     1  UNL1        0.1610
     29  C         25.0380  -21.5990  -15.6880 C.2     1  UNL1       -0.0410
     30  C         25.0660  -20.8530  -16.8770 C.2     1  UNL1        0.0090
     31  C         24.8040  -21.4660  -18.1030 C.2     1  UNL1        0.0010
     32  C         24.5070  -22.8270  -18.1520 C.2     1  UNL1        0.0000
     33  C         24.4680  -23.5760  -16.9770 C.2     1  UNL1        0.0010
     34  C         24.7280  -22.9650  -15.7500 C.2     1  UNL1        0.0090
@<TRIPOS>BOND
     1    32    31    2
     2    32    33    1
     3    31    30    1
     4    33    34    2
     5    30    29    2
     6    34    29    1
     7    29    28    1
     8    28    26    1
     9    25    24    2
    10    26    24   am
    11    26    27    1
    12    24     5    1
    13     7     8    1
    14     7     6    2
    15     8     9    2
    16     5     6    1
    17     5     4    2
    18     6    11    1
    19     4     2    1
    20     9    10    1
    21    11    10    2
    22    11     1    1
    23     2     1   am
    24     2     3    2
    25     1    12    1
    26    12    13    1
    27    15    14    1
    28    13    14   am
    29    13    16    2
    30    14    17    1
    31    23    17    2
    32    23    22    1
    33    17    18    1
    34    22    20    2
    35    18    19    2
    36    20    19    1
    37    20    21    1
