@<TRIPOS>MOLECULE
55688_out_ligand_01.pdbqt
 31 35 0 0 0
SMALL
GASTEIGER

@<TRIPOS>ATOM
      1  C         22.9320  -21.7770  -12.8210 C.2     1  UNL1        0.0350
      2  C         23.7600  -22.3330  -11.8330 C.2     1  UNL1        0.0310
      3  C         23.2430  -22.6970  -10.5860 C.2     1  UNL1        0.0270
      4  C         21.8860  -22.5080  -10.3270 C.2     1  UNL1        0.0790
      5  C         21.0490  -21.9500  -11.2960 C.2     1  UNL1        0.0270
      6  C         21.5750  -21.5920  -12.5420 C.2     1  UNL1        0.0310
      7  S         21.2010  -22.9570   -8.7510 S.O2    1  UNL1        0.2590
      8  O         21.7830  -22.0870   -7.7560 O.2     1  UNL1       -0.2010
      9  O         21.2650  -24.3980   -8.6410 O.2     1  UNL1       -0.2010
     10  N         19.5870  -22.5300   -8.9730 N.3     1  UNL1       -0.3050
     11  H         19.2770  -22.6240   -9.9390 H       1  UNL1        0.1730
     12  C         18.5550  -22.8480   -7.9580 C.3     1  UNL1        0.0410
     13  C         18.5910  -24.3500   -7.6060 C.3     1  UNL1        0.0360
     14  C         17.4490  -24.6970   -6.6320 C.3     1  UNL1       -0.0120
     15  C         17.6030  -23.8550   -5.3520 C.3     1  UNL1        0.0090
     16  C         16.1000  -24.3700   -7.2930 C.3     1  UNL1        0.0090
     17  C         17.5390  -22.3570   -5.6930 C.3     1  UNL1       -0.0120
     18  C         16.1910  -22.0430   -6.3600 C.3     1  UNL1        0.0090
     19  C         18.6820  -22.0120   -6.6680 C.3     1  UNL1        0.0360
     20  C         16.0340  -22.8750   -7.6420 C.3     1  UNL1       -0.0120
     21  C         17.1820  -22.5330   -8.6060 C.3     1  UNL1        0.0360
     22  N         23.5390  -21.4450  -14.0500 N.am    1  UNL1       -0.3230
     23  C         24.4790  -22.1760  -14.7530 C.2     1  UNL1        0.2580
     24  O         24.8900  -23.2890  -14.4520 O.2     1  UNL1       -0.2670
     25  H         23.1890  -20.6140  -14.5040 H       1  UNL1        0.1690
     26  C         24.9410  -21.5320  -15.9810 C.2     1  UNL1        0.0630
     27  C         25.5450  -20.2410  -16.0740 C.2     1  UNL1        0.0440
     28  C         25.8210  -20.0240  -17.4000 C.2     1  UNL1        0.1430
     29  O         25.4050  -21.0770  -18.1440 O.2     1  UNL1       -0.3260
     30  C         24.8480  -21.9830  -17.2910 C.2     1  UNL1        0.0640
     31  C         24.2640  -23.1750  -17.9440 C.3     1  UNL1        0.0770
@<TRIPOS>BOND
     1    29    28    1
     2    29    30    1
     3    31    30    1
     4    28    27    2
     5    30    26    2
     6    27    26    1
     7    26    23    1
     8    23    24    2
     9    23    22   am
    10    25    22    1
    11    22     1    1
    12     1     6    2
    13     1     2    1
    14     6     5    1
    15     2     3    2
    16     5     4    2
    17     3     4    1
    18     4     7    1
    19    11    10    1
    20    10     7    1
    21    10    12    1
    22     7     9    2
    23     7     8    2
    24    21    12    1
    25    21    20    1
    26    12    13    1
    27    12    19    1
    28    20    16    1
    29    20    18    1
    30    13    14    1
    31    16    14    1
    32    19    17    1
    33    14    15    1
    34    18    17    1
    35    17    15    1
