@<TRIPOS>MOLECULE
55702_out_ligand_01.pdbqt
 34 37 0 0 0
SMALL
GASTEIGER

@<TRIPOS>ATOM
      1  C         21.8000  -22.8370  -10.0330 C.2     1  UNL1        0.0800
      2  C         21.0540  -21.8480  -10.6780 C.2     1  UNL1        0.0270
      3  C         19.6660  -21.9830  -10.7760 C.2     1  UNL1        0.0310
      4  C         19.0190  -23.0980  -10.2310 C.2     1  UNL1        0.0340
      5  C         19.7740  -24.0500   -9.5350 C.2     1  UNL1        0.0310
      6  C         21.1630  -23.9270   -9.4390 C.2     1  UNL1        0.0270
      7  N         17.6260  -23.3010  -10.2870 N.am    1  UNL1       -0.3330
      8  H         17.2610  -23.6490  -11.1690 H       1  UNL1        0.1680
      9  C         16.6540  -23.1890   -9.3200 C.2     1  UNL1        0.1760
     10  S         15.3290  -22.2420   -9.7060 S.2     1  UNL1       -0.0410
     11  N         16.9540  -23.7630   -8.1100 N.am    1  UNL1       -0.3320
     12  H         17.6850  -24.4530   -8.1920 H       1  UNL1        0.1680
     13  C         16.5950  -23.4060   -6.7850 C.2     1  UNL1        0.0450
     14  C         15.4670  -23.9660   -6.1730 C.2     1  UNL1        0.0300
     15  C         15.1490  -23.6720   -4.8510 C.2     1  UNL1        0.0030
     16  C         15.9670  -22.8250   -4.1130 C.2     1  UNL1        0.0120
     17  C         17.1160  -22.2610   -4.6810 C.2     1  UNL1       -0.0240
     18  C         17.9280  -21.4180   -3.9050 C.2     1  UNL1        0.0120
     19  C         17.4540  -22.5400   -6.0330 C.2     1  UNL1        0.0010
     20  C         19.0740  -20.8310   -4.4360 C.2     1  UNL1        0.0010
     21  C         19.4200  -21.0760   -5.7560 C.2     1  UNL1        0.0010
     22  C         18.6220  -21.9130   -6.5430 C.2     1  UNL1        0.0140
     23  S         23.5670  -22.6670   -9.9140 S.O2    1  UNL1        0.2630
     24  O         24.0400  -23.5960   -8.9110 O.2     1  UNL1       -0.2000
     25  O         23.8600  -21.2520   -9.8180 O.2     1  UNL1       -0.2000
     26  N         24.1050  -23.1490  -11.4380 N.pl3   1  UNL1       -0.2800
     27  H         24.6520  -24.0060  -11.4030 H       1  UNL1        0.1790
     28  C         24.4230  -22.1750  -12.4300 C.2     1  UNL1        0.0480
     29  C         23.4310  -21.7370  -13.3120 C.2     1  UNL1        0.0300
     30  C         23.7170  -20.7680  -14.2720 C.2     1  UNL1        0.0020
     31  C         25.0000  -20.2380  -14.3610 C.2     1  UNL1        0.0010
     32  C         25.9990  -20.6810  -13.4940 C.2     1  UNL1        0.0090
     33  C         25.7260  -21.6540  -12.5190 C.2     1  UNL1       -0.0350
     34  C         26.8370  -22.1150  -11.6180 C.3     1  UNL1        0.0500
@<TRIPOS>BOND
     1    31    30    2
     2    31    32    1
     3    30    29    1
     4    32    33    2
     5    29    28    2
     6    33    28    1
     7    33    34    1
     8    28    26    1
     9    26    27    1
    10    26    23    1
    11     8     7    1
    12     3     2    1
    13     3     4    2
    14     2     1    2
    15     7     4    1
    16     7     9    1
    17     4     5    1
    18     1    23    1
    19     1     6    1
    20    23    25    2
    21    23    24    2
    22    10     9    2
    23     5     6    2
    24     9    11    1
    25    12    11    1
    26    11    13    1
    27    13    14    2
    28    13    19    1
    29    22    19    1
    30    22    21    2
    31    14    15    1
    32    19    17    2
    33    21    20    1
    34    15    16    2
    35    17    16    1
    36    17    18    1
    37    20    18    2
