@<TRIPOS>MOLECULE
55713_out_ligand_01.pdbqt
 31 32 0 0 0
SMALL
GASTEIGER

@<TRIPOS>ATOM
      1  C         20.3140  -21.1300  -12.5740 C.2     1  UNL1        0.0400
      2  C         21.6230  -21.4370  -12.4610 C.2     1  UNL1        0.1130
      3  C         22.5100  -21.1140  -13.5280 C.1     1  UNL1        0.1050
      4  N         23.1860  -20.8180  -14.4250 N.1     1  UNL1       -0.1910
      5  C         22.2200  -22.1670  -11.3030 C.2     1  UNL1        0.2620
      6  O         22.4520  -23.3690  -11.3690 O.2     1  UNL1       -0.2670
      7  N         22.5280  -21.3900  -10.2100 N.am    1  UNL1       -0.3520
      8  H         22.4030  -20.3880  -10.2610 H       1  UNL1        0.1630
      9  C         23.2080  -21.9270   -9.0400 C.3     1  UNL1        0.0760
     10  C         23.1840  -23.4520   -9.0810 C.3     1  UNL1        0.0320
     11  C         22.5560  -21.4040   -7.7650 C.3     1  UNL1        0.0320
     12  C         19.2430  -21.4710  -11.6320 C.2     1  UNL1       -0.0320
     13  C         17.9870  -20.8550  -11.7040 C.2     1  UNL1        0.0140
     14  C         16.9690  -21.2020  -10.8090 C.2     1  UNL1        0.0400
     15  C         17.1940  -22.1650   -9.8260 C.2     1  UNL1        0.1010
     16  C         18.4660  -22.7500   -9.7370 C.2     1  UNL1        0.1030
     17  C         19.4830  -22.4180  -10.6340 C.2     1  UNL1        0.0510
     18  O         16.2720  -22.5760   -8.9020 O.2     1  UNL1       -0.3530
     19  C         15.4350  -23.6650   -9.2680 C.3     1  UNL1        0.2100
     20  O         18.7020  -23.7300   -8.8070 O.2     1  UNL1       -0.3440
     21  C         19.7240  -23.3190   -7.8930 C.3     1  UNL1        0.2140
     22  C         19.0610  -22.7090   -6.6780 C.2     1  UNL1       -0.0330
     23  C         19.5280  -21.4910   -6.1620 C.2     1  UNL1        0.0090
     24  C         18.9300  -20.9170   -5.0410 C.2     1  UNL1        0.0010
     25  C         17.8580  -21.5550   -4.4210 C.2     1  UNL1        0.0160
     26  C         17.3660  -22.7720   -4.9180 C.2     1  UNL1        0.0480
     27  C         17.9750  -23.3400   -6.0500 C.2     1  UNL1        0.0250
     28  C         16.1960  -23.4430   -4.2410 C.3     1  UNL1        0.4170
     29  F         16.5720  -24.1760   -3.1530 F       1  UNL1       -0.1660
     30  F         15.2730  -22.5490   -3.7870 F       1  UNL1       -0.1660
     31  F         15.5150  -24.3030   -5.0490 F       1  UNL1       -0.1660
@<TRIPOS>BOND
     1     4     3    3
     2     3     2    1
     3     1     2    2
     4     1    12    1
     5     2     5    1
     6    13    12    2
     7    13    14    1
     8    12    17    1
     9     6     5    2
    10     5     7   am
    11    14    15    2
    12    17    16    2
    13     8     7    1
    14     7     9    1
    15    15    16    1
    16    15    18    1
    17    16    20    1
    18    19    18    1
    19    10     9    1
    20     9    11    1
    21    20    21    1
    22    21    22    1
    23    22    23    2
    24    22    27    1
    25    23    24    1
    26    27    26    2
    27    31    28    1
    28    24    25    2
    29    26    25    1
    30    26    28    1
    31    28    30    1
    32    28    29    1
