@<TRIPOS>MOLECULE
55748_out_ligand_01.pdbqt
 34 37 0 0 0
SMALL
GASTEIGER

@<TRIPOS>ATOM
      1  N         20.2010  -23.7090   -9.3080 N.am    1  UNL1       -0.3050
      2  C         21.4860  -24.1980   -9.1350 C.2     1  UNL1        0.2490
      3  O         21.7360  -25.2230   -8.4970 O.2     1  UNL1       -0.2680
      4  C         22.5940  -23.4550   -9.7550 C.2     1  UNL1        0.0920
      5  C         22.3670  -22.3950  -10.5390 C.2     1  UNL1        0.0490
      6  C         20.9930  -21.9770  -10.8480 C.2     1  UNL1        0.0070
      7  C         20.7270  -20.9610  -11.7810 C.2     1  UNL1        0.0150
      8  C         19.4180  -20.5860  -12.0750 C.2     1  UNL1        0.0010
      9  C         18.3590  -21.2320  -11.4490 C.2     1  UNL1        0.0020
     10  C         18.6060  -22.2540  -10.5310 C.2     1  UNL1        0.0300
     11  C         19.9200  -22.6410  -10.2180 C.2     1  UNL1        0.0490
     12  C         19.1220  -24.4140   -8.6130 C.3     1  UNL1        0.2350
     13  C         18.5750  -23.5880   -7.4450 C.2     1  UNL1        0.2400
     14  O         19.2770  -22.7470   -6.8910 O.2     1  UNL1       -0.2710
     15  N         17.2760  -23.9300   -7.1080 N.am    1  UNL1       -0.3260
     16  H         16.8620  -24.6880   -7.6520 H       1  UNL1        0.1690
     17  C         16.4450  -23.3280   -6.1470 C.2     1  UNL1        0.0370
     18  C         16.7330  -23.6020   -4.8020 C.2     1  UNL1        0.0290
     19  C         15.9410  -23.0790   -3.7780 C.2     1  UNL1        0.0050
     20  C         14.8470  -22.2780   -4.0940 C.2     1  UNL1        0.0420
     21  C         14.5700  -21.9990   -5.4260 C.2     1  UNL1        0.1180
     22  F         13.5090  -21.2340   -5.7250 F       1  UNL1       -0.2060
     23  C         15.3570  -22.5100   -6.4550 C.2     1  UNL1        0.0710
     24  C         23.5990  -21.7360  -11.0470 C.2     1  UNL1        0.2530
     25  O         24.3090  -21.0580  -10.3150 O.2     1  UNL1       -0.2680
     26  N         23.8190  -21.9290  -12.3860 N.am    1  UNL1       -0.3530
     27  H         23.2010  -22.5330  -12.9140 H       1  UNL1        0.1630
     28  C         25.0180  -21.4560  -13.0400 C.3     1  UNL1        0.1610
     29  C         25.0260  -21.8700  -14.4900 C.2     1  UNL1       -0.0410
     30  C         25.0060  -20.9120  -15.5110 C.2     1  UNL1        0.0090
     31  C         24.9910  -21.3070  -16.8500 C.2     1  UNL1        0.0010
     32  C         24.9890  -22.6590  -17.1810 C.2     1  UNL1        0.0000
     33  C         25.0070  -23.6230  -16.1720 C.2     1  UNL1        0.0010
     34  C         25.0270  -23.2300  -14.8340 C.2     1  UNL1        0.0090
@<TRIPOS>BOND
     1    32    31    2
     2    32    33    1
     3    31    30    1
     4    33    34    2
     5    30    29    2
     6    34    29    1
     7    29    28    1
     8    28    26    1
     9    27    26    1
    10    26    24   am
    11     8     7    1
    12     8     9    2
    13     7     6    2
    14     9    10    1
    15    24     5    1
    16    24    25    2
    17     6     5    1
    18     6    11    1
    19     5     4    2
    20    10    11    2
    21    11     1    1
    22     4     2    1
    23     1     2   am
    24     1    12    1
    25     2     3    2
    26    12    13    1
    27    16    15    1
    28    13    15   am
    29    13    14    2
    30    15    17    1
    31    23    17    2
    32    23    21    1
    33    17    18    1
    34    22    21    1
    35    21    20    2
    36    18    19    2
    37    20    19    1
