@<TRIPOS>MOLECULE
55758_out_ligand_01.pdbqt
 32 36 0 0 0
SMALL
GASTEIGER

@<TRIPOS>ATOM
      1  S         19.3350  -23.1060   -9.5790 S.O2    1  UNL1        0.2640
      2  O         18.1980  -23.2960  -10.4520 O.2     1  UNL1       -0.2000
      3  O         20.3190  -24.1600   -9.4320 O.2     1  UNL1       -0.2000
      4  C         18.7830  -22.6650   -7.9440 C.2     1  UNL1        0.0910
      5  C         19.6330  -21.8180   -7.1760 C.2     1  UNL1        0.0280
      6  C         19.2890  -21.4240   -5.8740 C.2     1  UNL1        0.0320
      7  C         18.1000  -21.8950   -5.3730 C.2     1  UNL1        0.0470
      8  N         17.5080  -21.6730   -4.1330 N.am    1  UNL1       -0.3220
      9  C         17.2900  -22.7170   -6.1150 C.2     1  UNL1        0.0180
     10  C         16.3050  -22.3560   -4.0710 C.2     1  UNL1        0.2570
     11  H         17.8750  -21.1120   -3.3800 H       1  UNL1        0.1690
     12  O         15.5110  -22.3990   -3.1540 O.2     1  UNL1       -0.2670
     13  C         16.1760  -23.0360   -5.3790 C.2     1  UNL1        0.0450
     14  C         15.1920  -23.8540   -5.8890 C.2     1  UNL1        0.0180
     15  C         15.3780  -24.3420   -7.1880 C.2     1  UNL1        0.0020
     16  C         16.5320  -24.0060   -7.9400 C.2     1  UNL1        0.0140
     17  C         17.5530  -23.1590   -7.4100 C.2     1  UNL1        0.0010
     18  N         20.2080  -21.7420  -10.0540 N.pl3   1  UNL1       -0.2810
     19  H         19.9670  -20.9290   -9.4870 H       1  UNL1        0.1790
     20  C         21.5670  -21.9000  -10.4270 C.2     1  UNL1        0.0420
     21  C         22.5820  -21.8020   -9.4760 C.2     1  UNL1        0.0330
     22  C         23.9110  -21.9830   -9.8610 C.2     1  UNL1        0.0390
     23  C         24.2140  -22.2710  -11.1950 C.2     1  UNL1        0.0760
     24  C         23.2000  -22.3380  -12.1500 C.2     1  UNL1        0.0390
     25  C         21.8710  -22.1580  -11.7650 C.2     1  UNL1        0.0330
     26  O         25.5070  -22.4330  -11.6380 O.2     1  UNL1       -0.3110
     27  C         26.0610  -21.3890  -12.3440 C.2     1  UNL1        0.0760
     28  C         26.3930  -20.2420  -11.6220 C.2     1  UNL1        0.0370
     29  C         26.9300  -19.1370  -12.2820 C.2     1  UNL1        0.0030
     30  C         27.1210  -19.1740  -13.6630 C.2     1  UNL1        0.0000
     31  C         26.7670  -20.3130  -14.3890 C.2     1  UNL1        0.0030
     32  C         26.2290  -21.4200  -13.7310 C.2     1  UNL1        0.0370
@<TRIPOS>BOND
     1    31    32    1
     2    31    30    2
     3    32    27    2
     4    30    29    1
     5    27    26    1
     6    27    28    1
     7    29    28    2
     8    24    25    1
     9    24    23    2
    10    25    20    2
    11    26    23    1
    12    23    22    1
    13     2     1    2
    14    20    18    1
    15    20    21    1
    16    18     1    1
    17    18    19    1
    18    22    21    2
    19     1     3    2
    20     1     4    1
    21     4    17    2
    22     4     5    1
    23    16    17    1
    24    16    15    2
    25    17     9    1
    26    15    14    1
    27     5     6    2
    28     9    13    1
    29     9     7    2
    30    14    13    2
    31     6     7    1
    32    13    10    1
    33     7     8    1
    34     8    10   am
    35     8    11    1
    36    10    12    2
