@<TRIPOS>MOLECULE
55751_out_ligand_01.pdbqt
 32 35 0 0 0
SMALL
GASTEIGER

@<TRIPOS>ATOM
      1  C         19.4320  -22.5630  -10.2230 C.2     1  UNL1       -0.0080
      2  C         19.5480  -23.5610   -9.2500 C.2     1  UNL1        0.0130
      3  C         20.8090  -23.9340   -8.7940 C.2     1  UNL1        0.0030
      4  C         21.9470  -23.3000   -9.3000 C.2     1  UNL1        0.0290
      5  C         21.8400  -22.2840  -10.2610 C.2     1  UNL1        0.0350
      6  C         20.5740  -21.9180  -10.7190 C.2     1  UNL1        0.0430
      7  C         18.0840  -22.1600  -10.7090 C.2     1  UNL1        0.0610
      8  C         17.9350  -21.9800  -12.2040 C.3     1  UNL1        0.0730
      9  N         17.0350  -21.8980   -9.9800 N.2     1  UNL1       -0.1760
     10  N         17.0480  -22.1890   -8.6420 N.am    1  UNL1       -0.2430
     11  C         16.2790  -23.2160   -8.0960 C.2     1  UNL1        0.2720
     12  O         15.7470  -24.1180   -8.7370 O.2     1  UNL1       -0.2660
     13  H         17.2020  -21.3810   -8.0540 H       1  UNL1        0.1920
     14  C         16.1930  -23.1750   -6.6330 C.2     1  UNL1        0.0470
     15  C         15.1200  -23.7580   -5.9770 C.2     1  UNL1        0.0670
     16  S         15.2190  -23.6350   -4.2800 S.3     1  UNL1       -0.1050
     17  C         16.6590  -22.7390   -4.3800 C.2     1  UNL1       -0.0100
     18  C         17.0850  -22.5460   -5.6840 C.2     1  UNL1       -0.0290
     19  C         17.3170  -22.1810   -3.1530 C.3     1  UNL1        0.0460
     20  C         18.3180  -21.7330   -5.9810 C.3     1  UNL1        0.0400
     21  C         18.7210  -20.8460   -4.7940 C.3     1  UNL1        0.0050
     22  C         18.7140  -21.6380   -3.4810 C.3     1  UNL1        0.0050
     23  N         23.0420  -21.6920  -10.7000 N.am    1  UNL1       -0.3220
     24  C         23.9510  -22.1910  -11.6160 C.2     1  UNL1        0.2740
     25  O         23.8720  -23.2690  -12.1880 O.2     1  UNL1       -0.2660
     26  H         23.3060  -20.8340  -10.2320 H       1  UNL1        0.1690
     27  C         25.0680  -21.3020  -11.8340 C.2     1  UNL1        0.1210
     28  C         26.1050  -21.0040  -10.9700 C.2     1  UNL1        0.0580
     29  C         26.9000  -20.0710  -11.6550 C.2     1  UNL1        0.1410
     30  N         26.4330  -19.8120  -12.8770 N.2     1  UNL1       -0.1850
     31  N         25.3630  -20.6230  -12.9890 N.pl3   1  UNL1       -0.2690
     32  C         24.6900  -20.7150  -14.2660 C.3     1  UNL1        0.1800
@<TRIPOS>BOND
     1    32    31    1
     2    31    30    1
     3    31    27    1
     4    30    29    2
     5     8     7    1
     6    25    24    2
     7    27    24    1
     8    27    28    2
     9    29    28    1
    10    24    23   am
    11     6     5    1
    12     6     1    2
    13     7     1    1
    14     7     9    2
    15    23     5    1
    16    23    26    1
    17     5     4    2
    18     1     2    1
    19     9    10    1
    20     4     3    1
    21     2     3    2
    22    12    11    2
    23    10    11   am
    24    10    13    1
    25    11    14    1
    26    14    15    2
    27    14    18    1
    28    20    18    1
    29    20    21    1
    30    15    16    1
    31    18    17    2
    32    21    22    1
    33    17    16    1
    34    17    19    1
    35    22    19    1
