@<TRIPOS>MOLECULE
5575_out_ligand_01.pdbqt
 37 41 0 0 0
SMALL
GASTEIGER

@<TRIPOS>ATOM
      1  C         20.8100  -23.1890   -8.2140 C.2     1  UNL1        0.0320
      2  C         20.5870  -21.9470   -7.6120 C.2     1  UNL1        0.0170
      3  C         19.4810  -21.7560   -6.7790 C.2     1  UNL1        0.0110
      4  C         18.5710  -22.8000   -6.5470 C.2     1  UNL1       -0.0250
      5  C         18.8000  -24.0420   -7.1670 C.2     1  UNL1        0.0110
      6  C         19.9050  -24.2350   -8.0010 C.2     1  UNL1        0.0170
      7  C         22.0010  -23.3480   -9.0960 C.2     1  UNL1        0.2560
      8  O         22.6230  -24.4010   -9.0420 O.2     1  UNL1       -0.2670
      9  N         22.2550  -22.2710   -9.9270 N.am    1  UNL1       -0.3230
     10  H         21.5650  -21.5330   -9.9420 H       1  UNL1        0.1690
     11  C         23.3300  -22.1190  -10.8260 C.2     1  UNL1        0.0350
     12  C         23.3030  -22.5420  -12.1550 C.2     1  UNL1        0.0320
     13  C         24.4210  -22.3620  -12.9770 C.2     1  UNL1        0.0390
     14  C         25.5780  -21.7590  -12.4850 C.2     1  UNL1        0.0760
     15  C         25.6170  -21.3450  -11.1540 C.2     1  UNL1        0.0390
     16  C         24.4970  -21.5210  -10.3330 C.2     1  UNL1        0.0320
     17  O         26.6180  -21.6620  -13.3850 O.2     1  UNL1       -0.3110
     18  C         26.5130  -20.7420  -14.3970 C.2     1  UNL1        0.0760
     19  C         26.4450  -19.3880  -14.0650 C.2     1  UNL1        0.0370
     20  C         26.3790  -18.4320  -15.0790 C.2     1  UNL1        0.0030
     21  C         26.3970  -18.8320  -16.4170 C.2     1  UNL1        0.0000
     22  C         26.4890  -20.1880  -16.7450 C.2     1  UNL1        0.0030
     23  C         26.5550  -21.1470  -15.7330 C.2     1  UNL1        0.0370
     24  C         17.3780  -22.5730   -5.6400 C.3     1  UNL1        0.1830
     25  S         17.5840  -23.4290   -4.0590 S.3     1  UNL1       -0.1300
     26  C         15.9020  -24.0750   -4.0450 C.3     1  UNL1        0.1790
     27  C         15.2630  -23.7000   -5.3600 C.2     1  UNL1        0.2300
     28  O         14.1000  -23.9780   -5.6340 O.2     1  UNL1       -0.2730
     29  N         16.1210  -23.0160   -6.2050 N.am    1  UNL1       -0.3340
     30  C         15.6120  -22.4200   -7.4410 C.3     1  UNL1        0.1320
     31  C         15.8550  -23.3080   -8.6660 C.3     1  UNL1        0.0580
     32  C         16.6720  -22.5960   -9.7150 C.2     1  UNL1       -0.0570
     33  C         16.3230  -21.3060  -10.1370 C.2     1  UNL1        0.0070
     34  C         17.0950  -20.6450  -11.0930 C.2     1  UNL1        0.0010
     35  C         18.2210  -21.2640  -11.6320 C.2     1  UNL1        0.0000
     36  C         18.5800  -22.5440  -11.2130 C.2     1  UNL1        0.0010
     37  C         17.8110  -23.2070  -10.2570 C.2     1  UNL1        0.0070
@<TRIPOS>BOND
     1    22    21    2
     2    22    23    1
     3    21    20    1
     4    23    18    2
     5    20    19    2
     6    18    19    1
     7    18    17    1
     8    17    14    1
     9    13    14    2
    10    13    12    1
    11    14    15    1
    12    12    11    2
    13    35    36    2
    14    35    34    1
    15    36    37    1
    16    15    16    2
    17    34    33    2
    18    11    16    1
    19    11     9    1
    20    37    32    2
    21    33    32    1
    22    10     9    1
    23     9     7   am
    24    32    31    1
    25     7     8    2
    26     7     1    1
    27    31    30    1
    28     1     6    2
    29     1     2    1
    30     6     5    1
    31     2     3    2
    32    30    29    1
    33     5     4    2
    34     3     4    1
    35     4    24    1
    36    29    24    1
    37    29    27   am
    38    24    25    1
    39    28    27    2
    40    27    26    1
    41    25    26    1
