@<TRIPOS>MOLECULE
55767_out_ligand_01.pdbqt
 34 36 0 0 0
SMALL
GASTEIGER

@<TRIPOS>ATOM
      1  C         17.3410  -22.7370   -9.8090 C.2     1  UNL1       -0.0400
      2  C         18.4890  -23.3750   -9.3170 C.2     1  UNL1        0.0100
      3  C         19.7440  -23.1060   -9.8730 C.2     1  UNL1        0.0170
      4  C         19.8580  -22.2050  -10.9390 C.2     1  UNL1        0.0320
      5  C         18.7180  -21.5600  -11.4290 C.2     1  UNL1        0.0170
      6  C         17.4660  -21.8330  -10.8740 C.2     1  UNL1        0.0100
      7  C         15.9800  -23.0310   -9.2240 C.3     1  UNL1        0.1700
      8  N         15.8840  -22.5200   -7.8660 N.3     1  UNL1       -0.3110
      9  H         15.3820  -21.6520   -7.7020 H       1  UNL1        0.1720
     10  S         15.8690  -23.5940   -6.5830 S.O2    1  UNL1        0.2590
     11  O         14.5130  -23.6860   -6.0980 O.2     1  UNL1       -0.2010
     12  O         16.5860  -24.7680   -7.0370 O.2     1  UNL1       -0.2010
     13  C         16.9050  -22.7660   -5.3800 C.2     1  UNL1        0.0860
     14  C         16.7450  -22.8990   -3.9880 C.2     1  UNL1       -0.0390
     15  C         17.6350  -22.2020   -3.1540 C.2     1  UNL1        0.0090
     16  C         15.6980  -23.7580   -3.3370 C.3     1  UNL1        0.0500
     17  C         18.6500  -21.3980   -3.6790 C.2     1  UNL1        0.0070
     18  C         18.8030  -21.2630   -5.0600 C.2     1  UNL1       -0.0600
     19  C         19.9230  -20.4420   -5.6280 C.3     1  UNL1        0.0480
     20  C         17.9370  -21.9650   -5.9050 C.2     1  UNL1        0.0320
     21  C         21.1760  -21.8860  -11.5530 C.2     1  UNL1        0.2560
     22  O         21.2030  -21.1150  -12.5040 O.2     1  UNL1       -0.2670
     23  N         22.2520  -22.5460  -10.9860 N.am    1  UNL1       -0.3230
     24  H         22.0400  -23.2530  -10.2950 H       1  UNL1        0.1690
     25  C         23.6130  -22.4170  -11.3320 C.2     1  UNL1        0.0350
     26  C         24.3860  -21.5350  -10.5680 C.2     1  UNL1        0.0290
     27  C         25.7400  -21.3430  -10.8510 C.2     1  UNL1        0.0030
     28  C         26.3360  -22.0330  -11.9040 C.2     1  UNL1        0.0160
     29  C         25.5820  -22.9250  -12.6810 C.2     1  UNL1        0.0500
     30  C         24.2180  -23.1040  -12.3880 C.2     1  UNL1        0.0450
     31  C         26.2060  -23.6660  -13.8380 C.3     1  UNL1        0.4170
     32  F         25.2820  -24.0900  -14.7430 F       1  UNL1       -0.1660
     33  F         26.8930  -24.7760  -13.4510 F       1  UNL1       -0.1660
     34  F         27.0950  -22.9110  -14.5440 F       1  UNL1       -0.1660
@<TRIPOS>BOND
     1    32    31    1
     2    34    31    1
     3    31    33    1
     4    31    29    1
     5    29    30    1
     6    29    28    2
     7    22    21    2
     8    30    25    2
     9    28    27    1
    10    21    23   am
    11    21     4    1
    12     5     4    2
    13     5     6    1
    14    25    23    1
    15    25    26    1
    16    23    24    1
    17     4     3    1
    18     6     1    2
    19    27    26    2
    20     3     2    2
    21     1     2    1
    22     1     7    1
    23     7     8    1
    24     8     9    1
    25     8    10    1
    26    12    10    2
    27    10    11    2
    28    10    13    1
    29    20    13    2
    30    20    18    1
    31    19    18    1
    32    13    14    1
    33    18    17    2
    34    14    16    1
    35    14    15    2
    36    17    15    1
