@<TRIPOS>MOLECULE
55839_out_ligand_01.pdbqt
 35 38 0 0 0
SMALL
GASTEIGER

@<TRIPOS>ATOM
      1  C         17.2550  -22.6870   -5.5820 C.2     1  UNL1        0.0540
      2  C         17.1490  -23.2070   -4.2830 C.2     1  UNL1        0.0190
      3  C         15.8930  -23.5040   -3.7530 C.2     1  UNL1        0.0010
      4  C         14.7430  -23.2920   -4.5150 C.2     1  UNL1        0.0020
      5  C         14.8440  -22.7870   -5.8130 C.2     1  UNL1        0.0250
      6  C         16.0980  -22.4960   -6.3560 C.2     1  UNL1        0.0380
      7  N         16.1590  -21.9020   -7.6630 N.pl3   1  UNL1       -0.1800
      8  H         15.4000  -21.2250   -7.8390 H       1  UNL1        0.1460
      9  S         16.2090  -22.9870   -8.9690 S.O2    1  UNL1        0.2460
     10  O         14.9120  -22.9430   -9.6080 O.2     1  UNL1       -0.2060
     11  O         16.7980  -24.2360   -8.5320 O.2     1  UNL1       -0.2060
     12  C         17.3460  -22.1790  -10.0730 C.2     1  UNL1        0.0770
     13  C         16.9770  -20.9540  -10.6840 C.2     1  UNL1        0.0270
     14  C         17.8580  -20.3010  -11.5530 C.2     1  UNL1        0.0330
     15  C         19.0750  -20.9040  -11.7660 C.ar    1  UNL1        0.0630
     16  N         20.1380  -20.4980  -12.5640 N.ar    1  UNL1       -0.3070
     17  C         19.4340  -22.1050  -11.1530 C.ar    1  UNL1        0.0640
     18  C         21.1710  -21.4400  -12.4550 C.ar    1  UNL1        0.3250
     19  H         20.1990  -19.6680  -13.1310 H       1  UNL1        0.1700
     20  O         22.2520  -21.4030  -13.0150 O.2     1  UNL1       -0.2470
     21  N         20.7170  -22.4340  -11.5750 N.ar    1  UNL1       -0.3060
     22  H         21.2650  -23.2360  -11.3080 H       1  UNL1        0.1700
     23  C         18.5960  -22.7730  -10.2950 C.2     1  UNL1        0.0560
     24  C         18.5910  -22.3880   -6.1640 C.2     1  UNL1        0.2580
     25  N         19.0940  -23.3630   -7.0020 N.am    1  UNL1       -0.3230
     26  H         18.5900  -24.2420   -7.0320 H       1  UNL1        0.1690
     27  O         19.1360  -21.3420   -5.8260 O.2     1  UNL1       -0.2670
     28  C         20.3110  -23.3310   -7.7160 C.2     1  UNL1        0.0370
     29  C         20.7920  -24.3940   -8.4830 C.2     1  UNL1        0.0300
     30  C         22.0150  -24.2920   -9.1600 C.2     1  UNL1        0.0120
     31  C         22.7740  -23.1220   -9.0820 C.2     1  UNL1       -0.0230
     32  C         24.0960  -23.0080   -9.7740 C.3     1  UNL1        0.0510
     33  C         22.2940  -22.0740   -8.2980 C.2     1  UNL1        0.1240
     34  C         21.0770  -22.1670   -7.6240 C.2     1  UNL1        0.0720
     35  F         23.0090  -20.9450   -8.1820 F       1  UNL1       -0.2050
@<TRIPOS>BOND
     1    19    16    1
     2    20    18    2
     3    16    18   ar
     4    16    15   ar
     5    18    21   ar
     6    15    14    2
     7    15    17   ar
     8    21    22    1
     9    21    17   ar
    10    14    13    1
    11    17    23    2
    12    13    12    2
    13    23    12    1
    14    12     9    1
    15    32    31    1
    16    10     9    2
    17    30    31    2
    18    30    29    1
    19    31    33    1
    20     9    11    2
    21     9     7    1
    22    29    28    2
    23    33    35    1
    24    33    34    2
    25     8     7    1
    26    28    34    1
    27    28    25    1
    28     7     6    1
    29    26    25    1
    30    25    24   am
    31     6     5    1
    32     6     1    2
    33    24    27    2
    34    24     1    1
    35     5     4    2
    36     1     2    1
    37     4     3    1
    38     2     3    2
