@<TRIPOS>MOLECULE
55861_out_ligand_01.pdbqt
 32 35 0 0 0
SMALL
GASTEIGER

@<TRIPOS>ATOM
      1  C         23.2770  -22.6060  -10.6810 C.ar    1  UNL1        0.7250
      2  N         24.3890  -23.1850  -11.0990 N.ar    1  UNL1       -0.0420
      3  C         24.5610  -22.7550  -12.3720 C.ar    1  UNL1        0.1860
      4  C         23.5600  -21.9140  -12.7660 C.ar    1  UNL1        0.1660
      5  C         23.5250  -21.3250  -14.0600 C.ar    1  UNL1        0.2800
      6  O         22.6670  -20.5430  -14.4580 O.2     1  UNL1       -0.2650
      7  N         24.5840  -21.7180  -14.8470 N.ar    1  UNL1       -0.2730
      8  C         25.6280  -22.5560  -14.4930 C.ar    1  UNL1        0.3300
      9  O         26.5120  -22.7820  -15.3190 O.2     1  UNL1       -0.2460
     10  N         25.6060  -23.0880  -13.2080 N.ar    1  UNL1       -0.2860
     11  C         26.6560  -23.9780  -12.7510 C.3     1  UNL1        0.1630
     12  N         22.7270  -21.8280  -11.6860 N.ar    1  UNL1       -0.1700
     13  H         24.6280  -21.3280  -15.7750 H       1  UNL1        0.1730
     14  N         22.7130  -22.6720   -9.4500 N.pl3   1  UNL1       -0.1070
     15  H         22.2630  -23.5170   -9.1390 H       1  UNL1        0.2080
     16  N         22.8470  -21.6850   -8.5290 N.2     1  UNL1       -0.1720
     17  C         21.9470  -21.5980   -7.5970 C.2     1  UNL1        0.1500
     18  C         20.6750  -22.3350   -7.4820 C.2     1  UNL1       -0.0170
     19  C         19.6070  -21.8250   -6.7390 C.2     1  UNL1        0.0130
     20  C         18.4340  -22.5710   -6.5970 C.2     1  UNL1        0.0070
     21  C         18.3240  -23.8320   -7.1920 C.2     1  UNL1       -0.0620
     22  C         17.0750  -24.6500   -7.0000 C.3     1  UNL1        0.0480
     23  C         19.4130  -24.3430   -7.9150 C.2     1  UNL1        0.0070
     24  C         20.5860  -23.5990   -8.0610 C.2     1  UNL1        0.0130
     25  C         21.4770  -21.0930  -11.6220 C.3     1  UNL1        0.1530
     26  C         20.3570  -21.7910  -12.3910 C.3     1  UNL1        0.0590
     27  C         19.0620  -21.7350  -11.6260 C.2     1  UNL1       -0.0570
     28  C         18.5790  -22.8700  -10.9620 C.2     1  UNL1        0.0070
     29  C         17.3620  -22.8260  -10.2820 C.2     1  UNL1        0.0010
     30  C         16.6170  -21.6510  -10.2620 C.2     1  UNL1        0.0000
     31  C         17.0890  -20.5160  -10.9170 C.2     1  UNL1        0.0010
     32  C         18.3060  -20.5580  -11.5960 C.2     1  UNL1        0.0070
@<TRIPOS>BOND
     1    13     7    1
     2     9     8    2
     3     7     8   ar
     4     7     5   ar
     5     8    10   ar
     6     6     5    2
     7     5     4   ar
     8    10    11    1
     9    10     3   ar
    10     4     3   ar
    11     4    12   ar
    12    26    27    1
    13    26    25    1
    14     3     2   ar
    15    12    25    1
    16    12     1   ar
    17    27    32    2
    18    27    28    1
    19    32    31    1
    20     2     1   ar
    21    28    29    2
    22    31    30    2
    23     1    14    1
    24    29    30    1
    25    14    15    1
    26    14    16    1
    27    16    17    2
    28    24    23    1
    29    24    18    2
    30    23    21    2
    31    17    18    1
    32    18    19    1
    33    21    22    1
    34    21    20    1
    35    19    20    2
