@<TRIPOS>MOLECULE
55885_out_ligand_01.pdbqt
 35 38 0 0 0
SMALL
GASTEIGER

@<TRIPOS>ATOM
      1  C         19.7660  -22.2090  -10.1270 C.2     1  UNL1        0.0540
      2  C         18.9870  -21.2560  -10.7990 C.2     1  UNL1        0.0190
      3  C         19.4410  -20.7060  -11.9990 C.2     1  UNL1        0.0010
      4  C         20.6650  -21.1090  -12.5340 C.2     1  UNL1        0.0020
      5  C         21.4390  -22.0670  -11.8760 C.2     1  UNL1        0.0250
      6  C         20.9890  -22.6290  -10.6790 C.2     1  UNL1        0.0380
      7  N         21.8460  -23.5510   -9.9880 N.pl3   1  UNL1       -0.1800
      8  H         21.3660  -24.0710   -9.2360 H       1  UNL1        0.1460
      9  S         23.2750  -22.8970   -9.3440 S.O2    1  UNL1        0.2460
     10  O         22.9790  -21.6280   -8.7130 O.2     1  UNL1       -0.2060
     11  O         23.9480  -23.9610   -8.6320 O.2     1  UNL1       -0.2060
     12  C         24.2310  -22.5870  -10.8120 C.2     1  UNL1        0.0770
     13  C         24.9170  -21.3550  -10.9540 C.2     1  UNL1        0.0270
     14  C         25.6760  -21.0930  -12.1000 C.2     1  UNL1        0.0330
     15  C         25.7170  -22.0830  -13.0530 C.ar    1  UNL1        0.0630
     16  N         26.3770  -22.1100  -14.2760 N.ar    1  UNL1       -0.3070
     17  C         25.0460  -23.2970  -12.9010 C.ar    1  UNL1        0.0640
     18  C         26.1270  -23.3430  -14.8980 C.ar    1  UNL1        0.3250
     19  H         26.9560  -21.3910  -14.6770 H       1  UNL1        0.1700
     20  O         26.5480  -23.7090  -15.9800 O.2     1  UNL1       -0.2470
     21  N         25.2960  -24.0680  -14.0320 N.ar    1  UNL1       -0.3060
     22  H         24.9640  -24.9990  -14.2250 H       1  UNL1        0.1700
     23  C         24.2940  -23.5900  -11.7910 C.2     1  UNL1        0.0560
     24  C         19.2800  -22.8170   -8.8600 C.2     1  UNL1        0.2580
     25  N         18.5620  -21.9660   -8.0430 N.am    1  UNL1       -0.3230
     26  H         18.5610  -20.9850   -8.2940 H       1  UNL1        0.1690
     27  O         19.5830  -23.9860   -8.6390 O.2     1  UNL1       -0.2670
     28  C         17.9420  -22.2790   -6.8150 C.2     1  UNL1        0.0360
     29  C         18.5410  -21.7790   -5.6510 C.2     1  UNL1        0.0360
     30  C         17.9890  -22.0320   -4.3870 C.2     1  UNL1       -0.0590
     31  C         16.8100  -22.7770   -4.2970 C.2     1  UNL1        0.0130
     32  C         18.6230  -21.4620   -3.1530 C.3     1  UNL1        0.0480
     33  C         16.2030  -23.2940   -5.4470 C.2     1  UNL1       -0.0590
     34  C         14.9230  -24.0720   -5.3480 C.3     1  UNL1        0.0480
     35  C         16.7700  -23.0290   -6.7030 C.2     1  UNL1        0.0360
@<TRIPOS>BOND
     1    20    18    2
     2    18    16   ar
     3    18    21   ar
     4    19    16    1
     5    16    15   ar
     6    22    21    1
     7    21    17   ar
     8    15    17   ar
     9    15    14    1
    10    17    23    1
    11     4     3    2
    12     4     5    1
    13    14    13    2
    14     3     2    1
    15     5     6    2
    16    23    12    2
    17    13    12    1
    18    12     9    1
    19     2     1    2
    20     6     1    1
    21     6     7    1
    22     1    24    1
    23     7     9    1
    24     7     8    1
    25     9    10    2
    26     9    11    2
    27    24    27    2
    28    24    25   am
    29    26    25    1
    30    25    28    1
    31    28    35    2
    32    28    29    1
    33    35    33    1
    34    29    30    2
    35    33    34    1
    36    33    31    2
    37    30    31    1
    38    30    32    1
