@<TRIPOS>MOLECULE
55949_out_ligand_01.pdbqt
 27 30 0 0 0
SMALL
GASTEIGER

@<TRIPOS>ATOM
      1  C         21.4830  -23.4680   -8.8220 C.2     1  UNL1        0.1830
      2  O         22.0220  -24.5080   -9.1720 O.2     1  UNL1       -0.2880
      3  C         22.2350  -22.2420   -8.4100 C.2     1  UNL1        0.0560
      4  C         23.1390  -21.5800   -9.1510 C.2     1  UNL1        0.0150
      5  C         23.5630  -21.9120  -10.5100 C.2     1  UNL1       -0.0360
      6  C         24.7470  -22.6290  -10.7150 C.2     1  UNL1        0.0120
      7  C         25.1620  -22.9420  -12.0120 C.2     1  UNL1        0.0180
      8  C         24.4010  -22.5310  -13.1140 C.2     1  UNL1        0.0320
      9  C         23.2020  -21.8350  -12.9100 C.2     1  UNL1        0.0180
     10  C         22.7870  -21.5270  -11.6110 C.2     1  UNL1        0.0120
     11  C         24.8900  -22.8620  -14.4810 C.2     1  UNL1        0.2510
     12  N         24.2320  -22.2410  -15.5240 N.am    1  UNL1       -0.3610
     13  C         24.7230  -22.3750  -16.8720 C.3     1  UNL1        0.1490
     14  H         23.6870  -21.4160  -15.3060 H       1  UNL1        0.1620
     15  O         25.8500  -23.6110  -14.6310 O.2     1  UNL1       -0.2680
     16  C         20.0010  -23.3780   -8.7520 C.2     1  UNL1        0.0250
     17  C         19.3180  -24.0420   -7.7010 C.2     1  UNL1        0.0170
     18  C         17.9200  -23.9850   -7.5970 C.2     1  UNL1        0.0090
     19  C         17.2160  -23.2600   -8.5440 C.2     1  UNL1       -0.0460
     20  C         17.8920  -22.6180   -9.5520 C.2     1  UNL1       -0.0120
     21  C         15.7340  -23.0390   -8.6510 C.2     1  UNL1        0.0440
     22  C         17.0050  -21.9700  -10.3770 C.2     1  UNL1       -0.0460
     23  C         19.2810  -22.6270   -9.7200 C.2     1  UNL1       -0.0110
     24  C         17.4780  -21.2620  -11.4690 C.2     1  UNL1        0.0080
     25  C         15.5890  -22.1610   -9.9200 C.2     1  UNL1        0.0440
     26  C         18.8600  -21.2240  -11.6970 C.2     1  UNL1        0.0010
     27  C         19.7540  -21.8940  -10.8380 C.2     1  UNL1        0.0130
@<TRIPOS>BOND
     1    13    12    1
     2    12    14    1
     3    12    11   am
     4    15    11    2
     5    11     8    1
     6     8     9    2
     7     8     7    1
     8     9    10    1
     9     7     6    2
    10    26    24    1
    11    26    27    2
    12    10     5    2
    13    24    22    2
    14    27    23    1
    15     6     5    1
    16     5     4    1
    17    22    25    1
    18    22    20    1
    19    25    21    2
    20    23    20    1
    21    23    16    2
    22    20    19    2
    23     2     1    2
    24     4     3    2
    25     1    16    1
    26     1     3    1
    27    16    17    1
    28    21    19    1
    29    19    18    1
    30    17    18    2
