@<TRIPOS>MOLECULE
5595_out_ligand_01.pdbqt
 26 28 0 0 0
SMALL
GASTEIGER

@<TRIPOS>ATOM
      1  N         23.3780  -20.6910  -14.9600 N.1     1  UNL1       -0.1910
      2  C         23.1130  -21.1800  -13.9400 C.1     1  UNL1        0.0990
      3  C         22.7880  -21.7880  -12.6840 C.2     1  UNL1        0.0450
      4  C         23.7490  -22.5310  -11.9940 C.2     1  UNL1        0.0220
      5  C         23.4300  -23.1230  -10.7720 C.2     1  UNL1        0.0020
      6  C         22.1500  -22.9720  -10.2350 C.2     1  UNL1        0.0100
      7  C         21.1720  -22.2250  -10.9110 C.2     1  UNL1       -0.0260
      8  C         21.5030  -21.6400  -12.1440 C.2     1  UNL1        0.0320
      9  C         19.7800  -22.0970  -10.3210 C.3     1  UNL1        0.1720
     10  C         19.3230  -23.4350   -9.6800 C.3     1  UNL1        0.1590
     11  N         17.9410  -23.3000   -9.1380 N.pl3   1  UNL1       -0.3760
     12  C         17.0130  -22.8300  -10.1920 C.3     1  UNL1        0.1490
     13  C         17.5300  -21.5290  -10.8290 C.3     1  UNL1        0.1880
     14  O         18.8580  -21.6860  -11.3550 O.3     1  UNL1       -0.3780
     15  C         17.8060  -22.8780   -7.8140 C.2     1  UNL1        0.0340
     16  C         18.8540  -22.3090   -7.0730 C.2     1  UNL1        0.0480
     17  C         18.6500  -21.8960   -5.7570 C.2     1  UNL1        0.1200
     18  N         17.4750  -21.9970   -5.1110 N.2     1  UNL1       -0.2480
     19  C         16.4690  -22.5260   -5.8590 C.2     1  UNL1        0.1680
     20  C         16.5680  -22.9590   -7.1710 C.2     1  UNL1        0.0740
     21  S         14.9060  -22.6280   -5.0060 S.O2    1  UNL1        0.2570
     22  O         14.6010  -24.0290   -4.8090 O.2     1  UNL1       -0.2050
     23  O         13.9840  -21.7100   -5.6340 O.2     1  UNL1       -0.2050
     24  N         15.2850  -22.0180   -3.4690 N.3     1  UNL1       -0.2240
     25  H         16.0700  -21.3610   -3.5750 H       1  UNL1        0.1360
     26  H         15.5570  -22.8000   -2.8730 H       1  UNL1        0.1360
@<TRIPOS>BOND
     1     1     2    3
     2     2     3    1
     3     3     8    2
     4     3     4    1
     5     8     7    1
     6     4     5    2
     7    14    13    1
     8    14     9    1
     9     7     9    1
    10     7     6    2
    11    13    12    1
    12     5     6    1
    13     9    10    1
    14    12    11    1
    15    10    11    1
    16    11    15    1
    17    15    20    2
    18    15    16    1
    19    20    19    1
    20    16    17    2
    21    19    18    2
    22    19    21    1
    23    17    18    1
    24    23    21    2
    25    21    22    2
    26    21    24    1
    27    25    24    1
    28    24    26    1
