@<TRIPOS>MOLECULE
55963_out_ligand_01.pdbqt
 33 36 0 0 0
SMALL
GASTEIGER

@<TRIPOS>ATOM
      1  C         17.4610  -22.4280   -9.5150 C.2     1  UNL1        0.0770
      2  C         16.7470  -21.6230  -10.4060 C.2     1  UNL1        0.0250
      3  C         17.4270  -21.0000  -11.4480 C.2     1  UNL1        0.0040
      4  C         18.8070  -21.1830  -11.5990 C.2     1  UNL1        0.0290
      5  C         19.5210  -22.0010  -10.7170 C.2     1  UNL1        0.0360
      6  C         18.8340  -22.6400   -9.6820 C.2     1  UNL1        0.0540
      7  N         20.9070  -22.2380  -10.8110 N.am    1  UNL1       -0.3230
      8  C         21.7550  -21.8440  -11.8290 C.2     1  UNL1        0.2560
      9  O         21.4730  -21.1420  -12.7920 O.2     1  UNL1       -0.2670
     10  H         21.3330  -22.6740  -10.0030 H       1  UNL1        0.1690
     11  C         23.1650  -22.2980  -11.6760 C.2     1  UNL1        0.0340
     12  C         23.9520  -21.8700  -10.5930 C.2     1  UNL1        0.0190
     13  C         25.2790  -22.2960  -10.4450 C.2     1  UNL1        0.0340
     14  C         25.7610  -23.1670  -11.4230 C.ar    1  UNL1        0.0760
     15  N         26.9640  -23.7880  -11.6160 N.ar    1  UNL1       -0.2800
     16  C         25.0020  -23.6180  -12.4940 C.ar    1  UNL1        0.1030
     17  N         26.9630  -24.5500  -12.7210 N.ar    1  UNL1        0.0030
     18  H         27.8070  -23.7420  -11.0560 H       1  UNL1        0.1840
     19  N         25.7570  -24.4570  -13.2680 N.ar    1  UNL1       -0.1580
     20  C         23.6760  -23.1910  -12.6320 C.2     1  UNL1        0.0520
     21  S         16.6100  -23.2190   -8.1690 S.O2    1  UNL1        0.2460
     22  O         15.8470  -22.1980   -7.4810 O.2     1  UNL1       -0.2060
     23  O         15.9640  -24.4040   -8.6940 O.2     1  UNL1       -0.2060
     24  N         17.8650  -23.6730   -7.1240 N.pl3   1  UNL1       -0.1790
     25  H         17.7410  -24.6470   -6.8380 H       1  UNL1        0.1460
     26  C         18.1470  -22.8050   -6.0180 C.2     1  UNL1        0.0560
     27  C         18.9700  -21.6940   -6.1970 C.2     1  UNL1        0.0270
     28  C         19.1950  -20.8200   -5.1340 C.2     1  UNL1        0.0020
     29  C         18.5920  -21.0580   -3.9000 C.2     1  UNL1        0.0030
     30  C         17.7600  -22.1680   -3.7190 C.2     1  UNL1        0.0380
     31  C         17.5260  -23.0460   -4.7790 C.2     1  UNL1        0.0900
     32  O         16.7290  -24.1630   -4.7210 O.2     1  UNL1       -0.3540
     33  C         15.3570  -23.9450   -4.4090 C.3     1  UNL1        0.2100
@<TRIPOS>BOND
     1    19    17   ar
     2    19    16   ar
     3     9     8    2
     4    17    15   ar
     5    20    16    1
     6    20    11    2
     7    16    14   ar
     8     8    11    1
     9     8     7   am
    10    11    12    1
    11    15    14   ar
    12    15    18    1
    13     4     3    2
    14     4     5    1
    15     3     2    1
    16    14    13    1
    17     7     5    1
    18     7    10    1
    19     5     6    2
    20    12    13    2
    21     2     1    2
    22     6     1    1
    23     1    21    1
    24    23    21    2
    25    21    22    2
    26    21    24    1
    27    24    25    1
    28    24    26    1
    29    27    26    2
    30    27    28    1
    31    26    31    1
    32    28    29    2
    33    31    32    1
    34    31    30    2
    35    32    33    1
    36    29    30    1
