@<TRIPOS>MOLECULE
55975_out_ligand_01.pdbqt
 36 39 0 0 0
SMALL
GASTEIGER

@<TRIPOS>ATOM
      1  N         22.8090  -23.5040  -11.0050 N.pl3   1  UNL1       -0.1800
      2  H         23.1200  -24.4880  -11.0630 H       1  UNL1        0.1460
      3  C         23.1770  -22.7270  -12.1570 C.2     1  UNL1        0.0380
      4  C         24.3220  -23.0900  -12.8680 C.2     1  UNL1        0.0250
      5  C         24.6670  -22.4080  -14.0360 C.2     1  UNL1        0.0020
      6  C         23.8670  -21.3630  -14.5010 C.2     1  UNL1        0.0010
      7  C         22.7160  -20.9980  -13.8000 C.2     1  UNL1        0.0190
      8  C         22.3580  -21.6890  -12.6340 C.2     1  UNL1        0.0540
      9  C         21.1470  -21.2920  -11.8670 C.2     1  UNL1        0.2580
     10  N         20.0650  -22.1410  -12.0020 N.am    1  UNL1       -0.3230
     11  H         20.2290  -23.0180  -12.4790 H       1  UNL1        0.1690
     12  O         21.2250  -20.2880  -11.1650 O.2     1  UNL1       -0.2670
     13  C         18.7830  -21.9900  -11.4330 C.2     1  UNL1        0.0350
     14  C         18.1020  -20.7960  -11.7010 C.2     1  UNL1        0.0290
     15  C         16.8350  -20.5630  -11.1630 C.2     1  UNL1        0.0030
     16  C         16.2340  -21.5230  -10.3520 C.2     1  UNL1        0.0070
     17  C         16.8950  -22.7260  -10.0800 C.2     1  UNL1       -0.0600
     18  C         16.2690  -23.7510   -9.1810 C.3     1  UNL1        0.0480
     19  C         18.1760  -22.9440  -10.6140 C.2     1  UNL1        0.0360
     20  S         23.3040  -22.8860   -9.5020 S.O2    1  UNL1        0.2460
     21  O         24.1970  -23.8580   -8.9110 O.2     1  UNL1       -0.2060
     22  O         23.6830  -21.4970   -9.6540 O.2     1  UNL1       -0.2060
     23  C         21.7930  -22.9520   -8.5660 C.2     1  UNL1        0.0770
     24  C         20.9310  -24.0420   -8.7410 C.2     1  UNL1        0.0270
     25  C         19.7450  -24.1070   -8.0070 C.2     1  UNL1        0.0330
     26  C         19.4360  -23.0890   -7.1060 C.ar    1  UNL1        0.0620
     27  N         18.2490  -23.1500   -6.3730 N.ar    1  UNL1       -0.3170
     28  C         20.3110  -22.0080   -6.9290 C.ar    1  UNL1        0.0630
     29  C         17.8700  -22.1870   -5.4630 C.ar    1  UNL1        0.3140
     30  H         17.6080  -23.9250   -6.4840 H       1  UNL1        0.1690
     31  O         16.8200  -22.2690   -4.8410 O.2     1  UNL1       -0.2620
     32  C         18.8370  -20.9920   -5.2690 C.ar    1  UNL1        0.3140
     33  O         18.5850  -20.0860   -4.4850 O.2     1  UNL1       -0.2620
     34  N         19.9900  -20.9960   -6.0210 N.ar    1  UNL1       -0.3170
     35  H         20.6130  -20.2120   -5.8750 H       1  UNL1        0.1690
     36  C         21.4970  -21.9350   -7.6550 C.2     1  UNL1        0.0560
@<TRIPOS>BOND
     1     6     5    2
     2     6     7    1
     3     5     4    1
     4     7     8    2
     5     4     3    2
     6     8     3    1
     7     8     9    1
     8    11    10    1
     9     3     1    1
    10    10     9   am
    11    10    13    1
    12     9    12    2
    13    14    13    2
    14    14    15    1
    15    13    19    1
    16    15    16    2
    17     2     1    1
    18     1    20    1
    19    19    17    2
    20    16    17    1
    21    17    18    1
    22    22    20    2
    23    20    21    2
    24    20    23    1
    25    24    23    2
    26    24    25    1
    27    23    36    1
    28    25    26    2
    29    36    28    2
    30    26    28   ar
    31    26    27   ar
    32    28    34   ar
    33    30    27    1
    34    27    29   ar
    35    34    35    1
    36    34    32   ar
    37    29    32   ar
    38    29    31    2
    39    32    33    2
