@<TRIPOS>MOLECULE
56002_out_ligand_01.pdbqt
 27 29 0 0 0
SMALL
GASTEIGER

@<TRIPOS>ATOM
      1  N         20.3240  -24.0980   -9.1800 N.pl3   1  UNL1       -0.2890
      2  H         20.0780  -25.0460   -9.4590 H       1  UNL1        0.1280
      3  C         19.5270  -23.6430   -8.1280 C.2     1  UNL1        0.0090
      4  C         19.9260  -22.4960   -7.4330 C.2     1  UNL1        0.0320
      5  C         19.2100  -22.0030   -6.3220 C.2     1  UNL1       -0.0290
      6  C         19.7590  -20.7880   -5.6180 C.3     1  UNL1        0.0420
      7  C         18.0590  -22.6770   -5.8700 C.2     1  UNL1        0.0430
      8  C         18.7610  -20.1750   -4.6510 C.3     1  UNL1        0.0250
      9  C         18.0900  -21.2780   -3.8520 C.3     1  UNL1        0.1320
     10  N         17.3410  -22.1730   -4.7380 N.am    1  UNL1       -0.3180
     11  C         16.0470  -22.5030   -4.3430 C.2     1  UNL1        0.2200
     12  C         15.0560  -22.9660   -5.3850 C.3     1  UNL1        0.1170
     13  O         15.6520  -22.3540   -3.1810 O.2     1  UNL1       -0.2730
     14  C         17.7170  -23.8710   -6.5100 C.2     1  UNL1        0.0320
     15  C         18.4380  -24.3460   -7.6170 C.2     1  UNL1        0.0260
     16  C         21.7660  -23.9040   -9.1280 C.3     1  UNL1        0.1310
     17  C         22.2100  -23.1610  -10.3670 C.2     1  UNL1       -0.0450
     18  C         23.5360  -23.2390  -10.8130 C.2     1  UNL1        0.0090
     19  C         23.9350  -22.5550  -11.9660 C.2     1  UNL1        0.0170
     20  C         23.0120  -21.7950  -12.6950 C.2     1  UNL1        0.0310
     21  C         21.6870  -21.7090  -12.2510 C.2     1  UNL1        0.0170
     22  C         21.2900  -22.3940  -11.0980 C.2     1  UNL1        0.0090
     23  C         23.4880  -21.0880  -13.9130 C.2     1  UNL1        0.2490
     24  N         22.6120  -20.2430  -14.5390 N.am    1  UNL1       -0.3660
     25  H         21.6180  -20.2820  -14.3720 H       1  UNL1        0.1590
     26  H         22.9190  -19.8800  -15.4320 H       1  UNL1        0.1590
     27  O         24.6090  -21.2760  -14.3700 O.2     1  UNL1       -0.2680
@<TRIPOS>BOND
     1    26    24    1
     2    24    25    1
     3    24    23   am
     4    27    23    2
     5    23    20    1
     6    20    21    2
     7    20    19    1
     8    21    22    1
     9    19    18    2
    10    22    17    2
    11    18    17    1
    12    17    16    1
    13     2     1    1
    14     1    16    1
    15     1     3    1
    16     3    15    2
    17     3     4    1
    18    15    14    1
    19     4     5    2
    20    14     7    2
    21     5     7    1
    22     5     6    1
    23     7    10    1
    24     6     8    1
    25    12    11    1
    26    10    11   am
    27    10     9    1
    28     8     9    1
    29    11    13    2
