@<TRIPOS>MOLECULE
56042_out_ligand_01.pdbqt
 35 37 0 0 0
SMALL
GASTEIGER

@<TRIPOS>ATOM
      1  C         19.5870  -22.7800   -9.9030 C.2     1  UNL1        0.0300
      2  C         18.3450  -22.5900  -10.5210 C.2     1  UNL1        0.0160
      3  C         18.2280  -21.6640  -11.5590 C.2     1  UNL1        0.0010
      4  C         19.3400  -20.9240  -11.9710 C.2     1  UNL1        0.0010
      5  C         20.5750  -21.1040  -11.3450 C.2     1  UNL1        0.0180
      6  C         20.6980  -22.0320  -10.3030 C.2     1  UNL1        0.0460
      7  C         22.0140  -22.2540   -9.6720 C.2     1  UNL1        0.2520
      8  O         22.2750  -21.6990   -8.6130 O.2     1  UNL1       -0.2680
      9  N         22.8580  -23.0960  -10.3570 N.am    1  UNL1       -0.3530
     10  H         22.6120  -23.3670  -11.3000 H       1  UNL1        0.1630
     11  C         24.2420  -23.2530   -9.9670 C.3     1  UNL1        0.1610
     12  C         25.1630  -22.6150  -10.9770 C.2     1  UNL1       -0.0400
     13  C         25.7020  -23.3780  -12.0240 C.2     1  UNL1        0.0090
     14  C         26.5400  -22.7940  -12.9740 C.2     1  UNL1        0.0020
     15  C         26.8530  -21.4380  -12.8880 C.2     1  UNL1        0.0170
     16  C         26.3360  -20.6620  -11.8440 C.2     1  UNL1        0.0320
     17  C         25.4830  -21.2500  -10.8970 C.2     1  UNL1        0.0260
     18  C         26.6950  -19.2200  -11.7940 C.2     1  UNL1        0.2490
     19  N         26.9670  -18.5950  -12.9800 N.am    1  UNL1       -0.3660
     20  H         27.0690  -17.5900  -12.9240 H       1  UNL1        0.1590
     21  H         26.6600  -18.9780  -13.8630 H       1  UNL1        0.1590
     22  O         26.7140  -18.5940  -10.7420 O.2     1  UNL1       -0.2680
     23  C         19.6670  -23.7040   -8.7630 C.2     1  UNL1        0.1930
     24  O         20.4600  -24.6380   -8.8400 O.2     1  UNL1       -0.2870
     25  C         18.8410  -23.4950   -7.5420 C.2     1  UNL1        0.0170
     26  C         17.7590  -24.3240   -7.2190 C.2     1  UNL1        0.0170
     27  C         17.0130  -24.0920   -6.0550 C.2     1  UNL1        0.0220
     28  C         17.3330  -23.0400   -5.1870 C.2     1  UNL1        0.0330
     29  C         18.4190  -22.2260   -5.5320 C.2     1  UNL1        0.1200
     30  C         19.1760  -22.4370   -6.6920 C.2     1  UNL1        0.0530
     31  S         16.2950  -22.7980   -3.7550 S.3     1  UNL1       -0.1320
     32  C         14.7840  -22.2410   -4.5910 C.3     1  UNL1        0.0950
     33  N         18.8070  -21.1160   -4.6890 N.pl3   1  UNL1       -0.1140
     34  O         19.1150  -20.0610   -5.2600 O.2     1  UNL1       -0.5320
     35  O         18.8440  -21.3200   -3.4680 O.2     1  UNL1       -0.5320
@<TRIPOS>BOND
     1    21    19    1
     2    19    20    1
     3    19    18   am
     4    14    15    2
     5    14    13    1
     6    15    16    1
     7    13    12    2
     8     4     3    2
     9     4     5    1
    10    16    18    1
    11    16    17    2
    12    18    22    2
    13     3     2    1
    14     5     6    2
    15    10     9    1
    16    12    17    1
    17    12    11    1
    18     2     1    2
    19     9    11    1
    20     9     7   am
    21     6     1    1
    22     6     7    1
    23     1    23    1
    24     7     8    2
    25    24    23    2
    26    23    25    1
    27    25    26    2
    28    25    30    1
    29    26    27    1
    30    30    29    2
    31    27    28    2
    32    29    28    1
    33    29    33    1
    34    34    33    2
    35    28    31    1
    36    33    35    2
    37    32    31    1
