@<TRIPOS>MOLECULE
56049_out_ligand_01.pdbqt
 36 39 0 0 0
SMALL
GASTEIGER

@<TRIPOS>ATOM
      1  C         24.5650  -21.9560  -11.1550 C.2     1  UNL1        0.0330
      2  C         25.7170  -21.2330  -10.8130 C.2     1  UNL1        0.0170
      3  C         26.8620  -21.3270  -11.6080 C.2     1  UNL1        0.0030
      4  C         26.8670  -22.1510  -12.7330 C.2     1  UNL1        0.0250
      5  C         25.7230  -22.8910  -13.0530 C.2     1  UNL1        0.0750
      6  C         24.5650  -22.7890  -12.2780 C.2     1  UNL1        0.0410
      7  C         23.3420  -21.9010  -10.3120 C.2     1  UNL1        0.2560
      8  N         22.3710  -22.8240  -10.6510 N.am    1  UNL1       -0.3220
      9  H         22.6280  -23.5030  -11.3530 H       1  UNL1        0.1690
     10  O         23.3130  -21.0780   -9.4050 O.2     1  UNL1       -0.2670
     11  C         21.0910  -22.9910  -10.0690 C.2     1  UNL1        0.0410
     12  C         20.8720  -23.8340   -8.9760 C.2     1  UNL1        0.0310
     13  C         19.5960  -23.9770   -8.4190 C.2     1  UNL1        0.0110
     14  C         18.5040  -23.2800   -8.9420 C.2     1  UNL1       -0.0290
     15  C         18.7220  -22.4260  -10.0310 C.2     1  UNL1        0.0180
     16  C         20.0000  -22.2720  -10.6040 C.2     1  UNL1       -0.0350
     17  C         20.1440  -21.3400  -11.7770 C.3     1  UNL1        0.0500
     18  C         17.1240  -23.4390   -8.3400 C.3     1  UNL1        0.3110
     19  N         17.0170  -23.3590   -6.8740 N.3     1  UNL1        0.0940
     20  C         15.6710  -23.6880   -6.3770 C.3     1  UNL1        0.2830
     21  C         15.6220  -23.9030   -4.8580 C.3     1  UNL1        0.1040
     22  S         16.1140  -22.4170   -3.9290 S.3     1  UNL1       -0.1660
     23  C         17.6790  -22.1050   -4.8050 C.3     1  UNL1        0.1040
     24  C         17.5000  -22.0800   -6.3290 C.3     1  UNL1        0.2830
     25  S         25.7270  -23.9290  -14.4960 S.O2    1  UNL1        0.2460
     26  O         25.0910  -25.1750  -14.1190 O.2     1  UNL1       -0.2060
     27  O         27.0530  -23.9090  -15.0710 O.2     1  UNL1       -0.2060
     28  N         24.6300  -23.1310  -15.5160 N.pl3   1  UNL1       -0.1780
     29  H         24.2000  -23.8290  -16.1280 H       1  UNL1        0.1460
     30  C         25.1210  -21.9690  -16.1900 C.2     1  UNL1        0.0610
     31  C         25.2140  -20.7510  -15.5200 C.2     1  UNL1        0.0270
     32  C         25.7680  -19.6440  -16.1670 C.2     1  UNL1        0.0020
     33  C         26.2320  -19.7540  -17.4800 C.2     1  UNL1        0.0030
     34  C         26.1430  -20.9730  -18.1520 C.2     1  UNL1        0.0440
     35  C         25.5940  -22.0730  -17.5020 C.2     1  UNL1        0.1380
     36  F         25.5080  -23.2440  -18.1500 F       1  UNL1       -0.2040
@<TRIPOS>BOND
     1    34    35    1
     2    34    33    2
     3    36    35    1
     4    35    30    2
     5    33    32    1
     6    30    31    1
     7    30    28    1
     8    32    31    2
     9    29    28    1
    10    28    25    1
    11    27    25    2
    12    25    26    2
    13    25     5    1
    14     5     4    2
    15     5     6    1
    16     4     3    1
    17     6     1    2
    18    17    16    1
    19     3     2    2
    20     9     8    1
    21     1     2    1
    22     1     7    1
    23     8     7   am
    24     8    11    1
    25    16    11    2
    26    16    15    1
    27     7    10    2
    28    11    12    1
    29    15    14    2
    30    12    13    2
    31    14    13    1
    32    14    18    1
    33    18    19    1
    34    19    20    1
    35    19    24    1
    36    20    21    1
    37    24    23    1
    38    21    22    1
    39    23    22    1
