@<TRIPOS>MOLECULE
56067_out_ligand_01.pdbqt
 33 37 0 0 0
SMALL
GASTEIGER

@<TRIPOS>ATOM
      1  C         20.0080  -21.9400  -11.1390 C.2     1  UNL1        0.0330
      2  C         18.8620  -21.3630  -11.7430 C.2     1  UNL1        0.0180
      3  C         17.5800  -21.6050  -11.2310 C.2     1  UNL1        0.0190
      4  C         17.4830  -22.4370  -10.1320 C.2     1  UNL1        0.0480
      5  C         18.5970  -23.0160   -9.5530 C.2     1  UNL1        0.0490
      6  C         19.8730  -22.7910  -10.0310 C.2     1  UNL1        0.0350
      7  C         18.1350  -23.8430   -8.4410 C.2     1  UNL1        0.2620
      8  O         18.8690  -24.4950   -7.7230 O.2     1  UNL1       -0.2670
      9  N         16.7750  -23.7230   -8.4060 N.am    1  UNL1       -0.2740
     10  C         16.3100  -22.8870   -9.3830 C.2     1  UNL1        0.2620
     11  O         15.1750  -22.5300   -9.6270 O.2     1  UNL1       -0.2670
     12  C         21.3810  -21.7100  -11.6770 C.2     1  UNL1        0.2560
     13  O         21.4910  -21.0100  -12.6750 O.2     1  UNL1       -0.2670
     14  N         22.4000  -22.3560  -11.0040 N.am    1  UNL1       -0.3230
     15  H         22.1390  -23.0100  -10.2790 H       1  UNL1        0.1690
     16  C         23.7860  -22.2550  -11.2540 C.2     1  UNL1        0.0350
     17  C         24.6360  -21.3740  -10.5890 C.2     1  UNL1        0.0290
     18  C         26.0020  -21.3510  -10.8820 C.2     1  UNL1        0.0030
     19  C         26.5330  -22.2180  -11.8350 C.2     1  UNL1        0.0090
     20  C         25.7050  -23.1250  -12.5080 C.2     1  UNL1       -0.0380
     21  C         24.3270  -23.1160  -12.2210 C.2     1  UNL1        0.0380
     22  C         26.3050  -24.0320  -13.5580 C.3     1  UNL1        0.1670
     23  N         25.9530  -23.6510  -14.9170 N.pl3   1  UNL1       -0.3460
     24  C         26.4660  -22.5970  -15.6230 C.2     1  UNL1        0.1110
     25  C         25.8590  -22.6690  -16.8550 C.2     1  UNL1        0.1350
     26  N         24.9970  -23.7340  -16.9130 N.2     1  UNL1       -0.2550
     27  C         25.0850  -24.3160  -15.7380 C.2     1  UNL1        0.2090
     28  C         15.9280  -24.4150   -7.4580 C.3     1  UNL1        0.2000
     29  C         15.8550  -23.6460   -6.1860 C.2     1  UNL1        0.0700
     30  C         15.1060  -22.5660   -5.7600 C.2     1  UNL1        0.0360
     31  C         15.5080  -22.2980   -4.4300 C.2     1  UNL1        0.0270
     32  C         16.4600  -23.2420   -4.1190 C.2     1  UNL1        0.1420
     33  O         16.6750  -24.0660   -5.1760 O.2     1  UNL1       -0.3250
@<TRIPOS>BOND
     1    26    25    1
     2    26    27    2
     3    25    24    2
     4    27    23    1
     5    24    23    1
     6    23    22    1
     7    22    20    1
     8    13    12    2
     9    20    21    1
    10    20    19    2
    11    21    16    2
    12    19    18    1
    13     2     3    1
    14     2     1    2
    15    12     1    1
    16    12    14   am
    17    16    14    1
    18    16    17    1
    19     3     4    2
    20     1     6    1
    21    14    15    1
    22    18    17    2
    23     4     5    1
    24     4    10    1
    25     6     5    2
    26    11    10    2
    27     5     7    1
    28    10     9   am
    29     7     9   am
    30     7     8    2
    31     9    28    1
    32    28    29    1
    33    29    30    2
    34    29    33    1
    35    30    31    1
    36    33    32    1
    37    31    32    2
