@<TRIPOS>MOLECULE
56090_out_ligand_01.pdbqt
 33 37 0 0 0
SMALL
GASTEIGER

@<TRIPOS>ATOM
      1  C         21.5250  -22.9030  -10.2470 C.2     1  UNL1        0.0970
      2  C         22.0690  -23.8580   -9.3630 C.3     1  UNL1        0.1600
      3  N         21.2110  -24.2480   -8.4250 N.3     1  UNL1       -0.1770
      4  N         20.1250  -23.4420   -8.6010 N.pl3   1  UNL1       -0.2130
      5  C         20.2160  -22.7560   -9.8080 C.2     1  UNL1        0.1530
      6  C         22.1800  -22.3750  -11.4330 C.2     1  UNL1        0.2610
      7  O         21.5420  -22.0770  -12.4330 O.2     1  UNL1       -0.2670
      8  N         23.5490  -22.2730  -11.2700 N.am    1  UNL1       -0.3230
      9  H         23.9130  -22.4970  -10.3520 H       1  UNL1        0.1690
     10  C         24.4980  -21.8290  -12.2150 C.2     1  UNL1        0.0350
     11  C         25.6480  -21.1110  -11.8880 C.2     1  UNL1        0.0290
     12  C         26.5350  -20.7070  -12.8880 C.2     1  UNL1        0.0030
     13  C         26.2830  -21.0200  -14.2240 C.2     1  UNL1        0.0140
     14  C         25.1380  -21.7420  -14.5770 C.2     1  UNL1       -0.0060
     15  C         24.2510  -22.1350  -13.5620 C.2     1  UNL1        0.0430
     16  C         24.8580  -22.0800  -15.9710 C.2     1  UNL1        0.0610
     17  C         24.8570  -23.2900  -16.6410 C.2     1  UNL1        0.0530
     18  C         24.5190  -22.9810  -17.9710 C.2     1  UNL1        0.1410
     19  N         24.3280  -21.6740  -18.1530 N.2     1  UNL1       -0.1870
     20  N         24.5440  -21.1520  -16.9340 N.pl3   1  UNL1       -0.2780
     21  H         24.4750  -20.1460  -16.8260 H       1  UNL1        0.1890
     22  N         19.1520  -22.1050  -10.4400 N.pl3   1  UNL1       -0.3170
     23  C         19.1620  -20.8420  -11.0020 C.2     1  UNL1        0.0980
     24  C         17.9250  -20.5640  -11.5410 C.2     1  UNL1        0.0190
     25  C         17.1180  -21.6980  -11.3340 C.2     1  UNL1        0.0190
     26  C         17.8890  -22.6270  -10.6740 C.2     1  UNL1        0.0980
     27  C         19.2010  -23.3390   -7.5280 C.2     1  UNL1        0.0990
     28  C         18.2350  -24.3440   -7.3570 C.2     1  UNL1        0.0350
     29  C         17.3190  -24.2650   -6.3050 C.2     1  UNL1        0.0020
     30  C         17.3750  -23.2010   -5.4050 C.2     1  UNL1        0.0030
     31  C         18.3600  -22.2240   -5.5470 C.2     1  UNL1        0.0450
     32  C         19.2730  -22.3030   -6.5960 C.2     1  UNL1        0.1450
     33  F         20.2650  -21.4010   -6.6280 F       1  UNL1       -0.2040
@<TRIPOS>BOND
     1    19    18    2
     2    19    20    1
     3    18    17    1
     4    20    21    1
     5    20    16    1
     6    17    16    2
     7    16    14    1
     8    14    13    2
     9    14    15    1
    10    13    12    1
    11    15    10    2
    12    12    11    2
    13     7     6    2
    14    10    11    1
    15    10     8    1
    16    24    25    1
    17    24    23    2
    18     6     8   am
    19     6     1    1
    20    25    26    2
    21     8     9    1
    22    23    22    1
    23    26    22    1
    24    22     5    1
    25     1     5    2
    26     1     2    1
    27     5     4    1
    28     2     3    1
    29     4     3    1
    30     4    27    1
    31    27    28    2
    32    27    32    1
    33    28    29    1
    34    33    32    1
    35    32    31    2
    36    29    30    2
    37    31    30    1
