@<TRIPOS>MOLECULE
56098_out_ligand_01.pdbqt
 35 38 0 0 0
SMALL
GASTEIGER

@<TRIPOS>ATOM
      1  C         17.2390  -22.7030   -5.5820 C.2     1  UNL1        0.0540
      2  C         17.1320  -23.2260   -4.2850 C.2     1  UNL1        0.0190
      3  C         15.8790  -23.5720   -3.7780 C.2     1  UNL1        0.0010
      4  C         14.7350  -23.4040   -4.5590 C.2     1  UNL1        0.0020
      5  C         14.8380  -22.8940   -5.8540 C.2     1  UNL1        0.0250
      6  C         16.0880  -22.5550   -6.3760 C.2     1  UNL1        0.0380
      7  N         16.1490  -21.9530   -7.6780 N.pl3   1  UNL1       -0.1800
      8  H         15.3880  -21.2800   -7.8570 H       1  UNL1        0.1460
      9  S         16.2180  -23.0300   -8.9910 S.O2    1  UNL1        0.2460
     10  O         16.8180  -24.2740   -8.5550 O.2     1  UNL1       -0.2060
     11  O         14.9250  -22.9980   -9.6360 O.2     1  UNL1       -0.2060
     12  C         17.3540  -22.2050  -10.0820 C.2     1  UNL1        0.0770
     13  C         16.9800  -20.9760  -10.6820 C.2     1  UNL1        0.0270
     14  C         17.8610  -20.3090  -11.5420 C.2     1  UNL1        0.0330
     15  C         19.0820  -20.9040  -11.7580 C.ar    1  UNL1        0.0630
     16  N         20.1460  -20.4840  -12.5480 N.ar    1  UNL1       -0.3070
     17  C         19.4450  -22.1090  -11.1550 C.ar    1  UNL1        0.0640
     18  C         21.1840  -21.4220  -12.4440 C.ar    1  UNL1        0.3250
     19  H         20.2030  -19.6480  -13.1060 H       1  UNL1        0.1700
     20  O         22.2650  -21.3720  -13.0000 O.2     1  UNL1       -0.2470
     21  N         20.7310  -22.4270  -11.5760 N.ar    1  UNL1       -0.3060
     22  H         21.2830  -23.2290  -11.3150 H       1  UNL1        0.1700
     23  C         18.6090  -22.7890  -10.3060 C.2     1  UNL1        0.0560
     24  C         18.5690  -22.3490   -6.1390 C.2     1  UNL1        0.2580
     25  O         19.0710  -21.2870   -5.7890 O.2     1  UNL1       -0.2670
     26  N         19.1240  -23.3020   -6.9720 N.am    1  UNL1       -0.3230
     27  H         18.6570  -24.2010   -7.0050 H       1  UNL1        0.1690
     28  C         20.3510  -23.2170   -7.6610 C.2     1  UNL1        0.0380
     29  C         20.7550  -24.3480   -8.3890 C.2     1  UNL1        0.0320
     30  C         21.9550  -24.3440   -9.1070 C.2     1  UNL1        0.0480
     31  C         22.7500  -23.2060   -9.1010 C.2     1  UNL1        0.1540
     32  F         23.8980  -23.2030   -9.7920 F       1  UNL1       -0.2030
     33  C         22.3560  -22.0820   -8.3890 C.2     1  UNL1        0.1570
     34  F         23.1230  -20.9830   -8.3930 F       1  UNL1       -0.2030
     35  C         21.1620  -22.0790   -7.6690 C.2     1  UNL1        0.0750
@<TRIPOS>BOND
     1    19    16    1
     2    20    18    2
     3    16    18   ar
     4    16    15   ar
     5    18    21   ar
     6    15    14    2
     7    15    17   ar
     8    21    22    1
     9    21    17   ar
    10    14    13    1
    11    17    23    2
    12    13    12    2
    13    23    12    1
    14    12     9    1
    15    32    31    1
    16    11     9    2
    17    30    31    2
    18    30    29    1
    19    31    33    1
    20     9    10    2
    21     9     7    1
    22    34    33    1
    23    29    28    2
    24    33    35    2
    25     8     7    1
    26     7     6    1
    27    35    28    1
    28    28    26    1
    29    27    26    1
    30    26    24   am
    31     6     5    1
    32     6     1    2
    33    24    25    2
    34    24     1    1
    35     5     4    2
    36     1     2    1
    37     4     3    1
    38     2     3    2
