@<TRIPOS>MOLECULE
56107_out_ligand_01.pdbqt
 35 38 0 0 0
SMALL
GASTEIGER

@<TRIPOS>ATOM
      1  S         22.6300  -22.1510   -9.2690 S.3     1  UNL1       -0.1000
      2  C         23.7900  -22.0840  -10.6020 C.2     1  UNL1        0.1090
      3  N         25.0940  -22.3480  -10.3400 N.2     1  UNL1       -0.2340
      4  C         25.9720  -22.2380  -11.3490 C.2     1  UNL1        0.2350
      5  N         25.7210  -21.8650  -12.6000 N.2     1  UNL1       -0.2340
      6  C         24.4200  -21.6130  -12.8200 C.2     1  UNL1        0.1120
      7  S         23.9080  -21.1230  -14.3680 S.3     1  UNL1       -0.0800
      8  C         23.3850  -21.7050  -11.8970 C.2     1  UNL1        0.0470
      9  C         22.2810  -21.0620  -13.8720 C.2     1  UNL1        0.0650
     10  C         22.1250  -21.3920  -12.5390 C.2     1  UNL1       -0.0030
     11  C         20.7820  -21.4510  -11.9820 C.2     1  UNL1       -0.0240
     12  C         20.2510  -22.6600  -11.5200 C.2     1  UNL1        0.0150
     13  C         18.9540  -22.7030  -10.9920 C.2     1  UNL1        0.0370
     14  C         18.1880  -21.5380  -10.9180 C.2     1  UNL1        0.0680
     15  C         18.7290  -20.3300  -11.3700 C.2     1  UNL1        0.0370
     16  C         20.0180  -20.2830  -11.9020 C.2     1  UNL1        0.0150
     17  O         16.9160  -21.4370  -10.4280 O.2     1  UNL1       -0.3560
     18  C         16.3950  -22.5680   -9.7400 C.3     1  UNL1        0.2100
     19  C         22.4410  -23.9450   -9.0330 C.3     1  UNL1        0.1840
     20  C         21.0400  -24.2870   -8.5410 C.2     1  UNL1        0.2310
     21  O         20.5660  -25.4060   -8.7220 O.2     1  UNL1       -0.2720
     22  N         20.4280  -23.2440   -7.8710 N.am    1  UNL1       -0.3270
     23  H         20.9310  -22.3570   -7.9030 H       1  UNL1        0.1690
     24  C         19.1880  -23.2470   -7.2070 C.2     1  UNL1        0.0340
     25  C         18.8570  -22.0990   -6.4720 C.2     1  UNL1        0.0310
     26  C         17.6580  -22.0280   -5.7570 C.2     1  UNL1        0.0270
     27  C         16.7780  -23.1100   -5.7840 C.2     1  UNL1        0.0740
     28  C         17.0970  -24.2650   -6.5040 C.2     1  UNL1        0.0270
     29  C         18.2990  -24.3250   -7.2180 C.2     1  UNL1        0.0310
     30  S         15.2680  -23.0360   -4.8580 S.O2    1  UNL1        0.2390
     31  O         14.3120  -22.2390   -5.5920 O.2     1  UNL1       -0.2060
     32  O         14.9680  -24.3650   -4.3780 O.2     1  UNL1       -0.2060
     33  N         15.7440  -22.1540   -3.5040 N.3     1  UNL1       -0.2250
     34  H         15.2750  -21.2540   -3.4200 H       1  UNL1        0.1360
     35  H         16.7640  -22.0750   -3.5000 H       1  UNL1        0.1360
@<TRIPOS>BOND
     1     7     9    1
     2     7     6    1
     3     9    10    2
     4     6     5    2
     5     6     8    1
     6     5     4    1
     7    10    11    1
     8    10     8    1
     9    11    16    2
    10    11    12    1
    11    16    15    1
    12     8     2    2
    13    12    13    2
    14    15    14    2
    15     4     3    2
    16    13    14    1
    17    14    17    1
    18     2     3    1
    19     2     1    1
    20    17    18    1
    21     1    19    1
    22    19    20    1
    23    21    20    2
    24    20    22   am
    25    23    22    1
    26    22    24    1
    27    29    24    2
    28    29    28    1
    29    24    25    1
    30    28    27    2
    31    25    26    2
    32    27    26    1
    33    27    30    1
    34    31    30    2
    35    30    32    2
    36    30    33    1
    37    33    35    1
    38    33    34    1
