@<TRIPOS>MOLECULE
56109_out_ligand_01.pdbqt
 34 37 0 0 0
SMALL
GASTEIGER

@<TRIPOS>ATOM
      1  C         17.1060  -22.8270   -9.7070 C.2     1  UNL1       -0.0400
      2  C         16.9850  -21.7960  -10.6520 C.2     1  UNL1        0.0100
      3  C         18.1190  -21.2480  -11.2530 C.2     1  UNL1        0.0170
      4  C         19.3880  -21.7340  -10.9280 C.2     1  UNL1        0.0320
      5  C         19.5210  -22.7540   -9.9790 C.2     1  UNL1        0.0170
      6  C         18.3840  -23.2990   -9.3730 C.2     1  UNL1        0.0100
      7  C         15.8710  -23.4020   -9.0540 C.3     1  UNL1        0.1700
      8  N         15.6920  -22.8560   -7.7170 N.3     1  UNL1       -0.3110
      9  H         15.9290  -21.8810   -7.5430 H       1  UNL1        0.1720
     10  S         15.8720  -23.8680   -6.4030 S.O2    1  UNL1        0.2590
     11  O         16.6260  -25.0160   -6.8540 O.2     1  UNL1       -0.2010
     12  O         14.5670  -24.0170   -5.7950 O.2     1  UNL1       -0.2010
     13  C         16.9110  -22.8990   -5.3220 C.2     1  UNL1        0.0860
     14  C         16.7380  -22.8970   -3.9260 C.2     1  UNL1       -0.0390
     15  C         17.6100  -22.1110   -3.1530 C.2     1  UNL1        0.0090
     16  C         15.6490  -23.6560   -3.2210 C.3     1  UNL1        0.0500
     17  C         18.6230  -21.3560   -3.7490 C.2     1  UNL1        0.0070
     18  C         18.7820  -21.3480   -5.1370 C.2     1  UNL1       -0.0600
     19  C         19.8860  -20.5550   -5.7730 C.3     1  UNL1        0.0480
     20  C         17.9260  -22.1300   -5.9190 C.2     1  UNL1        0.0320
     21  C         20.5720  -21.1250  -11.5970 C.2     1  UNL1        0.2560
     22  O         20.5720  -19.9140  -11.7840 O.2     1  UNL1       -0.2670
     23  N         21.5450  -22.0300  -11.9810 N.am    1  UNL1       -0.3230
     24  H         21.3270  -23.0110  -11.8690 H       1  UNL1        0.1690
     25  C         22.7690  -21.7470  -12.6260 C.2     1  UNL1        0.0370
     26  C         23.9280  -21.7820  -11.8340 C.2     1  UNL1        0.0320
     27  C         25.1830  -21.5150  -12.3890 C.2     1  UNL1        0.0420
     28  C         25.2870  -21.2030  -13.7410 C.2     1  UNL1        0.1020
     29  C         24.1400  -21.1810  -14.5410 C.2     1  UNL1        0.1040
     30  O         26.5450  -20.9360  -14.2160 O.2     1  UNL1       -0.3460
     31  C         22.8840  -21.4360  -13.9830 C.2     1  UNL1        0.0690
     32  O         24.1720  -20.9080  -15.8870 O.2     1  UNL1       -0.3460
     33  C         25.4990  -21.0230  -16.4100 C.3     1  UNL1        0.2020
     34  C         26.4950  -20.3130  -15.5050 C.3     1  UNL1        0.2020
@<TRIPOS>BOND
     1    33    32    1
     2    33    34    1
     3    32    29    1
     4    34    30    1
     5    29    31    1
     6    29    28    2
     7    30    28    1
     8    31    25    2
     9    28    27    1
    10    25    23    1
    11    25    26    1
    12    27    26    2
    13    23    24    1
    14    23    21   am
    15    22    21    2
    16    21     4    1
    17     3     4    2
    18     3     2    1
    19     4     5    1
    20     2     1    2
    21     5     6    2
    22     1     6    1
    23     1     7    1
    24     7     8    1
    25     8     9    1
    26     8    10    1
    27    11    10    2
    28    10    12    2
    29    10    13    1
    30    20    13    2
    31    20    18    1
    32    19    18    1
    33    13    14    1
    34    18    17    2
    35    14    16    1
    36    14    15    2
    37    17    15    1
