@<TRIPOS>MOLECULE
56118_out_ligand_01.pdbqt
 31 34 0 0 0
SMALL
GASTEIGER

@<TRIPOS>ATOM
      1  C         21.0780  -22.8490   -8.4590 C.2     1  UNL1        0.0340
      2  C         20.7480  -24.1530   -8.8510 C.2     1  UNL1        0.0170
      3  C         19.6590  -24.8000   -8.2670 C.2     1  UNL1        0.0030
      4  C         18.9010  -24.1480   -7.2930 C.2     1  UNL1        0.0250
      5  C         19.2460  -22.8470   -6.9030 C.2     1  UNL1        0.0800
      6  C         20.3490  -22.1990   -7.4610 C.2     1  UNL1        0.0420
      7  C         22.2360  -22.1560   -9.0700 C.2     1  UNL1        0.2580
      8  N         22.2670  -22.0330  -10.4710 N.am    1  UNL1       -0.3130
      9  C         21.0370  -22.1740  -11.2610 C.3     1  UNL1        0.1330
     10  C         23.4820  -21.7520  -11.2000 C.2     1  UNL1        0.0430
     11  C         20.9670  -21.1940  -12.4170 C.3     1  UNL1        0.0250
     12  C         22.1370  -21.4420  -13.3470 C.3     1  UNL1        0.0420
     13  C         23.4340  -21.4750  -12.5830 C.2     1  UNL1       -0.0310
     14  C         24.6210  -21.2470  -13.3080 C.2     1  UNL1        0.0160
     15  C         25.8680  -21.2800  -12.6810 C.2     1  UNL1       -0.0610
     16  C         27.1210  -20.9930  -13.4530 C.3     1  UNL1        0.0480
     17  C         25.9170  -21.5340  -11.3130 C.2     1  UNL1        0.0090
     18  C         24.7430  -21.7760  -10.5890 C.2     1  UNL1        0.0310
     19  O         23.0690  -21.7300   -8.2730 O.2     1  UNL1       -0.2670
     20  S         18.2740  -22.0020   -5.6760 S.O2    1  UNL1        0.2630
     21  O         17.9820  -22.9370   -4.6110 O.2     1  UNL1       -0.2000
     22  O         18.9170  -20.7340   -5.4110 O.2     1  UNL1       -0.2000
     23  N         16.8420  -21.6500   -6.5080 N.pl3   1  UNL1       -0.2780
     24  H         16.7870  -20.6550   -6.7300 H       1  UNL1        0.1790
     25  C         16.4280  -22.5430   -7.5460 C.2     1  UNL1        0.0810
     26  C         16.6110  -22.2140   -8.8880 C.2     1  UNL1        0.0330
     27  C         16.1580  -23.0850   -9.8840 C.2     1  UNL1        0.0020
     28  C         15.5220  -24.2800   -9.5400 C.2     1  UNL1        0.0030
     29  C         15.3370  -24.6100   -8.1970 C.2     1  UNL1        0.0440
     30  C         15.7880  -23.7390   -7.2120 C.2     1  UNL1        0.1430
     31  F         15.5870  -24.0500   -5.9210 F       1  UNL1       -0.2040
@<TRIPOS>BOND
     1    16    15    1
     2    12    13    1
     3    12    11    1
     4    14    15    2
     5    14    13    1
     6    15    17    1
     7    13    10    2
     8    11     9    1
     9    17    18    2
    10     9     8    1
    11    10    18    1
    12    10     8    1
    13     8     7   am
    14    27    28    2
    15    27    26    1
    16    28    29    1
    17     7     1    1
    18     7    19    2
    19    26    25    2
    20     2     1    2
    21     2     3    1
    22     1     6    1
    23     3     4    2
    24    29    30    2
    25    25    30    1
    26    25    23    1
    27     6     5    2
    28     4     5    1
    29    30    31    1
    30     5    20    1
    31    24    23    1
    32    23    20    1
    33    20    22    2
    34    20    21    2
