@<TRIPOS>MOLECULE
56112_out_ligand_01.pdbqt
 29 31 0 0 0
SMALL
GASTEIGER

@<TRIPOS>ATOM
      1  C         20.9070  -23.1040   -9.0800 C.2     1  UNL1        0.2720
      2  O         21.5450  -24.1480   -9.1630 O.2     1  UNL1       -0.2660
      3  N         21.0780  -21.9970   -9.8890 N.am    1  UNL1       -0.3220
      4  H         20.4960  -21.1990   -9.6810 H       1  UNL1        0.1690
      5  C         19.8790  -22.9540   -8.0630 C.2     1  UNL1        0.1020
      6  C         19.8050  -22.2290   -6.8880 C.2     1  UNL1        0.0490
      7  C         18.5340  -22.4650   -6.2800 C.2     1  UNL1       -0.0010
      8  C         17.9210  -22.0010   -5.0950 C.2     1  UNL1       -0.0490
      9  C         17.8430  -23.3440   -7.1120 C.2     1  UNL1        0.0500
     10  C         16.6220  -22.4600   -4.8100 C.2     1  UNL1        0.0150
     11  C         18.5720  -21.0530   -4.1260 C.3     1  UNL1        0.0490
     12  C         15.9350  -23.3450   -5.6540 C.2     1  UNL1       -0.0530
     13  C         14.5450  -23.7810   -5.2690 C.3     1  UNL1        0.0490
     14  C         16.5400  -23.8140   -6.8440 C.2     1  UNL1       -0.0290
     15  C         15.8090  -24.7630   -7.7560 C.3     1  UNL1        0.0510
     16  N         18.6770  -23.6150   -8.1740 N.pl3   1  UNL1       -0.3510
     17  H         18.4530  -24.2230   -8.9510 H       1  UNL1        0.1660
     18  C         21.9770  -21.8390  -10.9640 C.2     1  UNL1        0.0350
     19  C         21.4210  -21.5620  -12.2220 C.2     1  UNL1        0.0310
     20  C         22.2360  -21.3890  -13.3430 C.2     1  UNL1        0.0270
     21  C         23.6210  -21.4880  -13.2050 C.2     1  UNL1        0.0740
     22  C         24.1900  -21.7790  -11.9660 C.2     1  UNL1        0.0270
     23  C         23.3660  -21.9490  -10.8480 C.2     1  UNL1        0.0310
     24  S         24.6590  -21.2770  -14.6270 S.O2    1  UNL1        0.2390
     25  O         23.9230  -21.6890  -15.7980 O.2     1  UNL1       -0.2060
     26  O         25.9750  -21.7880  -14.3150 O.2     1  UNL1       -0.2060
     27  N         24.8200  -19.6010  -14.6780 N.3     1  UNL1       -0.2250
     28  H         25.4010  -19.2280  -13.9280 H       1  UNL1        0.1360
     29  H         25.1700  -19.3330  -15.5990 H       1  UNL1        0.1360
@<TRIPOS>BOND
     1    25    24    2
     2    29    27    1
     3    27    24    1
     4    27    28    1
     5    24    26    2
     6    24    21    1
     7    20    21    2
     8    20    19    1
     9    21    22    1
    10    19    18    2
    11    22    23    2
    12    18    23    1
    13    18     3    1
    14     3     4    1
    15     3     1   am
    16     2     1    2
    17     1     5    1
    18    17    16    1
    19    16     5    1
    20    16     9    1
    21     5     6    2
    22    15    14    1
    23     9    14    1
    24     9     7    2
    25     6     7    1
    26    14    12    2
    27     7     8    1
    28    12    13    1
    29    12    10    1
    30     8    10    2
    31     8    11    1
