@<TRIPOS>MOLECULE
56120_out_ligand_01.pdbqt
 30 32 0 0 0
SMALL
GASTEIGER

@<TRIPOS>ATOM
      1  N         22.5580  -23.0230  -10.1550 N.am    1  UNL1       -0.3230
      2  C         22.3000  -22.4720   -8.9160 C.2     1  UNL1        0.2610
      3  O         23.0140  -21.6610   -8.3330 O.2     1  UNL1       -0.2670
      4  H         21.8690  -23.6900  -10.5070 H       1  UNL1        0.1690
      5  C         23.6580  -22.7790  -11.0030 C.2     1  UNL1        0.0360
      6  C         24.9530  -23.2280  -10.7540 C.2     1  UNL1        0.0300
      7  C         25.9910  -22.9380  -11.6490 C.2     1  UNL1        0.0100
      8  C         25.7620  -22.2000  -12.8200 C.2     1  UNL1       -0.0390
      9  C         26.9290  -21.9080  -13.7190 C.3     1  UNL1        0.0500
     10  C         24.4540  -21.7460  -13.0650 C.2     1  UNL1        0.0820
     11  C         23.4160  -22.0340  -12.1620 C.2     1  UNL1        0.0540
     12  S         24.0460  -20.7690  -14.4920 S.O2    1  UNL1        0.2390
     13  O         23.9980  -21.6110  -15.6640 O.2     1  UNL1       -0.2060
     14  O         24.8060  -19.5400  -14.4680 O.2     1  UNL1       -0.2060
     15  N         22.4640  -20.3080  -14.1710 N.3     1  UNL1       -0.2250
     16  H         22.0960  -19.7760  -14.9610 H       1  UNL1        0.1360
     17  H         21.9050  -21.1270  -13.9330 H       1  UNL1        0.1360
     18  C         21.0270  -22.9440   -8.2780 C.2     1  UNL1        0.1010
     19  C         20.4340  -22.1530   -7.3630 C.2     1  UNL1        0.0400
     20  C         19.1990  -22.5310   -6.6990 C.2     1  UNL1        0.0330
     21  C         18.6140  -23.7070   -6.9970 C.2     1  UNL1        0.0260
     22  C         18.5450  -21.6130   -5.7130 C.2     1  UNL1        0.1610
     23  N         19.2040  -24.5320   -7.9300 N.am    1  UNL1       -0.3260
     24  C         17.3470  -24.2070   -6.3590 C.3     1  UNL1        0.0580
     25  C         20.3710  -24.2460   -8.5990 C.2     1  UNL1        0.2610
     26  H         18.7790  -25.4230   -8.1650 H       1  UNL1        0.1690
     27  O         20.8440  -25.0280   -9.4200 O.2     1  UNL1       -0.2670
     28  C         17.0590  -23.5090   -5.0340 C.3     1  UNL1        0.0140
     29  C         17.1860  -22.0000   -5.1690 C.3     1  UNL1        0.0840
     30  O         19.0710  -20.5460   -5.4020 O.2     1  UNL1       -0.2920
@<TRIPOS>BOND
     1    13    12    2
     2    16    15    1
     3    12    14    2
     4    12    15    1
     5    12    10    1
     6    15    17    1
     7     9     8    1
     8    10     8    2
     9    10    11    1
    10     8     7    1
    11    11     5    2
    12     7     6    2
    13     5     6    1
    14     5     1    1
    15     4     1    1
    16     1     2   am
    17    27    25    2
    18     2     3    2
    19     2    18    1
    20    25    18    1
    21    25    23   am
    22    18    19    2
    23    26    23    1
    24    23    21    1
    25    19    20    1
    26    21    20    2
    27    21    24    1
    28    20    22    1
    29    24    28    1
    30    22    30    2
    31    22    29    1
    32    29    28    1
