@<TRIPOS>MOLECULE
56156_out_ligand_01.pdbqt
 34 38 0 0 0
SMALL
GASTEIGER

@<TRIPOS>ATOM
      1  C         21.3110  -21.6930  -10.5140 C.2     1  UNL1        0.0760
      2  C         20.4730  -21.0410  -11.4450 C.2     1  UNL1        0.1590
      3  N         19.1790  -21.2690  -11.2480 N.2     1  UNL1       -0.1640
      4  N         19.1380  -22.0690  -10.1380 N.pl3   1  UNL1       -0.0630
      5  C         20.4250  -22.4280   -9.7450 C.2     1  UNL1        0.0760
      6  C         22.7630  -21.6220  -10.4300 C.2     1  UNL1        0.2550
      7  O         23.3630  -21.0580   -9.5240 O.2     1  UNL1       -0.2680
      8  N         23.4150  -22.2350  -11.4820 N.am    1  UNL1       -0.3570
      9  H         22.8800  -22.5330  -12.2850 H       1  UNL1        0.1620
     10  C         24.8610  -22.2550  -11.5770 C.3     1  UNL1        0.1240
     11  C         25.3650  -23.3970  -12.4600 C.3     1  UNL1        0.0500
     12  C         25.8160  -22.9200  -13.8470 C.3     1  UNL1        0.2740
     13  N         24.7410  -22.8750  -14.8470 N.3     1  UNL1        0.0920
     14  C         25.0400  -23.7100  -16.0330 C.3     1  UNL1        0.2980
     15  C         24.1930  -23.2950  -17.2460 C.3     1  UNL1        0.1980
     16  O         24.4570  -21.9550  -17.6860 O.3     1  UNL1       -0.3880
     17  C         24.9420  -21.1050  -16.6390 C.3     1  UNL1        0.1980
     18  C         24.4110  -21.4910  -15.2510 C.3     1  UNL1        0.2980
     19  C         20.8130  -23.4250   -8.6050 C.3     1  UNL1        0.0390
     20  C         21.9460  -24.3980   -8.8250 C.3     1  UNL1        0.0110
     21  C         20.5400  -24.9010   -8.7840 C.3     1  UNL1        0.0110
     22  C         17.8780  -22.4080   -9.5210 C.cat   1  UNL1        0.7500
     23  N         16.8040  -22.5800  -10.3260 N.2     1  UNL1       -0.0730
     24  C         15.6400  -22.8970   -9.7360 C.2     1  UNL1        0.1390
     25  C         15.4950  -23.0390   -8.3780 C.2     1  UNL1        0.0530
     26  C         16.6330  -22.8340   -7.6260 C.2     1  UNL1        0.0900
     27  N         17.8200  -22.5040   -8.1750 N.2     1  UNL1       -0.0600
     28  C         16.6220  -22.9290   -6.1690 C.2     1  UNL1        0.0320
     29  C         17.6760  -23.5540   -5.4780 C.2     1  UNL1        0.0170
     30  C         17.6520  -23.6580   -4.0860 C.2     1  UNL1        0.0010
     31  C         16.5760  -23.1360   -3.3640 C.2     1  UNL1        0.0030
     32  C         15.5250  -22.5140   -4.0340 C.2     1  UNL1        0.0430
     33  C         15.5550  -22.4140   -5.4220 C.2     1  UNL1        0.1290
     34  F         14.5360  -21.7940   -6.0390 F       1  UNL1       -0.2050
@<TRIPOS>BOND
     1    16    15    1
     2    16    17    1
     3    15    14    1
     4    17    18    1
     5    14    13    1
     6    18    13    1
     7    13    12    1
     8    12    11    1
     9    11    10    1
    10     9     8    1
    11    10     8    1
    12     8     6   am
    13     2     3    2
    14     2     1    1
    15     3     4    1
    16     1     6    1
    17     1     5    2
    18     6     7    2
    19    23    24    1
    20    23    22    2
    21     4     5    1
    22     4    22    1
    23     5    19    1
    24    24    25    2
    25    22    27    1
    26    20    21    1
    27    20    19    1
    28    21    19    1
    29    25    26    1
    30    27    26    2
    31    26    28    1
    32    28    29    2
    33    28    33    1
    34    34    33    1
    35    29    30    1
    36    33    32    2
    37    30    31    2
    38    32    31    1
