@<TRIPOS>MOLECULE
56151_out_ligand_01.pdbqt
 37 41 0 0 0
SMALL
GASTEIGER

@<TRIPOS>ATOM
      1  C         23.5110  -22.3570  -11.9610 C.2     1  UNL1       -0.0230
      2  C         23.6300  -23.1360  -10.7850 C.2     1  UNL1        0.0130
      3  C         22.5360  -23.4210   -9.9580 C.2     1  UNL1        0.0390
      4  C         21.3150  -22.8780  -10.3460 C.2     1  UNL1        0.0860
      5  O         20.1290  -23.0590   -9.7080 O.2     1  UNL1       -0.3040
      6  C         19.1760  -22.3330  -10.3640 C.2     1  UNL1        0.1440
      7  C         19.7670  -21.7210  -11.4620 C.2     1  UNL1        0.0570
      8  C         21.1400  -22.0770  -11.4610 C.2     1  UNL1        0.0010
      9  C         22.2500  -21.8120  -12.2850 C.2     1  UNL1        0.0240
     10  C         17.7740  -22.2850   -9.9580 C.2     1  UNL1        0.2770
     11  O         16.9930  -21.5990  -10.6290 O.2     1  UNL1       -0.2650
     12  N         17.2670  -23.0250   -8.8740 N.am    1  UNL1       -0.3460
     13  C         15.8260  -22.9720   -8.6580 C.3     1  UNL1        0.1530
     14  C         18.0500  -23.6570   -7.8020 C.3     1  UNL1        0.1660
     15  C         18.2450  -22.7710   -6.5840 C.2     1  UNL1       -0.0110
     16  C         19.2430  -21.7750   -6.6160 C.2     1  UNL1        0.0110
     17  C         19.4380  -20.9300   -5.5270 C.2     1  UNL1        0.0020
     18  C         18.6450  -21.0800   -4.3930 C.2     1  UNL1        0.0140
     19  C         17.6540  -22.0760   -4.3440 C.2     1  UNL1       -0.0070
     20  C         16.8530  -22.2370   -3.2030 C.2     1  UNL1        0.0150
     21  C         17.4440  -22.9400   -5.4470 C.2     1  UNL1        0.0740
     22  C         15.8840  -23.2340   -3.1710 C.2     1  UNL1        0.0200
     23  C         15.7430  -24.0310   -4.2910 C.2     1  UNL1        0.1170
     24  N         16.4930  -23.8960   -5.4090 N.2     1  UNL1       -0.2600
     25  C         24.7510  -22.1410  -12.8410 C.3     1  UNL1        0.0880
     26  C         24.4970  -21.0110  -13.8540 C.3     1  UNL1        0.0730
     27  C         25.6890  -20.8050  -14.7990 C.3     1  UNL1        0.2760
     28  N         26.0460  -22.0570  -15.4660 N.3     1  UNL1        0.0890
     29  C         26.4300  -23.0940  -14.5030 C.3     1  UNL1        0.2760
     30  C         25.2470  -23.4040  -13.5810 C.3     1  UNL1        0.0730
     31  C         26.9810  -21.8990  -16.5830 C.3     1  UNL1        0.2760
     32  C         26.4800  -21.4180  -17.9680 C.3     1  UNL1        0.0090
     33  C         24.9680  -21.5830  -18.1460 C.3     1  UNL1        0.0110
     34  C         26.9010  -19.9380  -18.1530 C.3     1  UNL1        0.0010
     35  C         25.7380  -18.9600  -18.0580 C.3     1  UNL1        0.0050
     36  O         25.8250  -21.7440  -11.9620 O.3     1  UNL1       -0.3850
     37  H         26.3200  -22.5520  -11.7460 H       1  UNL1        0.2110
@<TRIPOS>BOND
     1    34    35    1
     2    34    32    1
     3    33    32    1
     4    32    31    1
     5    31    28    1
     6    28    27    1
     7    28    29    1
     8    27    26    1
     9    29    30    1
    10    26    25    1
    11    30    25    1
    12    25    36    1
    13    25     1    1
    14     9     1    2
    15     9     8    1
    16    36    37    1
    17     1     2    1
    18     7     8    1
    19     7     6    2
    20     8     4    2
    21     2     3    2
    22    11    10    2
    23     6    10    1
    24     6     5    1
    25     4     3    1
    26     4     5    1
    27    10    12   am
    28    12    13    1
    29    12    14    1
    30    14    15    1
    31    16    15    2
    32    16    17    1
    33    15    21    1
    34    17    18    2
    35    21    24    1
    36    21    19    2
    37    24    23    2
    38    18    19    1
    39    19    20    1
    40    23    22    1
    41    20    22    2
