@<TRIPOS>MOLECULE
56177_out_ligand_01.pdbqt
 32 36 0 0 0
SMALL
GASTEIGER

@<TRIPOS>ATOM
      1  C         22.1520  -22.0480  -11.6740 C.2     0  UNK0        0.0760
      2  C         21.2090  -21.3500  -12.4610 C.2     0  UNK0        0.1590
      3  N         20.0080  -21.2500  -11.8950 N.2     0  UNK0       -0.1640
      4  N         20.1110  -22.0000  -10.7540 N.pl3   0  UNK0       -0.0630
      5  C         21.4330  -22.3540  -10.5270 C.2     0  UNK0        0.0760
      6  C         18.9410  -22.3510   -9.9860 C.cat   0  UNK0        0.7500
      7  N         17.9550  -23.0060  -10.6180 N.2     0  UNK0       -0.0730
      8  C         16.9140  -23.3800   -9.8630 C.2     0  UNK0        0.1460
      9  C         16.7990  -23.1760   -8.4920 C.2     0  UNK0       -0.0100
     10  C         17.8650  -22.5050   -7.9040 C.2     0  UNK0        0.0940
     11  C         15.5500  -23.7260   -7.8650 C.3     0  UNK0        0.0430
     12  N         18.9150  -22.0720   -8.6640 N.2     0  UNK0       -0.0600
     13  C         18.0460  -22.1980   -6.4500 C.2     0  UNK0        0.0000
     14  C         18.8440  -21.0880   -6.0830 C.2     0  UNK0        0.0140
     15  C         17.5160  -22.9630   -5.3850 C.2     0  UNK0       -0.0460
     16  C         19.1230  -20.7550   -4.7550 C.2     0  UNK0        0.0010
     17  C         18.6070  -21.5300   -3.7310 C.2     0  UNK0        0.0010
     18  C         17.8090  -22.6250   -4.0430 C.2     0  UNK0        0.0080
     19  C         16.5900  -24.1290   -5.6110 C.3     0  UNK0        0.0400
     20  C         15.3600  -23.6440   -6.3610 C.3     0  UNK0        0.0090
     21  C         22.0070  -22.9650   -9.2120 C.3     0  UNK0        0.0390
     22  C         23.3920  -22.5880   -8.7480 C.3     0  UNK0        0.0110
     23  C         22.2030  -22.0320   -8.0350 C.3     0  UNK0        0.0110
     24  C         23.5420  -22.3680  -11.9660 C.2     0  UNK0        0.2550
     25  N         24.4470  -21.3490  -11.7330 N.am    1  ALA1       -0.3500
     26  H         24.1250  -20.4440  -11.4190 H       1  ALA1        0.1630
     27  O         23.9020  -23.4560  -12.4100 O.2     0  UNK0       -0.2680
     28  CA        25.8650  -21.5090  -12.0300 C.3     1  ALA1        0.1040
     29  CB        26.5470  -22.3200  -10.9230 C.3     1  ALA1        0.0340
     30  C         26.5660  -20.1500  -12.2320 C.3     1  ALA1        0.1890
     31  O         26.3680  -19.2950  -11.1090 O.3     1  ALA1       -0.3990
     32  H         26.4620  -19.8490  -10.3140 H       1  ALA1        0.2090
@<TRIPOS>BOND
     1     2     3    2
     2     2     1    1
     3    27    24    2
     4    30    28    1
     5    30    31    1
     6    28    25    1
     7    28    29    1
     8    24    25   am
     9    24     1    1
    10     3     4    1
    11    25    26    1
    12     1     5    2
    13    31    32    1
    14     4     5    1
    15     4     6    1
    16     7     6    2
    17     7     8    1
    18     5    21    1
    19     6    12    1
    20     8     9    2
    21    21    22    1
    22    21    23    1
    23    22    23    1
    24    12    10    2
    25     9    10    1
    26     9    11    1
    27    10    13    1
    28    11    20    1
    29    13    14    2
    30    13    15    1
    31    20    19    1
    32    14    16    1
    33    19    15    1
    34    15    18    2
    35    16    17    2
    36    18    17    1
