@<TRIPOS>MOLECULE
56219_out_ligand_01.pdbqt
 33 37 0 0 0
SMALL
GASTEIGER

@<TRIPOS>ATOM
      1  N         20.6630  -21.8250  -11.1840 N.pl3   1  UNL1       -0.0630
      2  N         20.0620  -21.0240  -12.1240 N.2     1  UNL1       -0.1640
      3  C         18.7740  -21.0410  -11.8120 C.2     1  UNL1        0.1590
      4  C         18.4660  -21.9040  -10.7440 C.2     1  UNL1        0.0760
      5  C         19.6930  -22.4910  -10.4200 C.2     1  UNL1        0.0760
      6  C         22.1090  -21.8150  -11.1140 C.cat   1  UNL1        0.7500
      7  N         22.6770  -21.3660   -9.9660 N.2     1  UNL1       -0.0730
      8  C         24.0170  -21.3860   -9.8790 C.2     1  UNL1        0.1390
      9  C         24.8280  -21.8350  -10.8880 C.2     1  UNL1        0.0530
     10  C         24.1730  -22.2780  -12.0130 C.2     1  UNL1        0.0880
     11  N         22.8310  -22.2950  -12.1390 N.2     1  UNL1       -0.0600
     12  C         24.9100  -22.7980  -13.1570 C.2     1  UNL1        0.0070
     13  C         25.6760  -24.0080  -13.1700 C.2     1  UNL1        0.0290
     14  C         26.2590  -24.2580  -14.3930 C.2     1  UNL1       -0.0200
     15  C         27.1210  -25.4050  -14.7910 C.3     1  UNL1        0.0560
     16  S         25.8650  -23.0480  -15.5320 S.3     1  UNL1       -0.0990
     17  C         24.8960  -22.1910  -14.4040 C.2     1  UNL1       -0.0080
     18  C         24.1770  -20.9600  -14.8560 C.3     1  UNL1        0.0570
     19  C         19.7860  -23.6940   -9.4080 C.3     1  UNL1        0.0390
     20  C         21.0510  -24.3920   -9.0180 C.3     1  UNL1        0.0110
     21  C         20.3380  -23.5030   -8.0290 C.3     1  UNL1        0.0110
     22  C         17.1430  -22.1640  -10.1850 C.2     1  UNL1        0.2550
     23  O         16.1940  -21.3930  -10.2930 O.2     1  UNL1       -0.2680
     24  N         17.0360  -23.3520   -9.4940 N.am    1  UNL1       -0.3560
     25  H         17.8700  -23.8850   -9.2830 H       1  UNL1        0.1620
     26  C         15.9250  -23.6190   -8.5980 C.3     1  UNL1        0.1290
     27  C         16.3520  -24.4440   -7.3800 C.3     1  UNL1        0.0790
     28  C         16.0600  -23.8000   -6.0390 C.2     1  UNL1        0.0350
     29  C         15.1010  -22.7900   -5.9700 C.2     1  UNL1        0.0270
     30  C         14.8440  -22.1850   -4.7420 C.2     1  UNL1        0.0030
     31  C         15.5440  -22.6010   -3.6160 C.2     1  UNL1        0.0190
     32  C         16.4760  -23.6120   -3.7670 C.2     1  UNL1        0.1170
     33  N         16.7520  -24.2150   -4.9450 N.2     1  UNL1       -0.2660
@<TRIPOS>BOND
     1    16    17    1
     2    16    14    1
     3    18    17    1
     4    15    14    1
     5    17    12    2
     6    14    13    2
     7    13    12    1
     8    12    10    1
     9    11    10    2
    10    11     6    1
    11     2     3    2
    12     2     1    1
    13    10     9    1
    14     3     4    1
    15     1     6    1
    16     1     5    1
    17     6     7    2
    18     9     8    2
    19     4     5    2
    20     4    22    1
    21     5    19    1
    22    23    22    2
    23    22    24   am
    24     7     8    1
    25    24    25    1
    26    24    26    1
    27    19    20    1
    28    19    21    1
    29    20    21    1
    30    26    27    1
    31    27    28    1
    32    28    29    2
    33    28    33    1
    34    29    30    1
    35    33    32    2
    36    30    31    2
    37    32    31    1
