@<TRIPOS>MOLECULE
56225_out_ligand_01.pdbqt
 34 39 0 0 0
SMALL
GASTEIGER

@<TRIPOS>ATOM
      1  C         18.3300  -22.0990  -10.2530 C.2     1  UNL1        0.0760
      2  C         18.4700  -20.9250  -11.0230 C.2     1  UNL1        0.1590
      3  N         19.7080  -20.7200  -11.4650 N.2     1  UNL1       -0.1640
      4  N         20.4420  -21.7310  -10.9050 N.pl3   1  UNL1       -0.0630
      5  C         19.6100  -22.6370  -10.2570 C.2     1  UNL1        0.0760
      6  C         21.8810  -21.7530  -11.0110 C.cat   1  UNL1        0.7500
      7  N         22.6040  -21.4420   -9.9120 N.2     1  UNL1       -0.0730
      8  C         23.9400  -21.4860  -10.0300 C.2     1  UNL1        0.1390
      9  C         24.5870  -21.8220  -11.1930 C.2     1  UNL1        0.0530
     10  C         23.7850  -22.1310  -12.2750 C.2     1  UNL1        0.0870
     11  N         22.4370  -22.1060  -12.1890 N.2     1  UNL1       -0.0600
     12  C         24.3290  -22.5150  -13.5940 C.2     1  UNL1       -0.0040
     13  C         25.1710  -23.6480  -13.7520 C.2     1  UNL1        0.0170
     14  C         25.6920  -24.0110  -15.0000 C.2     1  UNL1        0.0400
     15  C         25.3620  -23.2300  -16.0840 C.2     1  UNL1        0.1050
     16  C         24.5530  -22.1280  -15.9570 C.2     1  UNL1        0.1050
     17  O         25.7780  -23.4260  -17.3630 O.2     1  UNL1       -0.3230
     18  C         24.0270  -21.7490  -14.7390 C.2     1  UNL1        0.0530
     19  O         24.3520  -21.4930  -17.1430 O.2     1  UNL1       -0.3230
     20  C         25.1430  -22.3120  -18.0270 C.3     1  UNL1        0.3520
     21  C         20.0240  -23.9960   -9.6110 C.3     1  UNL1        0.0390
     22  C         19.6460  -24.2760   -8.1760 C.3     1  UNL1        0.0110
     23  C         21.0750  -24.0060   -8.5250 C.3     1  UNL1        0.0110
     24  C         17.1430  -22.6240   -9.5950 C.2     1  UNL1        0.2550
     25  O         16.3500  -23.3840  -10.1440 O.2     1  UNL1       -0.2680
     26  N         16.9680  -22.2070   -8.2940 N.am    1  UNL1       -0.3520
     27  H         17.5260  -21.4440   -7.9380 H       1  UNL1        0.1630
     28  C         15.7670  -22.5570   -7.5720 C.3     1  UNL1        0.1620
     29  C         15.9960  -22.5170   -6.0920 C.2     1  UNL1       -0.0230
     30  C         17.2780  -22.6360   -5.5430 C.2     1  UNL1        0.0120
     31  C         17.4400  -22.6190   -4.1610 C.2     1  UNL1        0.0200
     32  C         16.3100  -22.4860   -3.3690 C.2     1  UNL1        0.1160
     33  N         15.0580  -22.3790   -3.8610 N.2     1  UNL1       -0.2730
     34  C         14.9280  -22.3980   -5.2070 C.2     1  UNL1        0.1240
@<TRIPOS>BOND
     1    20    17    1
     2    20    19    1
     3    17    15    1
     4    19    16    1
     5    15    16    2
     6    15    14    1
     7    16    18    1
     8    14    13    2
     9    18    12    2
    10    13    12    1
    11    12    10    1
    12    10    11    2
    13    10     9    1
    14    11     6    1
    15     3     2    2
    16     3     4    1
    17     9     8    2
    18     2     1    1
    19     6     4    1
    20     6     7    2
    21     4     5    1
    22     5     1    2
    23     5    21    1
    24     1    24    1
    25    25    24    2
    26     8     7    1
    27    21    23    1
    28    21    22    1
    29    24    26   am
    30    23    22    1
    31    26    27    1
    32    26    28    1
    33    28    29    1
    34    29    30    2
    35    29    34    1
    36    30    31    1
    37    34    33    2
    38    31    32    2
    39    33    32    1
