@<TRIPOS>MOLECULE
56231_out_ligand_01.pdbqt
 36 41 0 0 0
SMALL
GASTEIGER

@<TRIPOS>ATOM
      1  C         18.4360  -22.1650  -10.4650 C.2     1  UNL1        0.0760
      2  C         18.5660  -21.5470  -11.7270 C.2     1  UNL1        0.1590
      3  N         19.8260  -21.4100  -12.1300 N.2     1  UNL1       -0.1640
      4  N         20.5700  -21.9060  -11.0950 N.pl3   1  UNL1       -0.0630
      5  C         19.7470  -22.4840  -10.1330 C.2     1  UNL1        0.0760
      6  C         22.0060  -21.7610  -11.0810 C.cat   1  UNL1        0.7500
      7  N         22.6350  -21.5910   -9.9110 N.2     1  UNL1       -0.0730
      8  C         23.9670  -21.4320   -9.9810 C.2     1  UNL1        0.1460
      9  C         24.7260  -21.4270  -11.1480 C.2     1  UNL1       -0.0100
     10  C         24.0020  -21.6140  -12.3170 C.2     1  UNL1        0.0940
     11  C         26.1970  -21.2010  -10.9630 C.3     1  UNL1        0.0430
     12  N         22.6520  -21.7700  -12.2660 N.2     1  UNL1       -0.0600
     13  C         24.5210  -21.6850  -13.7160 C.2     1  UNL1        0.0000
     14  C         23.7700  -22.4080  -14.6790 C.2     1  UNL1        0.0140
     15  C         25.7000  -21.0640  -14.1810 C.2     1  UNL1       -0.0460
     16  C         24.1530  -22.5130  -16.0190 C.2     1  UNL1        0.0010
     17  C         25.3090  -21.8890  -16.4510 C.2     1  UNL1        0.0010
     18  C         26.0770  -21.1700  -15.5410 C.2     1  UNL1        0.0080
     19  C         26.6250  -20.3030  -13.2710 C.3     1  UNL1        0.0400
     20  C         27.1210  -21.2250  -12.1700 C.3     1  UNL1        0.0090
     21  C         20.2080  -23.2770   -8.8690 C.3     1  UNL1        0.0390
     22  C         21.4080  -24.1900   -8.9660 C.3     1  UNL1        0.0110
     23  C         20.0440  -24.7760   -8.8280 C.3     1  UNL1        0.0110
     24  C         17.2160  -22.4240   -9.7100 C.2     1  UNL1        0.2550
     25  O         16.3860  -21.5620   -9.4370 O.2     1  UNL1       -0.2680
     26  N         17.0370  -23.7440   -9.3490 N.am    1  UNL1       -0.3570
     27  H         17.6830  -24.4490   -9.6780 H       1  UNL1        0.1620
     28  C         15.8570  -24.1960   -8.6380 C.3     1  UNL1        0.1230
     29  C         15.9910  -24.1470   -7.1140 C.3     1  UNL1        0.0240
     30  C         17.4260  -24.2760   -6.5880 C.3     1  UNL1        0.0410
     31  C         17.8420  -23.1690   -5.6590 C.2     1  UNL1       -0.0410
     32  C         18.5610  -22.0610   -6.1160 C.2     1  UNL1        0.0100
     33  C         18.9290  -21.0600   -5.2220 C.2     1  UNL1        0.0200
     34  C         18.5660  -21.2000   -3.8910 C.2     1  UNL1        0.1160
     35  N         17.8720  -22.2530   -3.4110 N.2     1  UNL1       -0.2730
     36  C         17.5170  -23.2040   -4.3060 C.2     1  UNL1        0.1230
@<TRIPOS>BOND
     1    17    16    2
     2    17    18    1
     3    16    14    1
     4    18    15    2
     5    14    13    2
     6    15    13    1
     7    15    19    1
     8    13    10    1
     9    19    20    1
    10    10    12    2
    11    10     9    1
    12    12     6    1
    13    20    11    1
    14     3     2    2
    15     3     4    1
    16     2     1    1
    17     9    11    1
    18     9     8    2
    19     4     6    1
    20     4     5    1
    21     6     7    2
    22     1     5    2
    23     1    24    1
    24     5    21    1
    25     8     7    1
    26    24    25    2
    27    24    26   am
    28    27    26    1
    29    26    28    1
    30    22    21    1
    31    22    23    1
    32    21    23    1
    33    28    29    1
    34    29    30    1
    35    30    31    1
    36    32    31    2
    37    32    33    1
    38    31    36    1
    39    33    34    2
    40    36    35    2
    41    34    35    1
