@<TRIPOS>MOLECULE
56247_out_ligand_01.pdbqt
 32 36 0 0 0
SMALL
GASTEIGER

@<TRIPOS>ATOM
      1  C         17.2220  -22.0170  -10.3040 C.2     1  UNL1        0.1580
      2  C         18.5900  -21.9130  -10.4790 C.2     1  UNL1        0.1460
      3  N         18.7370  -20.8720  -11.3510 N.pl3   1  UNL1       -0.2800
      4  N         17.5500  -20.3760  -11.7220 N.2     1  UNL1        0.0050
      5  N         16.6140  -21.0430  -11.0610 N.2     1  UNL1       -0.1530
      6  C         16.4670  -22.9560   -9.4780 C.2     1  UNL1        0.2730
      7  O         16.1010  -24.0560   -9.8810 O.2     1  UNL1       -0.2660
      8  N         16.1960  -22.5190   -8.1950 N.am    1  UNL1       -0.3540
      9  H         16.5660  -21.6350   -7.8770 H       1  UNL1        0.1620
     10  C         15.4850  -23.3570   -7.2450 C.3     1  UNL1        0.1430
     11  C         16.4140  -23.9960   -6.2000 C.3     1  UNL1        0.1420
     12  N         17.5740  -23.1340   -5.9350 N.pl3   1  UNL1       -0.3790
     13  C         17.2900  -21.9040   -5.1890 C.3     1  UNL1        0.1230
     14  C         18.5600  -21.3210   -4.5950 C.3     1  UNL1        0.0240
     15  C         19.5240  -20.9900   -5.7200 C.3     1  UNL1        0.0420
     16  C         19.7070  -22.1730   -6.6370 C.2     1  UNL1       -0.0320
     17  C         20.8680  -22.2180   -7.4330 C.2     1  UNL1        0.0090
     18  C         18.7240  -23.1860   -6.7220 C.2     1  UNL1        0.0360
     19  C         21.0930  -23.2850   -8.2960 C.2     1  UNL1        0.0010
     20  C         20.1590  -24.3090   -8.3700 C.2     1  UNL1        0.0020
     21  C         18.9950  -24.2560   -7.5920 C.2     1  UNL1        0.0300
     22  C         19.9690  -20.3390  -11.8870 C.3     1  UNL1        0.1800
     23  C         21.1040  -21.3460  -12.0920 C.3     1  UNL1        0.1720
     24  C         21.9940  -21.5520  -10.8670 C.3     1  UNL1        0.2100
     25  O         22.8840  -22.6550  -11.0910 O.2     1  UNL1       -0.3460
     26  C         23.4890  -22.5620  -12.3200 C.2     1  UNL1        0.1020
     27  C         24.6110  -23.3610  -12.5300 C.2     1  UNL1        0.0390
     28  C         23.0210  -21.7290  -13.3420 C.2     1  UNL1        0.1020
     29  C         25.2830  -23.3060  -13.7520 C.2     1  UNL1        0.0030
     30  C         24.8320  -22.4540  -14.7620 C.2     1  UNL1        0.0030
     31  C         23.7010  -21.6620  -14.5560 C.2     1  UNL1        0.0390
     32  O         21.8980  -20.9490  -13.2220 O.2     1  UNL1       -0.3390
@<TRIPOS>BOND
     1    30    31    2
     2    30    29    1
     3    31    28    1
     4    29    27    2
     5    28    32    1
     6    28    26    2
     7    32    23    1
     8    27    26    1
     9    26    25    1
    10    23    22    1
    11    23    24    1
    12    22     3    1
    13     4     3    1
    14     4     5    2
    15     3     2    1
    16    25    24    1
    17     5     1    1
    18     2     1    2
    19     1     6    1
    20     7     6    2
    21     6     8   am
    22    20    19    2
    23    20    21    1
    24    19    17    1
    25     8     9    1
    26     8    10    1
    27    21    18    2
    28    17    16    2
    29    10    11    1
    30    18    16    1
    31    18    12    1
    32    16    15    1
    33    11    12    1
    34    12    13    1
    35    15    14    1
    36    13    14    1
