@<TRIPOS>MOLECULE
5624_out_ligand_01.pdbqt
 28 31 0 0 0
SMALL
GASTEIGER

@<TRIPOS>ATOM
      1  C         19.7270  -21.5210  -11.4150 C.ar    1  UNL1        0.1710
      2  N         18.9390  -20.6950  -12.0660 N.ar    1  UNL1       -0.1250
      3  N         17.6930  -20.8340  -11.4950 N.ar    1  UNL1       -0.1030
      4  C         17.8170  -21.6990  -10.5170 C.ar    1  UNL1        0.2680
      5  O         19.0840  -22.1770  -10.4050 O.2     1  UNL1       -0.2600
      6  N         16.9280  -22.1890   -9.6400 N.pl3   1  UNL1       -0.3480
      7  H         15.9470  -22.0000   -9.8210 H       1  UNL1        0.1630
      8  C         17.2050  -23.4490   -8.9520 C.3     1  UNL1        0.0890
      9  C         16.0260  -23.7900   -8.0060 C.3     1  UNL1        0.0300
     10  C         16.4450  -24.0940   -6.5740 C.3     1  UNL1        0.0410
     11  C         17.3810  -23.0260   -6.0700 C.2     1  UNL1       -0.0520
     12  C         17.2380  -22.4410   -4.8110 C.2     1  UNL1        0.0070
     13  C         18.4400  -22.6370   -6.9030 C.2     1  UNL1       -0.0500
     14  C         18.1400  -21.4650   -4.3910 C.2     1  UNL1        0.0010
     15  C         19.1930  -21.0800   -5.2190 C.2     1  UNL1        0.0010
     16  C         19.3490  -21.6690   -6.4730 C.2     1  UNL1        0.0070
     17  C         18.5690  -23.3210   -8.2380 C.3     1  UNL1        0.0640
     18  C         21.1590  -21.8380  -11.6290 C.3     1  UNL1        0.0930
     19  C         22.0840  -21.5210  -10.4390 C.3     1  UNL1       -0.0050
     20  C         21.9790  -22.4880   -9.2570 C.3     1  UNL1        0.0070
     21  C         23.0210  -23.5530   -9.5240 C.3     1  UNL1        0.0250
     22  C         24.1670  -22.8050  -10.1940 C.3     1  UNL1        0.0840
     23  C         23.5770  -21.5230  -10.7910 C.3     1  UNL1        0.0300
     24  N         24.8570  -23.6010  -11.1820 N.am    1  UNL1       -0.3570
     25  C         26.1980  -23.3820  -11.4140 C.2     1  UNL1        0.2130
     26  C         26.7730  -24.1970  -12.5370 C.3     1  UNL1        0.1170
     27  O         26.8740  -22.5830  -10.7770 O.2     1  UNL1       -0.2740
     28  H         24.3090  -23.9380  -11.9700 H       1  UNL1        0.1620
@<TRIPOS>BOND
     1    26    25    1
     2     2     3   ar
     3     2     1   ar
     4    28    24    1
     5    18     1    1
     6    18    19    1
     7     3     4   ar
     8     1     5   ar
     9    25    24   am
    10    25    27    2
    11    24    22    1
    12    23    19    1
    13    23    22    1
    14     4     5   ar
    15     4     6    1
    16    19    20    1
    17    22    21    1
    18     7     6    1
    19     6     8    1
    20    21    20    1
    21     8    17    1
    22     8     9    1
    23    17    13    1
    24     9    10    1
    25    13    16    1
    26    13    11    2
    27    10    11    1
    28    16    15    2
    29    11    12    1
    30    15    14    1
    31    12    14    2
