@<TRIPOS>MOLECULE
5625_out_ligand_01.pdbqt
 26 29 0 0 0
SMALL
GASTEIGER

@<TRIPOS>ATOM
      1  C         19.2480  -23.0630   -7.7930 C.3     1  UNL1        0.1600
      2  N         17.9590  -22.9220   -8.4190 N.ar    1  UNL1       -0.3090
      3  C         17.7310  -22.6870   -9.7560 C.ar    1  UNL1        0.2060
      4  N         16.4430  -22.4930   -9.9310 N.ar    1  UNL1       -0.1170
      5  N         15.8110  -22.6660   -8.7280 N.ar    1  UNL1       -0.1300
      6  C         16.7210  -22.9390   -7.8130 C.ar    1  UNL1        0.1650
      7  N         18.7370  -22.6600  -10.6740 N.pl3   1  UNL1       -0.2510
      8  C         18.7450  -21.5100  -11.5930 C.3     1  UNL1        0.0990
      9  C         20.2070  -21.3440  -11.9860 C.3     1  UNL1        0.0270
     10  C         20.9270  -21.6660  -10.6820 C.3     1  UNL1        0.0580
     11  C         20.1120  -22.8540  -10.1540 C.3     1  UNL1        0.1100
     12  C         22.3720  -21.9720  -10.8360 C.2     1  UNL1        0.0580
     13  C         23.1010  -22.8720  -11.5890 C.2     1  UNL1        0.0350
     14  C         24.4640  -22.6430  -11.2800 C.2     1  UNL1        0.0270
     15  C         24.4830  -21.6180  -10.3660 C.2     1  UNL1        0.1420
     16  O         23.2210  -21.2030  -10.0930 O.2     1  UNL1       -0.3270
     17  C         16.4480  -23.2000   -6.3520 C.3     1  UNL1        0.1200
     18  C         15.0520  -22.6850   -5.9410 C.3     1  UNL1        0.0460
     19  C         14.9490  -22.2500   -4.4750 C.3     1  UNL1        0.0040
     20  C         15.8690  -23.0610   -3.5730 C.3     1  UNL1        0.0090
     21  C         17.3580  -22.8540   -3.9350 C.3     1  UNL1       -0.0450
     22  C         17.9200  -21.6460   -3.1540 C.3     1  UNL1        0.0150
     23  C         18.1580  -24.0960   -3.5000 C.3     1  UNL1        0.0150
     24  C         17.5430  -22.5800   -5.4570 C.3     1  UNL1        0.0550
     25  O         16.4840  -24.6220   -6.1930 O.3     1  UNL1       -0.3820
     26  H         17.3540  -24.9130   -6.5240 H       1  UNL1        0.2110
@<TRIPOS>BOND
     1     9     8    1
     2     9    10    1
     3     8     7    1
     4    13    14    1
     5    13    12    2
     6    14    15    2
     7    12    10    1
     8    12    16    1
     9    10    11    1
    10     7    11    1
    11     7     3    1
    12    15    16    1
    13     4     3   ar
    14     4     5   ar
    15     3     2   ar
    16     5     6   ar
    17     2     6   ar
    18     2     1    1
    19     6    17    1
    20    26    25    1
    21    17    25    1
    22    17    18    1
    23    17    24    1
    24    18    19    1
    25    24    21    1
    26    19    20    1
    27    21    20    1
    28    21    23    1
    29    21    22    1
