@<TRIPOS>MOLECULE
56269_out_ligand_01.pdbqt
 33 37 0 0 0
SMALL
GASTEIGER

@<TRIPOS>ATOM
      1  O         23.6770  -21.0900   -9.5400 O.2     1  UNL1       -0.2680
      2  C         23.4760  -22.2960   -9.5770 C.2     1  UNL1        0.2520
      3  N         24.3840  -23.1920  -10.0890 N.am    1  UNL1       -0.3530
      4  H         24.0940  -24.1290  -10.3250 H       1  UNL1        0.1630
      5  C         22.1930  -22.8590   -9.0600 C.2     1  UNL1        0.0340
      6  C         21.7840  -24.1750   -9.3510 C.2     1  UNL1        0.0200
      7  C         20.5920  -24.7050   -8.8330 C.2     1  UNL1        0.0410
      8  C         19.8690  -23.8600   -8.0000 C.ar    1  UNL1        0.1060
      9  O         18.7080  -24.1400   -7.3460 O.2     1  UNL1       -0.2890
     10  C         20.2440  -22.5690   -7.6690 C.ar    1  UNL1        0.0940
     11  C         18.4480  -22.9980   -6.6220 C.ar    1  UNL1        0.1810
     12  N         19.3340  -22.0310   -6.7940 N.ar    1  UNL1       -0.2210
     13  C         21.4230  -22.0420   -8.2090 C.2     1  UNL1        0.0510
     14  C         17.2680  -23.0200   -5.7610 C.2     1  UNL1        0.0200
     15  C         17.2870  -23.6300   -4.4930 C.2     1  UNL1        0.0160
     16  C         16.1470  -23.6320   -3.6800 C.2     1  UNL1        0.0040
     17  C         14.9790  -23.0200   -4.1240 C.2     1  UNL1        0.0420
     18  C         14.9550  -22.4160   -5.3770 C.2     1  UNL1        0.1170
     19  F         13.8290  -21.8240   -5.8020 F       1  UNL1       -0.2060
     20  C         16.0820  -22.4100   -6.1930 C.2     1  UNL1        0.0580
     21  C         25.6480  -22.7460  -10.6280 C.3     1  UNL1        0.1640
     22  C         25.8800  -23.4950  -11.8890 C.2     1  UNL1       -0.0040
     23  C         27.0180  -24.2650  -12.2290 C.2     1  UNL1        0.1490
     24  N         26.9140  -24.8400  -13.4290 N.2     1  UNL1       -0.1840
     25  N         25.7040  -24.4370  -13.8740 N.pl3   1  UNL1       -0.2760
     26  C         25.0560  -23.6160  -12.9910 C.2     1  UNL1        0.1220
     27  C         25.2480  -24.8350  -15.2050 C.3     1  UNL1        0.1890
     28  C         25.3550  -23.7100  -16.2070 C.2     1  UNL1       -0.0380
     29  C         24.3320  -23.4830  -17.1400 C.2     1  UNL1        0.0090
     30  C         24.4300  -22.4380  -18.0590 C.2     1  UNL1        0.0010
     31  C         25.5540  -21.6150  -18.0620 C.2     1  UNL1        0.0000
     32  C         26.5790  -21.8350  -17.1450 C.2     1  UNL1        0.0010
     33  C         26.4820  -22.8780  -16.2230 C.2     1  UNL1        0.0090
@<TRIPOS>BOND
     1    31    30    2
     2    31    32    1
     3    30    29    1
     4    32    33    2
     5    29    28    2
     6    33    28    1
     7    28    27    1
     8    27    25    1
     9    25    24    1
    10    25    26    1
    11    24    23    2
    12    26    22    2
    13    23    22    1
    14    22    21    1
    15    21     3    1
    16     4     3    1
    17     3     2   am
    18     2     1    2
    19     2     5    1
    20     6     5    2
    21     6     7    1
    22     5    13    1
    23     7     8    2
    24    13    10    2
    25     8    10   ar
    26     8     9   ar
    27    10    12   ar
    28     9    11   ar
    29    12    11   ar
    30    11    14    1
    31    20    14    2
    32    20    18    1
    33    19    18    1
    34    14    15    1
    35    18    17    2
    36    15    16    2
    37    17    16    1
