@<TRIPOS>MOLECULE
56266_out_ligand_01.pdbqt
 34 37 0 0 0
SMALL
GASTEIGER

@<TRIPOS>ATOM
      1  C         17.7110  -22.6280   -9.7930 C.2     1  UNL1        0.1180
      2  N         16.7440  -21.8400  -10.3070 N.2     1  UNL1       -0.2290
      3  C         17.0480  -20.9550  -11.2650 C.2     1  UNL1        0.2360
      4  N         18.2520  -20.7020  -11.7740 N.2     1  UNL1       -0.2340
      5  C         19.2030  -21.4890  -11.2470 C.ar    1  UNL1        0.1140
      6  S         20.8090  -21.3320  -11.7690 S.2     1  UNL1       -0.0630
      7  C         21.3470  -22.5660  -10.7160 C.ar    1  UNL1        0.0810
      8  C         20.2960  -23.1530  -10.0150 C.ar    1  UNL1       -0.0230
      9  C         20.4320  -24.3540   -9.1320 C.3     1  UNL1        0.0510
     10  C         19.0350  -22.4700  -10.2810 C.ar    1  UNL1        0.0470
     11  N         17.3910  -23.5570   -8.8010 N.pl3   1  UNL1       -0.2760
     12  H         18.1600  -23.6800   -8.1530 H       1  UNL1        0.1290
     13  C         16.0800  -23.4560   -8.1610 C.3     1  UNL1        0.0980
     14  C         15.9870  -24.3380   -6.9070 C.3     1  UNL1        0.0530
     15  C         16.3070  -23.6380   -5.6070 C.2     1  UNL1       -0.0540
     16  C         15.5470  -23.8930   -4.4600 C.2     1  UNL1        0.0070
     17  C         15.8280  -23.2320   -3.2660 C.2     1  UNL1        0.0030
     18  C         16.8720  -22.3090   -3.2120 C.2     1  UNL1        0.0370
     19  C         17.6400  -22.0360   -4.3460 C.2     1  UNL1        0.0680
     20  C         17.3560  -22.7030   -5.5410 C.2     1  UNL1        0.0440
     21  O         18.6250  -21.1060   -4.1590 O.2     1  UNL1       -0.3560
     22  C         19.2740  -20.6130   -5.3230 C.3     1  UNL1        0.2100
     23  C         22.7720  -22.8570  -10.6950 C.2     1  UNL1        0.2590
     24  O         23.3940  -23.1790   -9.6870 O.2     1  UNL1       -0.2670
     25  N         23.3850  -22.7790  -11.9330 N.am    1  UNL1       -0.3520
     26  H         22.8130  -22.5780  -12.7420 H       1  UNL1        0.1630
     27  C         24.7980  -23.0870  -12.1190 C.3     1  UNL1        0.0890
     28  C         25.0130  -23.9630  -13.3550 C.3     1  UNL1        0.0510
     29  C         26.3660  -23.6730  -13.9760 C.3     1  UNL1        0.1710
     30  O         26.4150  -22.3380  -14.4690 O.3     1  UNL1       -0.3810
     31  C         25.9810  -21.3120  -13.5630 C.3     1  UNL1        0.0550
     32  C         24.7540  -20.6450  -14.1970 C.3     1  UNL1        0.0450
     33  C         27.1170  -20.2820  -13.4980 C.3     1  UNL1        0.0450
     34  C         25.6740  -21.8260  -12.1430 C.3     1  UNL1        0.0620
@<TRIPOS>BOND
     1    30    29    1
     2    30    31    1
     3    32    31    1
     4    29    28    1
     5    31    33    1
     6    31    34    1
     7    28    27    1
     8    26    25    1
     9    34    27    1
    10    27    25    1
    11    25    23   am
    12     4     3    2
    13     4     5    1
    14     6     5   ar
    15     6     7   ar
    16     3     2    1
    17     5    10   ar
    18     7    23    1
    19     7     8   ar
    20    23    24    2
    21     2     1    2
    22    10     8   ar
    23    10     1    1
    24     8     9    1
    25     1    11    1
    26    11    13    1
    27    11    12    1
    28    13    14    1
    29    14    15    1
    30    15    20    2
    31    15    16    1
    32    20    19    1
    33    22    21    1
    34    16    17    2
    35    19    21    1
    36    19    18    2
    37    17    18    1
