@<TRIPOS>MOLECULE
562_out_ligand_01.pdbqt
 34 36 0 0 0
SMALL
GASTEIGER

@<TRIPOS>ATOM
      1  C         22.3570  -23.3310   -8.7050 C.2     1  UNL1        0.0320
      2  C         21.8120  -22.2220   -8.0410 C.2     1  UNL1        0.0180
      3  C         20.4820  -22.2490   -7.6090 C.2     1  UNL1        0.0260
      4  C         19.7060  -23.3890   -7.8440 C.2     1  UNL1        0.0740
      5  C         20.2330  -24.4900   -8.5260 C.2     1  UNL1        0.0260
      6  C         21.5610  -24.4570   -8.9570 C.2     1  UNL1        0.0180
      7  S         18.0120  -23.4400   -7.3080 S.O2    1  UNL1        0.2450
      8  O         17.7080  -22.1590   -6.7090 O.2     1  UNL1       -0.2060
      9  O         17.7960  -24.6930   -6.6140 O.2     1  UNL1       -0.2060
     10  N         17.2170  -23.5920   -8.8140 N.pl3   1  UNL1       -0.1810
     11  H         16.2140  -23.5390   -8.6180 H       1  UNL1        0.1460
     12  C         17.5970  -22.5930   -9.7670 C.2     1  UNL1        0.0230
     13  C         16.6270  -21.7180  -10.2540 C.2     1  UNL1        0.0240
     14  C         16.9690  -20.7680  -11.2150 C.2     1  UNL1        0.0030
     15  C         18.2750  -20.7080  -11.7030 C.2     1  UNL1        0.0160
     16  C         19.2520  -21.6060  -11.2430 C.2     1  UNL1        0.0490
     17  C         18.9000  -22.5500  -10.2650 C.2     1  UNL1        0.0400
     18  C         20.6620  -21.5340  -11.7710 C.3     1  UNL1        0.4170
     19  F         21.4550  -20.7280  -11.0120 F       1  UNL1       -0.1660
     20  F         20.7350  -21.0460  -13.0390 F       1  UNL1       -0.1660
     21  F         21.2850  -22.7460  -11.8020 F       1  UNL1       -0.1660
     22  C         23.7670  -23.3470   -9.1770 C.2     1  UNL1        0.2510
     23  O         24.5290  -24.2240   -8.7890 O.2     1  UNL1       -0.2680
     24  N         24.1350  -22.3160  -10.0170 N.am    1  UNL1       -0.3570
     25  H         23.4930  -21.5490  -10.1630 H       1  UNL1        0.1620
     26  C         25.5260  -22.1070  -10.3820 C.3     1  UNL1        0.1270
     27  C         25.6930  -21.1070  -11.5370 C.3     1  UNL1        0.0580
     28  C         25.2880  -21.6340  -12.8950 C.2     1  UNL1       -0.0570
     29  C         24.1410  -21.1410  -13.5360 C.2     1  UNL1        0.0100
     30  C         23.7750  -21.6200  -14.7940 C.2     1  UNL1        0.0430
     31  C         24.5510  -22.5930  -15.4120 C.2     1  UNL1        0.1160
     32  F         24.1970  -23.0420  -16.6230 F       1  UNL1       -0.2060
     33  C         25.6850  -23.1000  -14.7940 C.2     1  UNL1        0.0430
     34  C         26.0530  -22.6230  -13.5350 C.2     1  UNL1        0.0100
@<TRIPOS>BOND
     1    32    31    1
     2    31    33    1
     3    31    30    2
     4    33    34    2
     5    30    29    1
     6    29    28    2
     7    34    28    1
     8    20    18    1
     9    28    27    1
    10    21    18    1
    11    18    16    1
    12    18    19    1
    13    15    16    2
    14    15    14    1
    15    27    26    1
    16    16    17    1
    17    14    13    2
    18    26    24    1
    19    17    12    2
    20    13    12    1
    21    25    24    1
    22    24    22   am
    23    12    10    1
    24    22    23    2
    25    22     1    1
    26     6     1    2
    27     6     5    1
    28    10    11    1
    29    10     7    1
    30     1     2    1
    31     5     4    2
    32     2     3    2
    33     4     3    1
    34     4     7    1
    35     7     8    2
    36     7     9    2
