@<TRIPOS>MOLECULE
56312_out_ligand_01.pdbqt
 28 30 0 0 0
SMALL
GASTEIGER

@<TRIPOS>ATOM
      1  C         20.6840  -22.1320  -11.0130 C.2     1  UNL1        0.0420
      2  C         20.2430  -21.0350  -11.7640 C.2     1  UNL1        0.0300
      3  C         18.9090  -20.6310  -11.7360 C.2     1  UNL1        0.0030
      4  C         17.9950  -21.3070  -10.9380 C.2     1  UNL1        0.0180
      5  C         18.4100  -22.4040  -10.1800 C.2     1  UNL1        0.0400
      6  C         19.7520  -22.8510  -10.2220 C.2     1  UNL1       -0.0190
      7  C         20.1600  -24.0650   -9.4200 C.3     1  UNL1        0.0520
      8  N         22.0380  -22.5320  -11.0120 N.am    1  UNL1       -0.3200
      9  C         23.1060  -21.9990  -10.3000 C.2     1  UNL1        0.2920
     10  O         23.0600  -21.0710   -9.4930 O.2     1  UNL1       -0.2640
     11  H         22.2820  -23.3200  -11.5990 H       1  UNL1        0.1690
     12  C         24.3550  -22.6190  -10.6960 C.2     1  UNL1        0.1970
     13  N         25.0940  -23.4510   -9.8860 N.pl3   1  UNL1       -0.3440
     14  C         26.2660  -23.7230  -10.5310 C.2     1  UNL1        0.1160
     15  H         24.8250  -23.7530   -8.9590 H       1  UNL1        0.1670
     16  C         26.1620  -23.0980  -11.7570 C.2     1  UNL1        0.0480
     17  C         27.1210  -23.0920  -12.8820 C.3     1  UNL1        0.0720
     18  N         24.9820  -22.3940  -11.8330 N.2     1  UNL1       -0.2300
     19  C         17.4060  -23.0620   -9.3000 C.2     1  UNL1        0.2520
     20  O         16.4010  -23.5740   -9.7730 O.2     1  UNL1       -0.2680
     21  N         17.6890  -23.0160   -7.9500 N.am    1  UNL1       -0.3520
     22  H         18.4490  -22.4240   -7.6350 H       1  UNL1        0.1630
     23  C         16.7250  -23.4710   -6.9550 C.3     1  UNL1        0.0840
     24  C         15.7190  -22.3440   -6.6330 C.3     1  UNL1        0.0250
     25  C         15.2020  -22.4340   -5.2030 C.3     1  UNL1        0.0020
     26  C         16.3400  -22.3020   -4.1860 C.3     1  UNL1        0.0000
     27  C         17.6610  -22.9020   -4.6710 C.3     1  UNL1        0.0020
     28  C         17.4480  -23.9980   -5.7070 C.3     1  UNL1        0.0250
@<TRIPOS>BOND
     1    17    16    1
     2    18    16    1
     3    18    12    2
     4     2     3    1
     5     2     1    2
     6    16    14    2
     7     3     4    2
     8    11     8    1
     9     1     8    1
    10     1     6    1
    11     8     9   am
    12     4     5    1
    13    12     9    1
    14    12    13    1
    15    14    13    1
    16     9    10    2
    17     6     5    2
    18     6     7    1
    19     5    19    1
    20    13    15    1
    21    20    19    2
    22    19    21   am
    23    21    22    1
    24    21    23    1
    25    23    24    1
    26    23    28    1
    27    24    25    1
    28    28    27    1
    29    25    26    1
    30    27    26    1
