@<TRIPOS>MOLECULE
56324_out_ligand_01.pdbqt
 30 33 0 0 0
SMALL
GASTEIGER

@<TRIPOS>ATOM
      1  C         22.9210  -22.6400  -10.4920 C.2     1  UNL1        0.0110
      2  C         23.3170  -21.7630   -9.4770 C.2     1  UNL1        0.0150
      3  C         22.6140  -21.7200   -8.2730 C.2     1  UNL1        0.0020
      4  C         21.5200  -22.5620   -8.0750 C.2     1  UNL1        0.0090
      5  C         21.1180  -23.4620   -9.0760 C.2     1  UNL1       -0.0290
      6  C         21.8300  -23.4970  -10.2850 C.2     1  UNL1        0.0240
      7  C         19.9450  -24.3890   -8.8380 C.3     1  UNL1        0.3110
      8  N         18.8410  -23.7360   -8.1220 N.3     1  UNL1        0.0920
      9  C         18.1400  -24.6950   -7.2540 C.3     1  UNL1        0.2760
     10  C         16.7030  -24.2860   -6.9130 C.3     1  UNL1        0.0730
     11  C         16.5200  -22.7620   -6.8500 C.3     1  UNL1        0.0890
     12  C         16.9710  -22.1250   -8.1870 C.3     1  UNL1        0.0730
     13  C         17.9240  -23.0150   -8.9990 C.3     1  UNL1        0.2760
     14  O         15.1100  -22.4980   -6.7200 O.3     1  UNL1       -0.3850
     15  H         14.6810  -23.2970   -6.3720 H       1  UNL1        0.2110
     16  C         17.1810  -22.1970   -5.5960 C.2     1  UNL1       -0.0060
     17  C         18.3160  -21.3750   -5.6170 C.2     1  UNL1        0.0130
     18  C         18.8870  -20.9250   -4.4290 C.2     1  UNL1        0.0200
     19  C         18.3130  -21.3170   -3.2340 C.2     1  UNL1        0.1160
     20  N         17.2300  -22.1130   -3.1530 N.2     1  UNL1       -0.2720
     21  C         16.6930  -22.5260   -4.3280 C.2     1  UNL1        0.1260
     22  C         23.6900  -22.6500  -11.7650 C.2     1  UNL1        0.1410
     23  N         24.5800  -23.6820  -11.9410 N.am    1  UNL1       -0.3070
     24  C         25.3170  -23.8220  -13.0770 C.2     1  UNL1        0.2480
     25  H         24.6670  -24.4320  -11.2750 H       1  UNL1        0.1700
     26  C         25.1330  -22.7650  -14.0790 C.2     1  UNL1        0.1010
     27  O         26.0790  -24.7630  -13.2640 O.2     1  UNL1       -0.2680
     28  C         24.2450  -21.7970  -13.8160 C.2     1  UNL1        0.0380
     29  C         23.9980  -20.6860  -14.7970 C.3     1  UNL1        0.0700
     30  N         23.5020  -21.7320  -12.6610 N.2     1  UNL1       -0.2350
@<TRIPOS>BOND
     1    29    28    1
     2    26    28    2
     3    26    24    1
     4    28    30    1
     5    27    24    2
     6    24    23   am
     7    30    22    2
     8    23    22    1
     9    23    25    1
    10    22     1    1
    11     1     6    2
    12     1     2    1
    13     6     5    1
    14     2     3    2
    15     5     7    1
    16     5     4    2
    17    13    12    1
    18    13     8    1
    19     7     8    1
    20     3     4    1
    21    12    11    1
    22     8     9    1
    23     9    10    1
    24    10    11    1
    25    11    14    1
    26    11    16    1
    27    14    15    1
    28    17    16    2
    29    17    18    1
    30    16    21    1
    31    18    19    2
    32    21    20    2
    33    19    20    1
