@<TRIPOS>MOLECULE
5632_out_ligand_01.pdbqt
 29 32 0 0 0
SMALL
GASTEIGER

@<TRIPOS>ATOM
      1  C         22.7330  -22.2680  -11.1720 C.2     1  UNL1       -0.0180
      2  C         22.2330  -21.7150  -12.3690 C.2     1  UNL1        0.0100
      3  C         20.8800  -21.4040  -12.5160 C.2     1  UNL1        0.0030
      4  C         19.9900  -21.6050  -11.4600 C.2     1  UNL1        0.0290
      5  C         20.4490  -22.1210  -10.2510 C.2     1  UNL1        0.0350
      6  C         21.8070  -22.4630  -10.1270 C.2     1  UNL1        0.0390
      7  N         19.6420  -22.3030   -9.1080 N.am    1  UNL1       -0.3220
      8  C         19.4130  -23.4750   -8.4020 C.2     1  UNL1        0.2790
      9  O         19.9350  -24.5600   -8.6460 O.2     1  UNL1       -0.2650
     10  H         19.1230  -21.4810   -8.8090 H       1  UNL1        0.1690
     11  C         18.4460  -23.3300   -7.3010 C.ar    1  UNL1        0.1830
     12  N         17.2600  -24.0540   -7.2300 N.ar    1  UNL1       -0.2200
     13  C         16.6470  -23.6460   -6.1370 C.ar    1  UNL1        0.1370
     14  C         15.3940  -24.0040   -5.5670 C.2     1  UNL1        0.0510
     15  N         17.3950  -22.6870   -5.4630 N.ar    1  UNL1       -0.2810
     16  C         14.9970  -23.4330   -4.4130 C.2     1  UNL1        0.0050
     17  C         15.8190  -22.4460   -3.7270 C.2     1  UNL1        0.0180
     18  C         16.9980  -22.0920   -4.2690 C.2     1  UNL1        0.1010
     19  C         18.5250  -22.4890   -6.2050 C.ar    1  UNL1        0.2310
     20  F         19.5150  -21.6220   -5.9240 F       1  UNL1       -0.1830
     21  C         24.2420  -22.5530  -10.9910 C.3     1  UNL1        0.1860
     22  C         25.1300  -21.3020  -10.7440 C.3     1  UNL1        0.0720
     23  C         25.8750  -20.8430  -11.9950 C.3     1  UNL1        0.1700
     24  O         25.0770  -21.0150  -13.1570 O.3     1  UNL1       -0.3910
     25  C         24.8280  -22.3900  -13.4650 C.3     1  UNL1        0.1700
     26  C         24.7590  -23.3030  -12.2360 C.3     1  UNL1        0.0720
     27  N         24.4600  -23.4130   -9.8030 N.3     1  UNL1        0.0920
     28  H         24.7840  -24.3340  -10.0890 H       1  UNL1        0.3140
     29  H         23.5650  -23.5400   -9.3200 H       1  UNL1        0.3140
@<TRIPOS>BOND
     1    25    24    1
     2    25    26    1
     3    24    23    1
     4     3     2    1
     5     3     4    2
     6     2     1    2
     7    26    21    1
     8    23    22    1
     9     4     5    1
    10     1    21    1
    11     1     6    1
    12    21    22    1
    13    21    27    1
    14     5     6    2
    15     5     7    1
    16    28    27    1
    17    27    29    1
    18     7    10    1
    19     7     8   am
    20     9     8    2
    21     8    11    1
    22    11    12   ar
    23    11    19   ar
    24    12    13   ar
    25    19    20    1
    26    19    15   ar
    27    13    14    1
    28    13    15   ar
    29    14    16    2
    30    15    18    1
    31    16    17    1
    32    18    17    2
