@<TRIPOS>MOLECULE
56336_out_ligand_01.pdbqt
 38 43 0 0 0
SMALL
GASTEIGER

@<TRIPOS>ATOM
      1  C         22.2560  -22.6590   -9.4730 C.3     1  UNL1        0.1480
      2  C         21.8370  -22.0330  -10.7760 C.2     1  UNL1       -0.0260
      3  C         20.6310  -21.4120  -11.0760 C.2     1  UNL1        0.0100
      4  C         20.4480  -20.8800  -12.3530 C.2     1  UNL1        0.0010
      5  C         21.4680  -20.9660  -13.3100 C.2     1  UNL1        0.0010
      6  C         22.6860  -21.5720  -12.9980 C.2     1  UNL1        0.0090
      7  C         22.8720  -22.0950  -11.7230 C.2     1  UNL1       -0.0380
      8  C         24.1220  -22.7340  -11.1320 C.3     1  UNL1        0.0190
      9  C         24.8640  -23.7040  -12.0850 C.3     1  UNL1        0.0470
     10  C         26.1880  -23.1450  -12.6300 C.3     1  UNL1        0.2740
     11  N         26.0400  -21.7350  -12.9600 N.3     1  UNL1        0.0920
     12  C         25.7940  -20.9020  -11.7770 C.3     1  UNL1        0.2740
     13  C         25.1000  -21.6500  -10.6280 C.3     1  UNL1        0.0470
     14  C         23.4580  -23.5220   -9.9570 C.3     1  UNL1        0.1580
     15  O         24.3630  -23.7980   -8.8880 O.3     1  UNL1       -0.3920
     16  H         25.1560  -23.2530   -9.0230 H       1  UNL1        0.2100
     17  N         21.2120  -23.4750   -8.8820 N.am    1  UNL1       -0.3500
     18  C         20.4380  -23.0290   -7.8320 C.2     1  UNL1        0.2220
     19  O         20.5750  -21.9300   -7.3020 O.2     1  UNL1       -0.2730
     20  H         20.9660  -24.3420   -9.3370 H       1  UNL1        0.1630
     21  C         19.3790  -24.0190   -7.3790 C.3     1  UNL1        0.1410
     22  C         18.0380  -23.7760   -8.0250 C.2     1  UNL1       -0.0500
     23  C         16.8740  -24.3620   -7.5080 C.2     1  UNL1        0.0070
     24  C         15.6390  -24.1430   -8.1220 C.2     1  UNL1        0.0010
     25  C         15.5550  -23.3350   -9.2560 C.2     1  UNL1        0.0000
     26  C         16.7040  -22.7420   -9.7740 C.2     1  UNL1        0.0010
     27  C         17.9400  -22.9590   -9.1630 C.2     1  UNL1        0.0070
     28  C         27.1210  -21.2360  -13.8150 C.3     1  UNL1        0.3130
     29  C         26.6460  -20.8020  -15.1890 C.2     1  UNL1        0.0010
     30  C         26.1770  -21.7740  -16.0940 C.2     1  UNL1        0.0110
     31  C         25.7380  -21.4010  -17.3570 C.2     1  UNL1        0.0030
     32  C         25.7500  -20.0550  -17.7170 C.2     1  UNL1        0.0340
     33  C         26.2090  -19.0750  -16.8480 C.2     1  UNL1        0.0850
     34  N         26.1870  -17.7900  -17.2620 N.2     1  UNL1       -0.2570
     35  C         26.6750  -19.4440  -15.5560 C.2     1  UNL1        0.0930
     36  C         26.6400  -16.8690  -16.3880 C.2     1  UNL1        0.1360
     37  C         27.1000  -17.2130  -15.1360 C.2     1  UNL1        0.1360
     38  N         27.1210  -18.4910  -14.7010 N.2     1  UNL1       -0.2570
@<TRIPOS>BOND
     1    32    31    2
     2    32    33    1
     3    31    30    1
     4    34    33    2
     5    34    36    1
     6    33    35    1
     7    36    37    2
     8    30    29    2
     9    35    29    1
    10    35    38    2
    11    29    28    1
    12    37    38    1
    13    28    11    1
    14     5     6    2
    15     5     4    1
    16     6     7    1
    17    11    10    1
    18    11    12    1
    19    10     9    1
    20     4     3    2
    21     9     8    1
    22    12    13    1
    23     7     8    1
    24     7     2    2
    25     8    13    1
    26     8    14    1
    27     3     2    1
    28     2     1    1
    29    14     1    1
    30    14    15    1
    31    26    25    2
    32    26    27    1
    33     1    17    1
    34    20    17    1
    35    25    24    1
    36    27    22    2
    37    16    15    1
    38    17    18   am
    39    24    23    2
    40    22    23    1
    41    22    21    1
    42    18    21    1
    43    18    19    2
