@<TRIPOS>MOLECULE
56347_out_ligand_01.pdbqt
 33 37 0 0 0
SMALL
GASTEIGER

@<TRIPOS>ATOM
      1  C         24.6450  -21.3600  -14.5970 C.ar    1  UNL1        0.1520
      2  N         23.5760  -20.8560  -15.1850 N.ar    1  UNL1       -0.1330
      3  N         22.5380  -20.8970  -14.2960 N.ar    1  UNL1       -0.1350
      4  C         22.9750  -21.4300  -13.1740 C.ar    1  UNL1        0.1320
      5  N         24.3120  -21.7150  -13.3090 N.ar    1  UNL1       -0.3170
      6  C         25.1900  -22.3250  -12.3330 C.3     1  UNL1        0.1620
      7  C         24.7860  -22.1350  -10.8640 C.3     1  UNL1        0.2930
      8  N         23.6960  -23.0140  -10.4250 N.3     1  UNL1        0.0940
      9  C         22.4920  -23.0050  -11.2670 C.3     1  UNL1        0.2800
     10  C         22.1510  -21.6800  -11.9590 C.3     1  UNL1        0.1110
     11  C         23.4270  -22.9450   -8.9790 C.3     1  UNL1        0.3110
     12  C         21.9940  -23.1800   -8.5450 C.2     1  UNL1       -0.0300
     13  C         21.3070  -24.3480   -8.9490 C.2     1  UNL1        0.0100
     14  C         19.9800  -24.5850   -8.5700 C.2     1  UNL1        0.0130
     15  C         19.3460  -23.6480   -7.7750 C.2     1  UNL1       -0.0190
     16  C         20.0280  -22.4880   -7.3550 C.2     1  UNL1       -0.0420
     17  C         18.0040  -23.6220   -7.2310 C.3     1  UNL1       -0.0190
     18  C         21.3400  -22.2430   -7.7270 C.2     1  UNL1        0.0170
     19  C         19.1280  -21.6340   -6.4870 C.2     1  UNL1        0.0780
     20  C         17.8500  -22.4460   -6.4650 C.2     1  UNL1       -0.0430
     21  C         16.6600  -22.1530   -5.8180 C.2     1  UNL1        0.0080
     22  C         15.6060  -23.0600   -5.9470 C.2     1  UNL1        0.0010
     23  C         15.7520  -24.2300   -6.7090 C.2     1  UNL1        0.0010
     24  C         16.9570  -24.5200   -7.3580 C.2     1  UNL1        0.0130
     25  C         25.9890  -21.5380  -15.2330 C.3     1  UNL1        0.1520
     26  C         26.0310  -22.8250  -16.0550 C.3     1  UNL1        0.0400
     27  N         26.2300  -20.3810  -16.0750 N.am    1  UNL1       -0.3490
     28  C         26.7560  -19.2140  -15.5880 C.2     1  UNL1        0.2210
     29  O         27.0030  -19.0450  -14.3960 O.2     1  UNL1       -0.2730
     30  H         26.0760  -20.5070  -17.0710 H       1  UNL1        0.1630
     31  C         27.0160  -18.1280  -16.6250 C.3     1  UNL1        0.0700
     32  C         26.2100  -18.3760  -17.8960 C.3     1  UNL1        0.0190
     33  C         26.7450  -16.7400  -16.0540 C.3     1  UNL1        0.0190
@<TRIPOS>BOND
     1    32    31    1
     2    30    27    1
     3    31    33    1
     4    31    28    1
     5    27    28   am
     6    27    25    1
     7    26    25    1
     8    28    29    2
     9    25     1    1
    10     2     1   ar
    11     2     3   ar
    12     1     5   ar
    13     3     4   ar
    14     5     4   ar
    15     5     6    1
    16     4    10    1
    17     6     7    1
    18    10     9    1
    19     9     8    1
    20     7     8    1
    21     8    11    1
    22    11    12    1
    23    13    14    1
    24    13    12    2
    25    14    15    2
    26    12    18    1
    27    15    16    1
    28    15    17    1
    29    18    16    2
    30    24    17    1
    31    24    23    2
    32    16    19    1
    33    17    20    1
    34    23    22    1
    35    19    20    2
    36    20    21    1
    37    22    21    2
