@<TRIPOS>MOLECULE
56343_out_ligand_01.pdbqt
 35 40 0 0 0
SMALL
GASTEIGER

@<TRIPOS>ATOM
      1  C         18.5610  -21.6640  -10.8930 C.2     1  UNL1        0.0760
      2  C         18.9420  -20.6500  -11.8020 C.2     1  UNL1        0.1590
      3  N         20.2380  -20.6500  -12.0970 N.2     1  UNL1       -0.1640
      4  N         20.7620  -21.6450  -11.3170 N.pl3   1  UNL1       -0.0630
      5  C         19.7460  -22.3570  -10.6870 C.2     1  UNL1        0.0760
      6  C         17.2450  -21.9310  -10.3230 C.2     1  UNL1        0.2550
      7  O         16.2330  -21.3140  -10.6350 O.2     1  UNL1       -0.2680
      8  N         17.2060  -22.9600   -9.4030 N.am    1  UNL1       -0.3500
      9  H         18.0600  -23.4100   -9.1160 H       1  UNL1        0.1630
     10  C         15.9860  -23.2860   -8.6760 C.3     1  UNL1        0.1140
     11  C         15.7660  -22.3290   -7.5030 C.3     1  UNL1        0.0570
     12  C         15.4930  -23.2360   -6.3130 C.3     1  UNL1        0.2750
     13  N         16.2160  -24.4890   -6.5870 N.3     1  UNL1        0.0940
     14  C         16.0400  -24.6830   -8.0380 C.3     1  UNL1        0.2970
     15  C         17.6380  -24.4160   -6.2140 C.3     1  UNL1        0.3110
     16  C         17.9570  -23.2230   -5.3380 C.2     1  UNL1       -0.0300
     17  C         17.6470  -23.2460   -3.9690 C.2     1  UNL1        0.0090
     18  C         17.9530  -22.1560   -3.1530 C.2     1  UNL1        0.0010
     19  C         18.5760  -21.0340   -3.6930 C.2     1  UNL1        0.0000
     20  C         18.8960  -21.0010   -5.0500 C.2     1  UNL1        0.0010
     21  C         18.5910  -22.0890   -5.8680 C.2     1  UNL1        0.0090
     22  C         19.9200  -23.6600   -9.8430 C.3     1  UNL1        0.0390
     23  C         20.4520  -23.5460   -8.4320 C.3     1  UNL1        0.0110
     24  C         21.3040  -24.1540   -9.4960 C.3     1  UNL1        0.0110
     25  C         22.1890  -21.8220  -11.2000 C.cat   1  UNL1        0.7500
     26  N         22.7760  -21.4800  -10.0290 N.2     1  UNL1       -0.0730
     27  C         24.0980  -21.6850   -9.9260 C.2     1  UNL1        0.1390
     28  C         24.8610  -22.2210  -10.9330 C.2     1  UNL1        0.0530
     29  C         24.1860  -22.5570  -12.0870 C.2     1  UNL1        0.0940
     30  N         22.8610  -22.3590  -12.2370 N.2     1  UNL1       -0.0600
     31  C         24.8820  -23.1490  -13.2400 C.2     1  UNL1        0.0340
     32  C         25.5990  -24.3310  -13.3150 C.2     1  UNL1        0.0210
     33  C         26.1040  -24.5920  -14.6240 C.2     1  UNL1        0.0080
     34  C         25.7660  -23.5990  -15.5130 C.2     1  UNL1        0.0500
     35  S         24.8450  -22.3660  -14.7730 S.3     1  UNL1       -0.1000
@<TRIPOS>BOND
     1    34    35    1
     2    34    33    2
     3    35    31    1
     4    33    32    1
     5    32    31    2
     6    31    29    1
     7    30    29    2
     8    30    25    1
     9     3     2    2
    10     3     4    1
    11    29    28    1
    12     2     1    1
    13     4    25    1
    14     4     5    1
    15    25    26    2
    16    28    27    2
    17     1     5    2
    18     1     6    1
    19     5    22    1
    20     7     6    2
    21     6     8   am
    22    26    27    1
    23    22    24    1
    24    22    23    1
    25    24    23    1
    26     8     9    1
    27     8    10    1
    28    10    14    1
    29    10    11    1
    30    14    13    1
    31    11    12    1
    32    13    12    1
    33    13    15    1
    34    15    16    1
    35    21    16    2
    36    21    20    1
    37    16    17    1
    38    20    19    2
    39    17    18    2
    40    19    18    1
