@<TRIPOS>MOLECULE
56362_out_ligand_01.pdbqt
 37 42 0 0 0
SMALL
GASTEIGER

@<TRIPOS>ATOM
      1  C         20.3290  -21.5880  -11.5100 C.2     1  UNL1        0.0760
      2  C         19.1590  -20.9080  -11.8960 C.2     1  UNL1        0.1590
      3  N         18.0920  -21.2470  -11.1900 N.2     1  UNL1       -0.1640
      4  N         18.5470  -22.1570  -10.2650 N.pl3   1  UNL1       -0.0630
      5  C         19.9040  -22.4500  -10.4930 C.2     1  UNL1        0.0760
      6  C         17.6060  -22.6100   -9.2600 C.cat   1  UNL1        0.7500
      7  N         16.5260  -23.3120   -9.6000 N.2     1  UNL1       -0.0730
      8  C         15.7170  -23.6930   -8.5970 C.2     1  UNL1        0.1460
      9  C         15.9160  -23.4280   -7.2470 C.2     1  UNL1       -0.0100
     10  C         17.0650  -22.7100   -6.9600 C.2     1  UNL1        0.0940
     11  C         14.8740  -23.9780   -6.3210 C.3     1  UNL1        0.0430
     12  N         17.8870  -22.3170   -7.9710 N.2     1  UNL1       -0.0600
     13  C         17.5690  -22.2690   -5.6220 C.2     1  UNL1        0.0000
     14  C         18.4650  -21.1680   -5.5720 C.2     1  UNL1        0.0140
     15  C         17.2570  -22.8730   -4.3830 C.2     1  UNL1       -0.0460
     16  C         19.0280  -20.6950   -4.3840 C.2     1  UNL1        0.0010
     17  C         18.7210  -21.3170   -3.1870 C.2     1  UNL1        0.0010
     18  C         17.8440  -22.3960   -3.1870 C.2     1  UNL1        0.0080
     19  C         16.2950  -24.0240   -4.2540 C.3     1  UNL1        0.0400
     20  C         14.9470  -23.6470   -4.8420 C.3     1  UNL1        0.0090
     21  C         20.8920  -23.4930   -9.8410 C.3     1  UNL1        0.0390
     22  C         21.2840  -23.4170   -8.3980 C.3     1  UNL1        0.0110
     23  C         20.4650  -24.5790   -8.9050 C.3     1  UNL1        0.0110
     24  C         21.6560  -21.4180  -12.0970 C.2     1  UNL1        0.2550
     25  N         22.6990  -21.6270  -11.2130 N.am    1  UNL1       -0.3520
     26  H         22.4800  -22.2260  -10.4190 H       1  UNL1        0.1630
     27  O         21.8540  -21.1350  -13.2740 O.2     1  UNL1       -0.2680
     28  C         24.0640  -21.8180  -11.6890 C.3     1  UNL1        0.0860
     29  C         25.0600  -21.4020  -10.6080 C.3     1  UNL1        0.0320
     30  C         24.2950  -23.2670  -12.1710 C.3     1  UNL1        0.0840
     31  C         25.1010  -23.3940  -13.4490 C.2     1  UNL1        0.0360
     32  C         26.2200  -24.2190  -13.4850 C.2     1  UNL1        0.0270
     33  C         26.9660  -24.2870  -14.6580 C.2     1  UNL1        0.0040
     34  C         26.5880  -23.5200  -15.7540 C.2     1  UNL1        0.0270
     35  C         25.4710  -22.7010  -15.6430 C.2     1  UNL1        0.0310
     36  C         25.0340  -21.8630  -16.8070 C.3     1  UNL1        0.0700
     37  N         24.7270  -22.6330  -14.5110 N.2     1  UNL1       -0.2580
@<TRIPOS>BOND
     1    36    35    1
     2    34    35    2
     3    34    33    1
     4    35    37    1
     5    33    32    2
     6    37    31    2
     7    32    31    1
     8    31    30    1
     9    27    24    2
    10    30    28    1
    11    24     1    1
    12    24    25   am
    13     2     1    1
    14     2     3    2
    15    28    25    1
    16    28    29    1
    17     1     5    2
    18    25    26    1
    19     3     4    1
    20     5     4    1
    21     5    21    1
    22     4     6    1
    23    21    23    1
    24    21    22    1
    25     7     6    2
    26     7     8    1
    27     6    12    1
    28    23    22    1
    29     8     9    2
    30    12    10    2
    31     9    10    1
    32     9    11    1
    33    10    13    1
    34    11    20    1
    35    13    14    2
    36    13    15    1
    37    14    16    1
    38    20    19    1
    39    16    17    2
    40    15    19    1
    41    15    18    2
    42    18    17    1
