@<TRIPOS>MOLECULE
56361_out_ligand_01.pdbqt
 34 39 0 0 0
SMALL
GASTEIGER

@<TRIPOS>ATOM
      1  C         19.9360  -23.5800   -9.3930 C.2     1  UNL1        0.0760
      2  C         20.8410  -24.5050   -8.8310 C.2     1  UNL1        0.1590
      3  N         22.1100  -24.2760   -9.1600 N.2     1  UNL1       -0.1640
      4  N         22.0600  -23.1830   -9.9760 N.pl3   1  UNL1       -0.0630
      5  C         20.7630  -22.6760  -10.0450 C.2     1  UNL1        0.0760
      6  C         18.4930  -23.6320   -9.2290 C.2     1  UNL1        0.2550
      7  O         17.7310  -23.2560  -10.1120 O.2     1  UNL1       -0.2680
      8  N         18.0510  -24.0610   -7.9980 N.am    1  UNL1       -0.3560
      9  H         18.7360  -24.2100   -7.2720 H       1  UNL1        0.1620
     10  C         16.6490  -24.0440   -7.6300 C.3     1  UNL1        0.1290
     11  C         16.4450  -24.0610   -6.1050 C.3     1  UNL1        0.0370
     12  C         15.0140  -23.6340   -5.7330 C.3     1  UNL1        0.0100
     13  C         14.8570  -23.3440   -4.2410 C.3     1  UNL1        0.0310
     14  C         16.0420  -23.8530   -3.4280 C.3     1  UNL1        0.2730
     15  N         17.3140  -23.2720   -3.8690 N.3     1  UNL1        0.0930
     16  C         17.6230  -22.0290   -3.1530 C.3     1  UNL1        0.2730
     17  C         17.5020  -23.2170   -5.3390 C.3     1  UNL1        0.2280
     18  C         18.8860  -21.3710   -3.6960 C.3     1  UNL1        0.0300
     19  C         18.7370  -20.9970   -5.1670 C.3     1  UNL1        0.0040
     20  C         17.6130  -21.7680   -5.8600 C.3     1  UNL1        0.0360
     21  C         20.3420  -21.3310  -10.7150 C.3     1  UNL1        0.0390
     22  C         20.8430  -20.9870  -12.0970 C.3     1  UNL1        0.0110
     23  C         19.4150  -21.3860  -11.9060 C.3     1  UNL1        0.0110
     24  C         23.2410  -22.6990  -10.6530 C.cat   1  UNL1        0.7500
     25  N         23.9640  -21.7190  -10.0660 N.2     1  UNL1       -0.0730
     26  C         25.0460  -21.2820  -10.7320 C.2     1  UNL1        0.1390
     27  C         25.4340  -21.7680  -11.9560 C.2     1  UNL1        0.0550
     28  C         24.6390  -22.7600  -12.4910 C.2     1  UNL1        0.1110
     29  N         23.5460  -23.2290  -11.8580 N.2     1  UNL1       -0.0580
     30  C         24.9470  -23.3720  -13.7820 C.2     1  UNL1        0.1040
     31  C         25.0090  -22.9080  -15.0860 C.2     1  UNL1        0.0410
     32  C         25.3910  -24.0070  -15.8950 C.2     1  UNL1        0.0270
     33  C         25.5330  -25.0760  -15.0440 C.2     1  UNL1        0.1420
     34  O         25.2640  -24.7040  -13.7690 O.2     1  UNL1       -0.3200
@<TRIPOS>BOND
     1    32    31    1
     2    32    33    2
     3    31    30    2
     4    33    34    1
     5    30    34    1
     6    30    28    1
     7    28    27    1
     8    28    29    2
     9    22    23    1
    10    22    21    1
    11    27    26    2
    12    23    21    1
    13    29    24    1
    14    26    25    1
    15    21     5    1
    16    24    25    2
    17    24     4    1
    18     7     6    2
    19     5     4    1
    20     5     1    2
    21     4     3    1
    22     1     6    1
    23     1     2    1
    24     6     8   am
    25     3     2    2
    26     8    10    1
    27     8     9    1
    28    10    11    1
    29    11    12    1
    30    11    17    1
    31    20    17    1
    32    20    19    1
    33    12    13    1
    34    17    15    1
    35    19    18    1
    36    13    14    1
    37    15    14    1
    38    15    16    1
    39    18    16    1
