@<TRIPOS>MOLECULE
5638_out_ligand_01.pdbqt
 37 40 0 0 0
SMALL
GASTEIGER

@<TRIPOS>ATOM
      1  C         22.0620  -22.5220  -11.0970 C.2     1  UNL1        0.0410
      2  C         21.4680  -22.9140   -9.8910 C.2     1  UNL1        0.0470
      3  C         20.1300  -22.6050   -9.6040 C.2     1  UNL1        0.0340
      4  C         19.3950  -21.8540  -10.5240 C.2     1  UNL1        0.0180
      5  C         19.9860  -21.4240  -11.7120 C.2     1  UNL1        0.0100
      6  C         21.3200  -21.7490  -12.0130 C.2     1  UNL1       -0.0350
      7  C         21.9050  -21.2490  -13.3070 C.3     1  UNL1        0.0500
      8  N         23.4030  -22.8560  -11.4020 N.am    1  UNL1       -0.3260
      9  C         24.5450  -22.1640  -11.0190 C.2     1  UNL1        0.2260
     10  O         24.5790  -21.1680  -10.2970 O.2     1  UNL1       -0.2730
     11  H         23.5520  -23.7130  -11.9140 H       1  UNL1        0.1690
     12  C         25.8260  -22.7860  -11.5570 C.3     1  UNL1        0.1440
     13  C         25.7030  -23.1080  -13.0110 C.2     1  UNL1       -0.0210
     14  C         25.5590  -22.1860  -14.0990 C.2     1  UNL1       -0.0010
     15  C         25.4700  -20.7830  -14.1970 C.2     1  UNL1        0.0150
     16  C         25.5100  -22.9370  -15.2750 C.2     1  UNL1        0.0430
     17  C         25.3450  -20.1850  -15.4600 C.2     1  UNL1        0.0070
     18  C         25.2850  -20.9580  -16.6240 C.2     1  UNL1       -0.0600
     19  C         25.1690  -20.2910  -17.9700 C.3     1  UNL1        0.0480
     20  C         25.3810  -22.3570  -16.5430 C.2     1  UNL1        0.0370
     21  N         25.6090  -24.2600  -14.9190 N.pl3   1  UNL1       -0.3650
     22  C         25.7140  -24.3740  -13.5600 C.2     1  UNL1        0.0970
     23  H         25.5960  -25.0340  -15.5720 H       1  UNL1        0.1650
     24  C         19.4790  -22.9930   -8.3110 C.2     1  UNL1        0.2560
     25  O         19.4460  -24.1850   -8.0210 O.2     1  UNL1       -0.2670
     26  N         18.9680  -21.9520   -7.5540 N.am    1  UNL1       -0.3230
     27  H         19.1310  -21.0100   -7.8850 H       1  UNL1        0.1690
     28  C         18.2520  -22.0440   -6.3410 C.2     1  UNL1        0.0350
     29  C         18.7060  -21.5470   -5.1190 C.2     1  UNL1        0.0290
     30  C         17.9310  -21.6780   -3.9630 C.2     1  UNL1        0.0030
     31  C         16.6930  -22.3170   -4.0180 C.2     1  UNL1        0.0160
     32  C         16.2280  -22.8500   -5.2290 C.2     1  UNL1        0.0500
     33  C         17.0100  -22.6950   -6.3880 C.2     1  UNL1        0.0450
     34  C         14.8970  -23.5550   -5.2870 C.3     1  UNL1        0.4170
     35  F         14.7920  -24.3850   -6.3630 F       1  UNL1       -0.1660
     36  F         14.6470  -24.3310   -4.1930 F       1  UNL1       -0.1660
     37  F         13.8440  -22.6940   -5.3770 F       1  UNL1       -0.1660
@<TRIPOS>BOND
     1    19    18    1
     2    18    20    2
     3    18    17    1
     4    20    16    1
     5    23    21    1
     6    17    15    2
     7    16    21    1
     8    16    14    2
     9    21    22    1
    10    15    14    1
    11    14    13    1
    12    22    13    2
    13     7     6    1
    14    13    12    1
    15     6     5    1
    16     6     1    2
    17    11     8    1
    18     5     4    2
    19    12     9    1
    20     8     1    1
    21     8     9   am
    22     1     2    1
    23     9    10    2
    24     4     3    1
    25     2     3    2
    26     3    24    1
    27    24    25    2
    28    24    26   am
    29    27    26    1
    30    26    28    1
    31    33    28    2
    32    33    32    1
    33    35    34    1
    34    28    29    1
    35    37    34    1
    36    34    32    1
    37    34    36    1
    38    32    31    2
    39    29    30    2
    40    31    30    1
