@<TRIPOS>MOLECULE
563_out_ligand_01.pdbqt
 32 34 0 0 0
SMALL
GASTEIGER

@<TRIPOS>ATOM
      1  C         17.9350  -22.4370   -9.6850 C.2     1  UNL1        0.0350
      2  C         16.6580  -22.4940  -10.2480 C.2     1  UNL1        0.0290
      3  C         15.5510  -22.7980   -9.4580 C.2     1  UNL1        0.0030
      4  C         15.7080  -23.0490   -8.0950 C.2     1  UNL1        0.0100
      5  C         16.9760  -23.0030   -7.4940 C.2     1  UNL1       -0.0190
      6  C         18.0810  -22.6840   -8.3160 C.2     1  UNL1        0.0390
      7  N         19.0030  -22.1270  -10.5460 N.am    1  UNL1       -0.3250
      8  C         19.0890  -21.1000  -11.4690 C.2     1  UNL1        0.2460
      9  O         18.2240  -20.2670  -11.7240 O.2     1  UNL1       -0.2710
     10  H         19.8470  -22.6840  -10.4460 H       1  UNL1        0.1690
     11  C         20.4250  -21.0960  -12.2240 C.3     1  UNL1        0.2780
     12  O         21.2430  -22.2370  -11.9920 O.2     1  UNL1       -0.3420
     13  C         22.5940  -22.0560  -11.8370 C.2     1  UNL1        0.0760
     14  C         23.0840  -22.1530  -10.5190 C.2     1  UNL1       -0.0210
     15  C         24.4630  -21.9760  -10.2980 C.2     1  UNL1        0.0110
     16  C         25.3310  -21.6850  -11.3500 C.2     1  UNL1        0.0070
     17  C         24.8400  -21.5530  -12.6490 C.2     1  UNL1       -0.0590
     18  C         25.7720  -21.2550  -13.7870 C.3     1  UNL1        0.0480
     19  C         23.4730  -21.7540  -12.8860 C.2     1  UNL1        0.0440
     20  C         22.1630  -22.4640   -9.3440 C.3     1  UNL1        0.0130
     21  C         22.5960  -21.7370   -8.0660 C.3     1  UNL1        0.0150
     22  C         22.0610  -23.9730   -9.1070 C.3     1  UNL1        0.0150
     23  C         17.1870  -23.2670   -6.0060 C.3     1  UNL1        0.1390
     24  C         17.9800  -24.5270   -5.6420 C.3     1  UNL1        0.0540
     25  N         15.9140  -23.2870   -5.3060 N.am    1  UNL1       -0.3210
     26  C         15.8260  -22.3150   -4.3420 C.2     1  UNL1        0.3240
     27  H         15.1100  -23.8380   -5.5700 H       1  UNL1        0.1650
     28  O         14.8480  -22.1040   -3.6510 O.2     1  UNL1       -0.2470
     29  N         16.9940  -21.6340   -4.3040 N.am    1  UNL1       -0.2770
     30  C         17.8470  -22.0740   -5.2720 C.2     1  UNL1        0.2580
     31  H         17.1630  -20.8400   -3.7110 H       1  UNL1        0.1730
     32  O         18.9540  -21.6020   -5.4890 O.2     1  UNL1       -0.2700
@<TRIPOS>BOND
     1    18    17    1
     2    19    17    1
     3    19    13    2
     4    17    16    2
     5    11    12    1
     6    11     8    1
     7    12    13    1
     8    13    14    1
     9     9     8    2
    10     8     7   am
    11    16    15    1
    12     7    10    1
    13     7     1    1
    14    14    15    2
    15    14    20    1
    16     2     1    2
    17     2     3    1
    18     1     6    1
    19     3     4    2
    20    20    22    1
    21    20    21    1
    22     6     5    2
    23     4     5    1
    24     5    23    1
    25    23    24    1
    26    23    25    1
    27    23    30    1
    28    27    25    1
    29    32    30    2
    30    25    26   am
    31    30    29   am
    32    26    29   am
    33    26    28    2
    34    29    31    1
