@<TRIPOS>MOLECULE
5644_out_ligand_01.pdbqt
 31 34 0 0 0
SMALL
GASTEIGER

@<TRIPOS>ATOM
      1  C         20.7540  -23.0770   -9.8770 C.2     1  UNL1        0.2580
      2  O         20.7340  -24.2610   -9.5760 O.2     1  UNL1       -0.2670
      3  N         19.7180  -22.1630   -9.8430 N.am    1  UNL1       -0.3230
      4  H         19.9130  -21.2370  -10.2040 H       1  UNL1        0.1690
      5  C         18.3970  -22.3880   -9.4010 C.2     1  UNL1        0.0350
      6  C         17.2840  -22.3420  -10.2340 C.2     1  UNL1        0.0290
      7  C         16.0130  -22.5860   -9.7160 C.2     1  UNL1        0.0030
      8  C         15.8460  -22.8730   -8.3620 C.2     1  UNL1        0.0100
      9  C         16.9450  -22.9180   -7.4820 C.2     1  UNL1       -0.0180
     10  C         18.2190  -22.6820   -8.0370 C.2     1  UNL1        0.0390
     11  C         16.7360  -23.2620   -5.9930 C.3     1  UNL1        0.1860
     12  C         15.2730  -23.7020   -5.7280 C.3     1  UNL1        0.0720
     13  C         14.9690  -23.8850   -4.2450 C.3     1  UNL1        0.1700
     14  O         15.2660  -22.6950   -3.5190 O.3     1  UNL1       -0.3910
     15  C         16.6540  -22.3820   -3.5910 C.3     1  UNL1        0.1700
     16  C         17.0550  -22.0880   -5.0310 C.3     1  UNL1        0.0720
     17  N         17.6490  -24.3720   -5.6540 N.3     1  UNL1        0.0920
     18  H         17.7650  -24.4170   -4.6420 H       1  UNL1        0.3140
     19  H         17.2040  -25.2530   -5.9130 H       1  UNL1        0.3140
     20  C         22.0190  -22.5150  -10.3840 C.2     1  UNL1        0.0570
     21  C         22.3010  -22.6730  -11.7470 C.2     1  UNL1        0.0360
     22  C         23.4960  -22.1120  -12.2100 C.2     1  UNL1        0.0320
     23  C         24.1860  -22.0010  -13.4370 C.2     1  UNL1        0.1540
     24  C         24.3060  -21.4530  -11.2960 C.2     1  UNL1        0.1580
     25  N         25.3340  -21.3250  -13.3270 N.2     1  UNL1       -0.1820
     26  N         25.3870  -21.0090  -12.0120 N.pl3   1  UNL1       -0.2520
     27  N         24.0800  -21.2860   -9.9770 N.2     1  UNL1       -0.2330
     28  C         22.9240  -21.8540   -9.5410 C.2     1  UNL1        0.0490
     29  C         22.6690  -21.7340   -8.0630 C.3     1  UNL1        0.0710
     30  C         26.5190  -20.2720  -11.4890 C.3     1  UNL1        0.1480
     31  C         26.9360  -19.1380  -12.4090 C.3     1  UNL1        0.0280
@<TRIPOS>BOND
     1    23    25    2
     2    23    22    1
     3    25    26    1
     4    31    30    1
     5    22    21    1
     6    22    24    2
     7    26    30    1
     8    26    24    1
     9    21    20    2
    10    24    27    1
    11    20     1    1
    12    20    28    1
    13     6     7    1
    14     6     5    2
    15     4     3    1
    16    27    28    2
    17     1     3   am
    18     1     2    2
    19     3     5    1
    20     7     8    2
    21    28    29    1
    22     5    10    1
    23     8     9    1
    24    10     9    2
    25     9    11    1
    26    11    12    1
    27    11    17    1
    28    11    16    1
    29    19    17    1
    30    12    13    1
    31    17    18    1
    32    16    15    1
    33    13    14    1
    34    15    14    1
