@<TRIPOS>MOLECULE
56449_out_ligand_01.pdbqt
 33 36 0 0 0
SMALL
GASTEIGER

@<TRIPOS>ATOM
      1  C         19.7250  -22.6920   -8.1040 C.3     1  UNL1        0.1110
      2  C         19.7630  -24.2450   -8.0850 C.3     1  UNL1        0.0290
      3  C         20.6770  -24.8100   -9.1740 C.3     1  UNL1        0.0320
      4  C         22.0780  -24.2030   -9.1050 C.3     1  UNL1        0.2730
      5  N         22.0150  -22.7310   -9.1760 N.3     1  UNL1        0.0980
      6  C         21.2050  -22.2070   -8.0500 C.3     1  UNL1        0.2980
      7  C         23.3850  -22.1480   -9.1480 C.3     1  UNL1        0.3740
      8  C         24.2150  -22.6470  -10.3450 C.2     1  UNL1        0.2500
      9  O         25.2720  -23.2470  -10.1800 O.2     1  UNL1       -0.2710
     10  N         23.6450  -22.2870  -11.5540 N.am    1  UNL1       -0.3260
     11  H         22.7180  -21.8780  -11.4500 H       1  UNL1        0.1690
     12  C         24.1280  -22.5020  -12.8540 C.2     1  UNL1        0.0370
     13  C         24.8280  -23.6940  -13.0820 C.2     1  UNL1        0.0320
     14  C         25.3320  -23.9900  -14.3500 C.2     1  UNL1        0.0420
     15  C         25.1600  -23.0860  -15.3950 C.2     1  UNL1        0.1020
     16  C         24.4540  -21.9020  -15.1780 C.2     1  UNL1        0.1040
     17  O         25.6230  -23.4720  -16.6240 O.2     1  UNL1       -0.3480
     18  C         23.9300  -21.6160  -13.9140 C.2     1  UNL1        0.0690
     19  O         24.1460  -21.0240  -16.1830 O.2     1  UNL1       -0.3480
     20  C         25.3110  -20.4390  -16.7620 C.3     1  UNL1        0.1780
     21  C         25.9470  -21.3500  -17.8010 C.3     1  UNL1        0.0530
     22  C         26.5910  -22.5610  -17.1450 C.3     1  UNL1        0.1780
     23  C         19.0260  -22.1920   -6.8220 C.2     1  UNL1        0.2320
     24  N         17.9330  -22.9050   -6.4090 N.am    1  UNL1       -0.3690
     25  H         17.3900  -22.4940   -5.6620 H       1  UNL1        0.1590
     26  H         17.4200  -23.4240   -7.1220 H       1  UNL1        0.1590
     27  O         19.3980  -21.2200   -6.1690 O.2     1  UNL1       -0.2720
     28  C         18.9240  -22.1810   -9.3150 C.2     1  UNL1        0.0530
     29  C         19.5170  -21.5820  -10.4270 C.2     1  UNL1        0.0280
     30  C         18.7170  -21.1360  -11.4790 C.2     1  UNL1        0.0030
     31  C         17.3400  -21.2840  -11.4030 C.2     1  UNL1        0.0190
     32  C         16.8150  -21.8680  -10.2670 C.2     1  UNL1        0.1170
     33  N         17.5670  -22.3050   -9.2300 N.2     1  UNL1       -0.2640
@<TRIPOS>BOND
     1    21    22    1
     2    21    20    1
     3    22    17    1
     4    20    19    1
     5    17    15    1
     6    19    16    1
     7    15    16    2
     8    15    14    1
     9    16    18    1
    10    14    13    2
    11    18    12    2
    12    13    12    1
    13    12    10    1
    14    10    11    1
    15    10     8   am
    16    30    31    2
    17    30    29    1
    18    31    32    1
    19    29    28    2
    20     8     9    2
    21     8     7    1
    22    32    33    2
    23    28    33    1
    24    28     1    1
    25     5     7    1
    26     5     4    1
    27     5     6    1
    28     3     4    1
    29     3     2    1
    30     1     2    1
    31     1     6    1
    32     1    23    1
    33    26    24    1
    34    23    24   am
    35    23    27    2
    36    24    25    1
