@<TRIPOS>MOLECULE
56457_out_ligand_01.pdbqt
 37 40 0 0 0
SMALL
GASTEIGER

@<TRIPOS>ATOM
      1  C         17.8790  -21.8800   -9.7450 C.3     1  UNL1        0.1250
      2  N         19.0490  -21.4200  -10.4590 N.am    1  UNL1       -0.3610
      3  C         18.9660  -20.9950  -11.7710 C.2     1  UNL1        0.2170
      4  O         17.9080  -20.7790  -12.3480 O.2     1  UNL1       -0.2740
      5  H         19.9430  -21.7840  -10.1470 H       1  UNL1        0.1620
      6  C         20.3250  -20.8250  -12.4140 C.3     1  UNL1        0.1070
      7  C         21.4460  -21.3050  -11.4950 C.3     1  UNL1        0.0470
      8  C         22.6130  -21.8330  -12.2950 C.2     1  UNL1       -0.0580
      9  C         22.8650  -21.3450  -13.5860 C.2     1  UNL1        0.0090
     10  C         23.9130  -21.8620  -14.3470 C.2     1  UNL1        0.0250
     11  C         24.7190  -22.8670  -13.8110 C.2     1  UNL1        0.0740
     12  C         24.4780  -23.3710  -12.5300 C.2     1  UNL1        0.0250
     13  C         23.4260  -22.8500  -11.7750 C.2     1  UNL1        0.0090
     14  S         26.0450  -23.5350  -14.7810 S.O2    1  UNL1        0.2390
     15  O         25.4830  -24.1310  -15.9720 O.2     1  UNL1       -0.2060
     16  O         27.1150  -22.5680  -14.8310 O.2     1  UNL1       -0.2060
     17  N         26.5490  -24.8240  -13.8220 N.3     1  UNL1       -0.2250
     18  H         25.8590  -25.5730  -13.7600 H       1  UNL1        0.1360
     19  H         27.4510  -25.1600  -14.1630 H       1  UNL1        0.1360
     20  C         17.9700  -23.3550   -9.3330 C.3     1  UNL1        0.0590
     21  C         18.8070  -23.6700   -8.0610 C.3     1  UNL1        0.0790
     22  C         19.9430  -24.6760   -8.3210 C.3     1  UNL1        0.0390
     23  C         21.1110  -24.0680   -9.0890 C.3     1  UNL1        0.0030
     24  C         21.6020  -22.7450   -8.4960 C.3     1  UNL1        0.0010
     25  C         20.8670  -22.3410   -7.2210 C.3     1  UNL1        0.0130
     26  C         19.3550  -22.3270   -7.4550 C.3     1  UNL1        0.0640
     27  C         18.5580  -22.2530   -6.2180 C.ar    1  UNL1        0.0680
     28  C         17.8150  -23.3360   -6.0830 C.ar    1  UNL1        0.1590
     29  C         18.4620  -21.1920   -5.2210 C.ar    1  UNL1        0.2600
     30  N         16.9640  -23.5190   -5.0510 N.ar    1  UNL1       -0.2880
     31  O         17.9240  -24.2890   -7.0670 O.3     1  UNL1       -0.3230
     32  C         16.7970  -22.5710   -4.0740 C.ar    1  UNL1        0.3290
     33  H         16.4160  -24.3660   -4.9820 H       1  UNL1        0.1720
     34  O         15.9980  -22.7190   -3.1530 O.2     1  UNL1       -0.2470
     35  N         17.5760  -21.4440   -4.2010 N.ar    1  UNL1       -0.2750
     36  H         17.4730  -20.7340   -3.4910 H       1  UNL1        0.1730
     37  O         19.1190  -20.1620   -5.3040 O.2     1  UNL1       -0.2670
@<TRIPOS>BOND
     1    15    14    2
     2    16    14    2
     3    14    17    1
     4    14    11    1
     5    10    11    2
     6    10     9    1
     7    19    17    1
     8    17    18    1
     9    11    12    1
    10     9     8    2
    11    12    13    2
    12     6     3    1
    13     6     7    1
    14     4     3    2
    15     8    13    1
    16     8     7    1
    17     3     2   am
    18     2     5    1
    19     2     1    1
    20     1    20    1
    21    20    21    1
    22    23    24    1
    23    23    22    1
    24    24    25    1
    25    22    21    1
    26    21    26    1
    27    21    31    1
    28    26    25    1
    29    26    27    1
    30    31    28    1
    31    27    28   ar
    32    27    29   ar
    33    28    30   ar
    34    37    29    2
    35    29    35   ar
    36    30    33    1
    37    30    32   ar
    38    35    32   ar
    39    35    36    1
    40    32    34    2
