@<TRIPOS>MOLECULE
56465_out_ligand_01.pdbqt
 30 34 0 0 0
SMALL
GASTEIGER

@<TRIPOS>ATOM
      1  N         18.1840  -23.2920   -9.0560 N.3     1  UNL1        0.0930
      2  C         17.2450  -22.1810   -8.9290 C.3     1  UNL1        0.2730
      3  C         16.7170  -21.7710  -10.3100 C.3     1  UNL1        0.0310
      4  C         17.7780  -21.8370  -11.4140 C.3     1  UNL1        0.0080
      5  C         19.1850  -21.7710  -10.8160 C.3     1  UNL1        0.0200
      6  C         19.3960  -22.9230   -9.8100 C.3     1  UNL1        0.2770
      7  C         20.3110  -21.6810  -11.8640 C.3     1  UNL1        0.0670
      8  C         21.7200  -21.7190  -11.3330 C.2     1  UNL1        0.0530
      9  C         22.0200  -21.2710  -10.0480 C.2     1  UNL1        0.1430
     10  N         23.2740  -21.2710   -9.5410 N.2     1  UNL1       -0.2690
     11  C         24.2330  -21.7490  -10.3720 C.2     1  UNL1        0.1510
     12  C         23.9520  -22.1990  -11.6530 C.2     1  UNL1        0.1200
     13  N         22.6890  -22.1860  -12.1630 N.2     1  UNL1       -0.2470
     14  C         24.9860  -22.7150  -12.5370 C.2     1  UNL1        0.1570
     15  N         25.9310  -22.0380  -13.1680 N.2     1  UNL1       -0.2400
     16  C         26.6550  -22.9670  -13.8720 C.2     1  UNL1        0.1360
     17  C         26.1520  -24.2300  -13.6720 C.2     1  UNL1        0.1090
     18  N         25.0950  -24.0560  -12.8250 N.pl3   1  UNL1       -0.3470
     19  H         24.4760  -24.7620  -12.4490 H       1  UNL1        0.1670
     20  C         18.5060  -23.8860   -7.7480 C.3     1  UNL1        0.3110
     21  C         18.5460  -22.8690   -6.6220 C.2     1  UNL1       -0.0180
     22  C         19.5530  -21.8790   -6.6300 C.2     1  UNL1        0.0100
     23  C         19.6390  -20.9090   -5.6330 C.2     1  UNL1        0.0030
     24  C         18.7230  -20.8830   -4.5820 C.2     1  UNL1        0.0300
     25  C         17.7240  -21.8610   -4.5700 C.2     1  UNL1        0.0420
     26  N         16.7030  -22.0640   -3.6690 N.pl3   1  UNL1       -0.3650
     27  C         17.6120  -22.8460   -5.5550 C.2     1  UNL1       -0.0000
     28  C         15.9450  -23.1400   -4.0430 C.2     1  UNL1        0.0890
     29  H         16.5440  -21.4930   -2.8500 H       1  UNL1        0.1650
     30  C         16.4820  -23.6440   -5.2040 C.2     1  UNL1        0.0310
@<TRIPOS>BOND
     1    16    17    2
     2    16    15    1
     3    17    18    1
     4    15    14    2
     5    18    14    1
     6    18    19    1
     7    14    12    1
     8    13    12    1
     9    13     8    2
    10     7     8    1
    11     7     5    1
    12    12    11    2
    13     4     5    1
    14     4     3    1
    15     8     9    1
    16     5     6    1
    17    11    10    1
    18     3     2    1
    19     9    10    2
    20     6     1    1
    21     1     2    1
    22     1    20    1
    23    20    21    1
    24    22    21    2
    25    22    23    1
    26    21    27    1
    27    23    24    2
    28    27    30    1
    29    27    25    2
    30    30    28    2
    31    24    25    1
    32    25    26    1
    33    28    26    1
    34    26    29    1
