@<TRIPOS>MOLECULE
564_out_ligand_01.pdbqt
 30 32 0 0 0
SMALL
GASTEIGER

@<TRIPOS>ATOM
      1  C         18.6350  -22.1050  -10.1830 C.2     1  UNL1        0.0330
      2  C         18.6420  -21.4060  -11.3990 C.2     1  UNL1        0.0170
      3  C         19.8490  -21.0290  -11.9930 C.2     1  UNL1        0.0030
      4  C         21.0560  -21.3360  -11.3700 C.2     1  UNL1        0.0250
      5  C         21.0470  -22.0040  -10.1420 C.2     1  UNL1        0.0800
      6  C         19.8440  -22.4000   -9.5450 C.2     1  UNL1        0.0420
      7  C         17.3220  -22.4850   -9.5930 C.2     1  UNL1        0.2510
      8  O         16.2840  -22.0770  -10.1010 O.2     1  UNL1       -0.2680
      9  N         17.3650  -23.3210   -8.4980 N.am    1  UNL1       -0.3530
     10  H         18.2260  -23.7970   -8.2690 H       1  UNL1        0.1630
     11  C         16.1560  -23.8620   -7.9140 C.3     1  UNL1        0.1640
     12  C         16.0020  -23.4270   -6.4850 C.2     1  UNL1       -0.0020
     13  C         14.9510  -22.5800   -6.1020 C.2     1  UNL1        0.0120
     14  C         14.8040  -22.1930   -4.7660 C.2     1  UNL1        0.0010
     15  C         15.6990  -22.6530   -3.8000 C.2     1  UNL1        0.0030
     16  C         16.7410  -23.5030   -4.1690 C.2     1  UNL1        0.0430
     17  C         16.8810  -23.8830   -5.5010 C.2     1  UNL1        0.1240
     18  F         17.8820  -24.7120   -5.8320 F       1  UNL1       -0.2050
     19  S         22.5780  -22.3950   -9.3370 S.O2    1  UNL1        0.2630
     20  O         22.5800  -21.6960   -8.0680 O.2     1  UNL1       -0.2000
     21  O         22.7920  -23.8240   -9.4000 O.2     1  UNL1       -0.2000
     22  N         23.7160  -21.6070  -10.3070 N.pl3   1  UNL1       -0.2810
     23  H         24.2080  -20.8900   -9.7720 H       1  UNL1        0.1790
     24  C         24.4910  -22.3980  -11.1970 C.2     1  UNL1        0.0420
     25  C         24.0270  -22.6560  -12.4870 C.2     1  UNL1        0.0310
     26  C         24.8120  -23.4010  -13.3710 C.2     1  UNL1        0.0210
     27  C         26.0570  -23.8760  -12.9580 C.2     1  UNL1        0.0110
     28 BR         27.1200  -24.8820  -14.1540 Br      1  UNL1       -0.0510
     29  C         26.5250  -23.6130  -11.6710 C.2     1  UNL1        0.0210
     30  C         25.7400  -22.8680  -10.7880 C.2     1  UNL1        0.0310
@<TRIPOS>BOND
     1    28    27    1
     2    26    27    2
     3    26    25    1
     4    27    29    1
     5    25    24    2
     6     3     2    1
     7     3     4    2
     8    29    30    2
     9     2     1    2
    10     4     5    1
    11    24    30    1
    12    24    22    1
    13    22    23    1
    14    22    19    1
    15     1     7    1
    16     1     6    1
    17     5     6    2
    18     5    19    1
    19     8     7    2
    20     7     9   am
    21    21    19    2
    22    19    20    2
    23     9    10    1
    24     9    11    1
    25    11    12    1
    26    12    13    2
    27    12    17    1
    28    13    14    1
    29    18    17    1
    30    17    16    2
    31    14    15    2
    32    16    15    1
