@<TRIPOS>MOLECULE
56500_out_ligand_01.pdbqt
 37 41 0 0 0
SMALL
GASTEIGER

@<TRIPOS>ATOM
      1  O         22.1470  -24.3000   -8.9690 O.2     1  UNL1       -0.2670
      2  C         21.3970  -23.3380   -9.0920 C.2     1  UNL1        0.2560
      3  N         21.4590  -22.3600  -10.0660 N.am    1  UNL1       -0.3230
      4  H         20.8950  -21.5340   -9.9200 H       1  UNL1        0.1690
      5  C         20.3260  -23.1410   -8.0730 C.2     1  UNL1        0.0320
      6  C         20.2620  -21.9190   -7.3980 C.2     1  UNL1        0.0170
      7  C         19.2820  -21.7040   -6.4260 C.2     1  UNL1        0.0110
      8  C         18.3550  -22.7080   -6.1070 C.2     1  UNL1       -0.0250
      9  C         18.4420  -23.9410   -6.7800 C.2     1  UNL1        0.0110
     10  C         19.4200  -24.1590   -7.7540 C.2     1  UNL1        0.0170
     11  C         17.3110  -22.4560   -5.0320 C.3     1  UNL1        0.1830
     12  S         17.7450  -23.3030   -3.4900 S.3     1  UNL1       -0.1300
     13  C         16.2610  -24.3260   -3.4830 C.3     1  UNL1        0.1790
     14  C         15.3690  -23.8320   -4.5950 C.2     1  UNL1        0.2300
     15  O         14.2210  -24.2330   -4.7530 O.2     1  UNL1       -0.2720
     16  N         15.9900  -22.9060   -5.4090 N.am    1  UNL1       -0.3280
     17  C         15.2480  -22.1980   -6.4390 C.3     1  UNL1        0.1920
     18  C         15.6540  -22.6970   -7.7780 C.2     1  UNL1        0.0700
     19  C         15.4790  -23.9000   -8.4300 C.2     1  UNL1        0.0360
     20  C         16.0860  -23.7570   -9.7000 C.2     1  UNL1        0.0270
     21  C         16.5950  -22.4800   -9.7410 C.2     1  UNL1        0.1420
     22  O         16.3330  -21.8250   -8.5800 O.2     1  UNL1       -0.3250
     23  C         22.3060  -22.3350  -11.1930 C.2     1  UNL1        0.0350
     24  C         23.4820  -23.0850  -11.2980 C.2     1  UNL1        0.0310
     25  C         24.2620  -23.0240  -12.4570 C.2     1  UNL1        0.0270
     26  C         23.8670  -22.2030  -13.5140 C.2     1  UNL1        0.0790
     27  C         22.6940  -21.4520  -13.4300 C.2     1  UNL1        0.0270
     28  C         21.9140  -21.5280  -12.2720 C.2     1  UNL1        0.0310
     29  S         24.8790  -22.1130  -14.9690 S.O2    1  UNL1        0.2600
     30  O         25.4550  -23.4250  -15.1660 O.2     1  UNL1       -0.2000
     31  O         24.1200  -21.4580  -16.0140 O.2     1  UNL1       -0.2000
     32  N         26.1230  -21.0380  -14.5030 N.3     1  UNL1       -0.3070
     33  C         26.9340  -21.4400  -13.3180 C.3     1  UNL1        0.1350
     34  C         26.7380  -20.4890  -12.1460 C.3     1  UNL1        0.0210
     35  C         27.1210  -19.0570  -12.5120 C.3     1  UNL1        0.0030
     36  C         26.8150  -18.7270  -13.9720 C.3     1  UNL1        0.0210
     37  C         25.7070  -19.6090  -14.5260 C.3     1  UNL1        0.1350
@<TRIPOS>BOND
     1    31    29    2
     2    30    29    2
     3    29    32    1
     4    29    26    1
     5    37    32    1
     6    37    36    1
     7    32    33    1
     8    36    35    1
     9    26    27    2
    10    26    25    1
    11    27    28    1
    12    33    34    1
    13    35    34    1
    14    25    24    2
    15    28    23    2
    16    24    23    1
    17    23     3    1
    18     3     4    1
    19     3     2   am
    20    21    20    2
    21    21    22    1
    22    20    19    1
    23     2     1    2
    24     2     5    1
    25    22    18    1
    26    19    18    2
    27     5    10    2
    28     5     6    1
    29    18    17    1
    30    10     9    1
    31     6     7    2
    32     9     8    2
    33    17    16    1
    34     7     8    1
    35     8    11    1
    36    16    11    1
    37    16    14   am
    38    11    12    1
    39    15    14    2
    40    14    13    1
    41    12    13    1
