@<TRIPOS>MOLECULE
56503_out_ligand_01.pdbqt
 40 43 0 0 0
SMALL
GASTEIGER

@<TRIPOS>ATOM
      1  C         21.8550  -23.5330   -9.8130 C.2     1  UNL1        0.2560
      2  O         21.8330  -24.5300   -9.1010 O.2     1  UNL1       -0.2670
      3  N         22.9690  -22.9450  -10.3750 N.am    1  UNL1       -0.3220
      4  H         22.8110  -22.1990  -11.0540 H       1  UNL1        0.1690
      5  C         20.5570  -22.8740  -10.1460 C.2     1  UNL1        0.0330
      6  C         19.4400  -23.1550   -9.3510 C.2     1  UNL1        0.0420
      7  C         18.2010  -22.5580   -9.6340 C.2     1  UNL1        0.0810
      8  C         18.0670  -21.6580  -10.7100 C.2     1  UNL1       -0.0390
      9  C         19.2070  -21.3660  -11.4790 C.2     1  UNL1        0.0090
     10  C         16.7800  -20.9600  -11.0540 C.3     1  UNL1        0.0500
     11  C         20.4390  -21.9660  -11.2030 C.2     1  UNL1        0.0170
     12  S         16.8210  -22.9690   -8.5720 S.O2    1  UNL1        0.2460
     13  O         16.3840  -21.7560   -7.9140 O.2     1  UNL1       -0.2060
     14  O         15.9060  -23.7930   -9.3300 O.2     1  UNL1       -0.2060
     15  N         17.6120  -23.8960   -7.3730 N.pl3   1  UNL1       -0.1810
     16  H         18.6140  -23.7570   -7.5070 H       1  UNL1        0.1460
     17  C         17.2330  -23.5440   -6.0330 C.2     1  UNL1        0.0230
     18  C         16.0140  -23.9910   -5.5270 C.2     1  UNL1        0.0240
     19  C         15.6210  -23.6230   -4.2410 C.2     1  UNL1        0.0020
     20  C         16.4380  -22.7930   -3.4710 C.2     1  UNL1        0.0070
     21  C         17.6470  -22.3100   -3.9880 C.2     1  UNL1       -0.0600
     22  C         18.5210  -21.4210   -3.1530 C.3     1  UNL1        0.0480
     23  C         18.0430  -22.6960   -5.2750 C.2     1  UNL1        0.0310
     24  C         24.3320  -23.3120  -10.2380 C.2     1  UNL1        0.0500
     25  C         24.8000  -24.0620   -9.1530 C.2     1  UNL1        0.0300
     26  C         26.1450  -24.4310   -9.0610 C.2     1  UNL1        0.0020
     27  C         27.0450  -24.0610  -10.0560 C.2     1  UNL1        0.0010
     28  C         26.6050  -23.3030  -11.1390 C.2     1  UNL1        0.0190
     29  C         25.2590  -22.9050  -11.2280 C.2     1  UNL1        0.0580
     30  C         24.8160  -22.0500  -12.3750 C.2     1  UNL1        0.2540
     31  O         23.7110  -21.5120  -12.3540 O.2     1  UNL1       -0.2680
     32  N         25.7270  -21.8620  -13.3940 N.am    1  UNL1       -0.3530
     33  H         26.6960  -22.0930  -13.2220 H       1  UNL1        0.1630
     34  C         25.4770  -20.9190  -14.4620 C.3     1  UNL1        0.1610
     35  C         25.1510  -21.6380  -15.7460 C.2     1  UNL1       -0.0410
     36  C         24.7790  -22.9900  -15.7250 C.2     1  UNL1        0.0090
     37  C         24.4480  -23.6530  -16.9060 C.2     1  UNL1        0.0010
     38  C         24.4790  -22.9700  -18.1200 C.2     1  UNL1        0.0000
     39  C         24.8400  -21.6240  -18.1530 C.2     1  UNL1        0.0010
     40  C         25.1710  -20.9590  -16.9720 C.2     1  UNL1        0.0090
@<TRIPOS>BOND
     1    39    38    2
     2    39    40    1
     3    38    37    1
     4    40    35    2
     5    37    36    2
     6    35    36    1
     7    35    34    1
     8    34    32    1
     9    32    33    1
    10    32    30   am
    11    30    31    2
    12    30    29    1
    13     9    11    1
    14     9     8    2
    15    29    28    1
    16    29    24    2
    17    11     5    2
    18    28    27    2
    19    10     8    1
    20     4     3    1
    21     8     7    1
    22     3    24    1
    23     3     1   am
    24    24    25    1
    25     5     1    1
    26     5     6    1
    27    27    26    1
    28     1     2    2
    29     7     6    2
    30     7    12    1
    31    14    12    2
    32    25    26    2
    33    12    13    2
    34    12    15    1
    35    16    15    1
    36    15    17    1
    37    17    18    2
    38    17    23    1
    39    18    19    1
    40    23    21    2
    41    19    20    2
    42    21    20    1
    43    21    22    1
