@<TRIPOS>MOLECULE
56501_out_ligand_01.pdbqt
 43 46 0 0 0
SMALL
GASTEIGER

@<TRIPOS>ATOM
      1  C         20.9670  -21.4060   -6.8650 C.2     1  UNL1        0.2560
      2  O         21.7050  -20.5220   -6.4510 O.2     1  UNL1       -0.2670
      3  N         21.2170  -22.3110   -7.8790 N.am    1  UNL1       -0.3230
      4  H         20.5440  -23.0570   -8.0050 H       1  UNL1        0.1690
      5  C         19.6560  -21.5860   -6.1890 C.2     1  UNL1        0.0340
      6  C         18.6880  -22.3860   -6.8050 C.2     1  UNL1        0.0440
      7  C         17.4350  -22.5900   -6.1970 C.2     1  UNL1        0.1020
      8  C         17.1570  -21.9880   -4.9670 C.2     1  UNL1        0.0570
      9  C         18.1440  -21.2030   -4.3500 C.2     1  UNL1        0.0260
     10 CL         15.6830  -22.1420   -4.0900 Cl      1  UNL1       -0.0830
     11  C         19.3870  -20.9990   -4.9520 C.2     1  UNL1        0.0190
     12  S         16.2610  -23.5620   -7.1120 S.O2    1  UNL1        0.2650
     13  O         15.9230  -24.7630   -6.3830 O.2     1  UNL1       -0.2000
     14  O         15.2070  -22.6560   -7.5190 O.2     1  UNL1       -0.2000
     15  N         17.0840  -23.9590   -8.5230 N.pl3   1  UNL1       -0.2800
     16  H         16.9330  -24.9190   -8.8320 H       1  UNL1        0.1790
     17  C         17.4020  -22.9570   -9.4800 C.2     1  UNL1        0.0490
     18  C         16.4370  -21.9850   -9.7620 C.2     1  UNL1        0.0310
     19  C         16.6840  -21.0040  -10.7170 C.2     1  UNL1        0.0030
     20  C         17.8960  -20.9940  -11.4020 C.2     1  UNL1        0.0070
     21  C         18.8770  -21.9640  -11.1400 C.2     1  UNL1       -0.0540
     22  C         20.1660  -21.9080  -11.9180 C.3     1  UNL1        0.0490
     23  C         18.6410  -22.9540  -10.1530 C.2     1  UNL1       -0.0290
     24  C         19.6960  -23.9980   -9.8880 C.3     1  UNL1        0.0510
     25  C         22.3670  -22.3840   -8.6930 C.2     1  UNL1        0.0350
     26  C         23.0470  -23.6120   -8.7260 C.2     1  UNL1        0.0310
     27  C         24.1960  -23.7700   -9.5060 C.2     1  UNL1        0.0270
     28  C         24.6690  -22.6940  -10.2560 C.2     1  UNL1        0.0750
     29  C         23.9950  -21.4710  -10.2480 C.2     1  UNL1        0.0270
     30  C         22.8470  -21.3200   -9.4630 C.2     1  UNL1        0.0310
     31  S         26.1190  -22.8820  -11.2630 S.O2    1  UNL1        0.2450
     32  O         26.5270  -21.5730  -11.7280 O.2     1  UNL1       -0.2060
     33  O         27.0250  -23.7480  -10.5410 O.2     1  UNL1       -0.2060
     34  N         25.5390  -23.7900  -12.5750 N.pl3   1  UNL1       -0.1800
     35  H         25.8270  -24.7630  -12.4420 H       1  UNL1        0.1460
     36  C         25.7700  -23.2540  -13.8820 C.2     1  UNL1        0.0440
     37  C         26.9050  -23.6530  -14.5890 C.2     1  UNL1        0.0280
     38  C         27.1210  -23.1750  -15.8850 C.2     1  UNL1        0.0260
     39  C         26.1920  -22.3160  -16.4750 C.2     1  UNL1        0.0350
     40 CL         26.4620  -21.7400  -18.0760 Cl      1  UNL1       -0.0840
     41  C         25.0510  -21.9180  -15.7800 C.2     1  UNL1        0.0490
     42  C         24.8400  -22.3890  -14.4850 C.2     1  UNL1        0.0570
     43 CL         23.4340  -21.8640  -13.6340 Cl      1  UNL1       -0.0820
@<TRIPOS>BOND
     1    40    39    1
     2    39    38    2
     3    39    41    1
     4    38    37    1
     5    41    42    2
     6    37    36    2
     7    42    36    1
     8    42    43    1
     9    36    34    1
    10    34    35    1
    11    34    31    1
    12    22    21    1
    13    32    31    2
    14    20    21    2
    15    20    19    1
    16    31    33    2
    17    31    28    1
    18    21    23    1
    19    19    18    2
    20    28    29    2
    21    28    27    1
    22    29    30    1
    23    23    24    1
    24    23    17    2
    25    18    17    1
    26    27    26    2
    27    17    15    1
    28    30    25    2
    29    16    15    1
    30    26    25    1
    31    25     3    1
    32    15    12    1
    33     4     3    1
    34     3     1   am
    35    14    12    2
    36    12    13    2
    37    12     7    1
    38     1     2    2
    39     1     5    1
    40     6     7    1
    41     6     5    2
    42     7     8    2
    43     5    11    1
    44     8     9    1
    45     8    10    1
    46    11     9    2
