@<TRIPOS>MOLECULE
56514_out_ligand_01.pdbqt
 32 34 0 0 0
SMALL
GASTEIGER

@<TRIPOS>ATOM
      1  C         19.8890  -23.3400   -9.4080 C.2     1  UNL1        0.0330
      2  C         19.3680  -22.5330  -10.4200 C.2     1  UNL1        0.0170
      3  C         17.9940  -22.2810  -10.4730 C.2     1  UNL1        0.0090
      4  C         17.1150  -22.8370   -9.5260 C.2     1  UNL1       -0.0390
      5  C         15.6500  -22.5210   -9.6440 C.3     1  UNL1        0.0500
      6  C         17.6550  -23.6450   -8.5060 C.2     1  UNL1        0.0810
      7  C         19.0350  -23.8980   -8.4530 C.2     1  UNL1        0.0420
      8  S         16.6360  -24.3680   -7.2220 S.O2    1  UNL1        0.2460
      9  O         17.5050  -25.0730   -6.3060 O.2     1  UNL1       -0.2060
     10  O         15.5250  -25.0340   -7.8680 O.2     1  UNL1       -0.2060
     11  N         16.0160  -22.9530   -6.4980 N.pl3   1  UNL1       -0.1810
     12  H         15.0770  -23.1590   -6.1600 H       1  UNL1        0.1460
     13  C         16.8470  -22.4010   -5.4630 C.2     1  UNL1        0.0290
     14  C         17.9350  -21.6100   -5.8490 C.2     1  UNL1        0.0310
     15  C         18.8140  -21.0830   -4.8960 C.2     1  UNL1       -0.0600
     16  C         19.9670  -20.2230   -5.3220 C.3     1  UNL1        0.0480
     17  C         18.5770  -21.3420   -3.5430 C.2     1  UNL1        0.0070
     18  C         17.4990  -22.1420   -3.1530 C.2     1  UNL1        0.0090
     19  C         16.6190  -22.6820   -4.1050 C.2     1  UNL1       -0.0400
     20  C         15.4970  -23.5640   -3.6310 C.3     1  UNL1        0.0500
     21  C         21.3380  -23.6590   -9.3320 C.2     1  UNL1        0.2510
     22  N         22.1940  -22.7140   -9.8520 N.am    1  UNL1       -0.3530
     23  H         21.8340  -21.7910  -10.0500 H       1  UNL1        0.1630
     24  O         21.7000  -24.7050   -8.8080 O.2     1  UNL1       -0.2680
     25  C         23.6270  -22.8260   -9.6860 C.3     1  UNL1        0.1610
     26  C         24.3480  -22.3600  -10.9250 C.2     1  UNL1       -0.0410
     27  C         25.2810  -21.3170  -10.8480 C.2     1  UNL1        0.0090
     28  C         25.9400  -20.8640  -11.9930 C.2     1  UNL1        0.0070
     29  C         25.6680  -21.4380  -13.2390 C.2     1  UNL1       -0.0620
     30  C         26.4000  -20.9750  -14.4660 C.3     1  UNL1        0.0480
     31  C         24.7410  -22.4830  -13.3180 C.2     1  UNL1        0.0070
     32  C         24.0800  -22.9370  -12.1730 C.2     1  UNL1        0.0090
@<TRIPOS>BOND
     1    30    29    1
     2    31    29    2
     3    31    32    1
     4    29    28    1
     5    32    26    2
     6    28    27    2
     7    26    27    1
     8    26    25    1
     9     3     2    1
    10     3     4    2
    11     2     1    2
    12    23    22    1
    13    22    25    1
    14    22    21   am
    15     5     4    1
    16     4     6    1
    17     1    21    1
    18     1     7    1
    19    21    24    2
    20     6     7    2
    21     6     8    1
    22    10     8    2
    23     8    11    1
    24     8     9    2
    25    11    12    1
    26    11    13    1
    27    14    13    2
    28    14    15    1
    29    13    19    1
    30    16    15    1
    31    15    17    2
    32    19    20    1
    33    19    18    2
    34    17    18    1
