@<TRIPOS>MOLECULE
56517_out_ligand_01.pdbqt
 33 35 0 0 0
SMALL
GASTEIGER

@<TRIPOS>ATOM
      1  C         17.4520  -23.2200   -8.8480 C.2     1  UNL1        0.0860
      2  C         18.8580  -23.2340   -8.8980 C.2     1  UNL1        0.0420
      3  C         19.5390  -22.4970   -9.8680 C.2     1  UNL1        0.0330
      4  C         18.8190  -21.7380  -10.7950 C.2     1  UNL1        0.0170
      5  C         17.4220  -21.7420  -10.7580 C.2     1  UNL1        0.0090
      6  C         16.7130  -22.4830   -9.7930 C.2     1  UNL1       -0.0390
      7  C         15.2120  -22.4290   -9.8290 C.3     1  UNL1        0.0500
      8  C         21.0260  -22.5030   -9.8470 C.2     1  UNL1        0.2560
      9  O         21.5780  -22.5280   -8.7550 O.2     1  UNL1       -0.2670
     10  N         21.6230  -22.5180  -11.0950 N.am    1  UNL1       -0.3220
     11  H         20.9980  -22.6350  -11.8790 H       1  UNL1        0.1690
     12  C         23.0080  -22.4620  -11.3950 C.2     1  UNL1        0.0430
     13  C         23.9710  -23.0000  -10.5250 C.2     1  UNL1        0.0300
     14  C         25.3390  -22.9040  -10.7940 C.2     1  UNL1        0.0050
     15  C         25.7740  -22.2450  -11.9320 C.2     1  UNL1        0.0370
     16  C         24.8230  -21.7000  -12.8040 C.2     1  UNL1        0.1110
     17  C         23.4310  -21.8190  -12.5840 C.2     1  UNL1       -0.0020
     18  C         22.4350  -21.2680  -13.5750 C.3     1  UNL1        0.0530
     19  N         25.3420  -20.9680  -13.9500 N.pl3   1  UNL1       -0.1150
     20  O         25.5350  -19.7530  -13.8060 O.2     1  UNL1       -0.5320
     21  O         25.5680  -21.6170  -14.9790 O.2     1  UNL1       -0.5320
     22  S         16.7180  -24.1850   -7.5290 S.O2    1  UNL1        0.2630
     23  O         17.8150  -24.7910   -6.8030 O.2     1  UNL1       -0.2000
     24  O         15.6390  -24.9960   -8.0440 O.2     1  UNL1       -0.2000
     25  N         16.0740  -23.0010   -6.5090 N.pl3   1  UNL1       -0.2810
     26  H         15.1010  -23.1870   -6.2690 H       1  UNL1        0.1790
     27  C         16.9030  -22.4140   -5.5130 C.2     1  UNL1        0.0430
     28  C         16.6380  -22.6850   -4.1700 C.2     1  UNL1        0.0300
     29  C         17.4550  -22.1420   -3.1780 C.2     1  UNL1        0.0030
     30  C         18.5360  -21.3310   -3.5280 C.2     1  UNL1        0.0070
     31  C         18.8130  -21.0610   -4.8720 C.2     1  UNL1       -0.0600
     32  C         19.9500  -20.1590   -5.2520 C.3     1  UNL1        0.0480
     33  C         17.9790  -21.5980   -5.8630 C.2     1  UNL1        0.0370
@<TRIPOS>BOND
     1    21    19    2
     2    19    20    2
     3    19    16    1
     4    18    17    1
     5    16    17    1
     6    16    15    2
     7    17    12    2
     8    15    14    1
     9    11    10    1
    10    12    10    1
    11    12    13    1
    12    10     8   am
    13     4     5    2
    14     4     3    1
    15    14    13    2
    16     5     6    1
    17     3     8    1
    18     3     2    2
    19     8     9    2
    20     7     6    1
    21     6     1    2
    22     2     1    1
    23     1    22    1
    24    24    22    2
    25    22    23    2
    26    22    25    1
    27    25    26    1
    28    25    27    1
    29    33    27    2
    30    33    31    1
    31    27    28    1
    32    32    31    1
    33    31    30    2
    34    28    29    2
    35    30    29    1
