@<TRIPOS>MOLECULE
56528_out_ligand_01.pdbqt
 31 33 0 0 0
SMALL
GASTEIGER

@<TRIPOS>ATOM
      1  C         17.5800  -22.8950   -9.1130 C.2     1  UNL1        0.0860
      2  C         18.9710  -22.8820   -9.3120 C.2     1  UNL1        0.0420
      3  C         19.5240  -22.1660  -10.3770 C.2     1  UNL1        0.0330
      4  C         18.6900  -21.4510  -11.2410 C.2     1  UNL1        0.0170
      5  C         17.3060  -21.4720  -11.0500 C.2     1  UNL1        0.0090
      6  C         16.7270  -22.1880   -9.9860 C.2     1  UNL1       -0.0390
      7  C         15.2290  -22.1730   -9.8590 C.3     1  UNL1        0.0500
      8  S         16.9650  -23.8750   -7.7450 S.O2    1  UNL1        0.2630
      9  O         15.8480  -24.6650   -8.2160 O.2     1  UNL1       -0.2000
     10  O         18.0970  -24.5240   -7.1180 O.2     1  UNL1       -0.2000
     11  N         16.3250  -22.7200   -6.6980 N.pl3   1  UNL1       -0.2800
     12  H         15.7200  -22.0510   -7.1680 H       1  UNL1        0.1790
     13  C         17.0570  -22.2960   -5.5500 C.2     1  UNL1        0.0480
     14  C         18.1640  -21.4550   -5.7040 C.2     1  UNL1        0.0300
     15  C         18.8670  -20.9970   -4.5910 C.2     1  UNL1        0.0020
     16  C         18.4760  -21.3880   -3.3150 C.2     1  UNL1        0.0010
     17  C         17.3880  -22.2450   -3.1530 C.2     1  UNL1        0.0090
     18  C         16.6710  -22.7160   -4.2650 C.2     1  UNL1       -0.0350
     19  C         15.5010  -23.6310   -4.0360 C.3     1  UNL1        0.0500
     20  C         21.0030  -22.1590  -10.5420 C.2     1  UNL1        0.2560
     21  O         21.6970  -22.1490   -9.5340 O.2     1  UNL1       -0.2670
     22  N         21.4400  -22.1990  -11.8530 N.am    1  UNL1       -0.3230
     23  H         20.7340  -22.3420  -12.5640 H       1  UNL1        0.1690
     24  C         22.7740  -22.1610  -12.3100 C.2     1  UNL1        0.0360
     25  C         23.0400  -21.3680  -13.4340 C.2     1  UNL1        0.0310
     26  C         24.3370  -21.2720  -13.9470 C.2     1  UNL1        0.0230
     27  C         25.3850  -21.9650  -13.3390 C.2     1  UNL1        0.0320
     28 BR         27.1150  -21.7780  -14.0980 Br      1  UNL1       -0.0490
     29  C         25.1300  -22.7560  -12.2140 C.2     1  UNL1        0.0530
     30 CL         26.3740  -23.6380  -11.4000 Cl      1  UNL1       -0.0830
     31  C         23.8280  -22.8500  -11.7040 C.2     1  UNL1        0.0540
@<TRIPOS>BOND
     1    28    27    1
     2    26    25    1
     3    26    27    2
     4    25    24    2
     5    27    29    1
     6    23    22    1
     7    24    22    1
     8    24    31    1
     9    29    31    2
    10    29    30    1
    11    22    20   am
    12     4     5    2
    13     4     3    1
    14     5     6    1
    15    20     3    1
    16    20    21    2
    17     3     2    2
    18     6     7    1
    19     6     1    2
    20     2     1    1
    21     1     8    1
    22     9     8    2
    23     8    10    2
    24     8    11    1
    25    12    11    1
    26    11    13    1
    27    14    13    2
    28    14    15    1
    29    13    18    1
    30    15    16    2
    31    18    19    1
    32    18    17    2
    33    16    17    1
