@<TRIPOS>MOLECULE
56576_out_ligand_01.pdbqt
 44 47 0 0 0
SMALL
GASTEIGER

@<TRIPOS>ATOM
      1  C         22.3730  -22.1580  -10.5330 C.2     1  UNL1        0.2560
      2  O         21.5490  -21.3660  -10.9730 O.2     1  UNL1       -0.2670
      3  N         22.3130  -22.8440   -9.3340 N.am    1  UNL1       -0.3230
      4  H         23.1400  -23.3570   -9.0570 H       1  UNL1        0.1690
      5  C         21.2510  -22.8410   -8.4040 C.2     1  UNL1        0.0350
      6  C         20.3620  -23.9240   -8.4410 C.2     1  UNL1        0.0310
      7  C         19.2770  -23.9900   -7.5610 C.2     1  UNL1        0.0270
      8  C         19.0810  -22.9630   -6.6370 C.2     1  UNL1        0.0800
      9  C         19.9530  -21.8760   -6.5900 C.2     1  UNL1        0.0270
     10  C         21.0360  -21.8200   -7.4740 C.2     1  UNL1        0.0310
     11  S         17.7020  -23.0340   -5.5210 S.O2    1  UNL1        0.2630
     12  O         17.4200  -24.4180   -5.2130 O.2     1  UNL1       -0.2000
     13  O         17.9730  -22.0670   -4.4780 O.2     1  UNL1       -0.2000
     14  N         16.4300  -22.3960   -6.4160 N.pl3   1  UNL1       -0.2810
     15  H         15.6060  -22.2560   -5.8340 H       1  UNL1        0.1790
     16  C         16.2440  -22.6670   -7.8030 C.2     1  UNL1        0.0430
     17  C         15.5980  -23.8040   -8.2870 C.2     1  UNL1        0.0300
     18  C         15.5140  -24.0380   -9.6610 C.2     1  UNL1        0.0030
     19  C         16.0940  -23.1480  -10.5620 C.2     1  UNL1        0.0160
     20  C         16.7780  -22.0190  -10.0970 C.2     1  UNL1        0.0500
     21  C         16.8500  -21.7920   -8.7110 C.2     1  UNL1        0.0460
     22  C         17.3950  -21.0430  -11.0680 C.3     1  UNL1        0.4170
     23  F         17.2970  -21.4510  -12.3650 F       1  UNL1       -0.1660
     24  F         18.7220  -20.8330  -10.8450 F       1  UNL1       -0.1660
     25  F         16.8070  -19.8160  -11.0130 F       1  UNL1       -0.1660
     26  C         23.5980  -22.4090  -11.3390 C.2     1  UNL1        0.0330
     27  C         23.5950  -22.0520  -12.6900 C.2     1  UNL1        0.0420
     28  C         24.7200  -22.3090  -13.4900 C.2     1  UNL1        0.0860
     29  C         25.8580  -22.9360  -12.9470 C.2     1  UNL1       -0.0390
     30  C         25.8410  -23.2810  -11.5840 C.2     1  UNL1        0.0090
     31  C         27.1010  -23.2350  -13.7390 C.3     1  UNL1        0.0500
     32  C         24.7210  -23.0290  -10.7870 C.2     1  UNL1        0.0170
     33  S         24.6380  -21.7960  -15.1990 S.O2    1  UNL1        0.2630
     34  O         23.6970  -20.7000  -15.2910 O.2     1  UNL1       -0.2000
     35  O         24.4720  -22.9650  -16.0360 O.2     1  UNL1       -0.2000
     36  N         26.1720  -21.1330  -15.4690 N.pl3   1  UNL1       -0.2810
     37  H         26.7540  -21.2390  -14.6400 H       1  UNL1        0.1790
     38  C         26.2400  -19.8860  -16.1510 C.2     1  UNL1        0.0430
     39  C         25.8650  -19.8170  -17.4910 C.2     1  UNL1        0.0300
     40  C         25.8820  -18.5900  -18.1520 C.2     1  UNL1        0.0030
     41  C         26.2670  -17.4350  -17.4720 C.2     1  UNL1        0.0070
     42  C         26.6330  -17.4950  -16.1200 C.2     1  UNL1       -0.0600
     43  C         27.0310  -16.2420  -15.3970 C.3     1  UNL1        0.0480
     44  C         26.6170  -18.7320  -15.4630 C.2     1  UNL1        0.0370
@<TRIPOS>BOND
     1    40    39    1
     2    40    41    2
     3    39    38    2
     4    41    42    1
     5    38    36    1
     6    38    44    1
     7    42    44    2
     8    42    43    1
     9    35    33    2
    10    36    33    1
    11    36    37    1
    12    34    33    2
    13    33    28    1
    14    31    29    1
    15    28    29    2
    16    28    27    1
    17    29    30    1
    18    27    26    2
    19    23    22    1
    20    30    32    2
    21    26    32    1
    22    26     1    1
    23    22    25    1
    24    22    24    1
    25    22    20    1
    26     2     1    2
    27    19    20    2
    28    19    18    1
    29     1     3   am
    30    20    21    1
    31    18    17    2
    32     3     4    1
    33     3     5    1
    34    21    16    2
    35     6     5    2
    36     6     7    1
    37     5    10    1
    38    17    16    1
    39    16    14    1
    40     7     8    2
    41    10     9    2
    42     8     9    1
    43     8    11    1
    44    14    15    1
    45    14    11    1
    46    11    12    2
    47    11    13    2
