@<TRIPOS>MOLECULE
56577_out_ligand_01.pdbqt
 42 45 0 0 0
SMALL
GASTEIGER

@<TRIPOS>ATOM
      1  C         23.0300  -22.8290   -9.3370 C.2     1  UNL1        0.0750
      2  C         22.6120  -21.8020   -8.4890 C.2     1  UNL1        0.0270
      3  C         21.4260  -21.9500   -7.7650 C.2     1  UNL1        0.0310
      4  C         20.6580  -23.1140   -7.8880 C.2     1  UNL1        0.0350
      5  C         21.1300  -24.1640   -8.6820 C.2     1  UNL1        0.0310
      6  C         22.3200  -24.0270   -9.4030 C.2     1  UNL1        0.0270
      7  N         19.4160  -23.1370   -7.2230 N.am    1  UNL1       -0.3230
      8  C         18.9530  -22.1910   -6.3300 C.2     1  UNL1        0.2580
      9  O         19.4800  -21.1310   -6.0130 O.2     1  UNL1       -0.2670
     10  H         18.9320  -24.0290   -7.2290 H       1  UNL1        0.1690
     11  C         17.7320  -22.5920   -5.5960 C.2     1  UNL1        0.0540
     12  C         17.8150  -23.0580   -4.2780 C.2     1  UNL1        0.0190
     13  C         16.6470  -23.4130   -3.6000 C.2     1  UNL1        0.0010
     14  C         15.4050  -23.2980   -4.2330 C.2     1  UNL1        0.0020
     15  C         15.3230  -22.8310   -5.5470 C.2     1  UNL1        0.0250
     16  C         16.4850  -22.4910   -6.2390 C.2     1  UNL1        0.0380
     17  N         16.3720  -21.9320   -7.5560 N.pl3   1  UNL1       -0.1800
     18  H         15.5870  -21.2710   -7.6580 H       1  UNL1        0.1460
     19  S         16.2960  -23.0490   -8.8340 S.O2    1  UNL1        0.2450
     20  O         14.9490  -23.0070   -9.3620 O.2     1  UNL1       -0.2060
     21  O         16.8950  -24.3010   -8.4170 O.2     1  UNL1       -0.2060
     22  C         17.3470  -22.2940  -10.0480 C.2     1  UNL1        0.0740
     23  C         18.5500  -22.9060  -10.4120 C.2     1  UNL1        0.0250
     24  C         19.3610  -22.3010  -11.3710 C.2     1  UNL1        0.0020
     25  C         18.9690  -21.0970  -11.9610 C.2     1  UNL1        0.0000
     26  C         17.7640  -20.4930  -11.5980 C.2     1  UNL1        0.0020
     27  C         16.9450  -21.0920  -10.6410 C.2     1  UNL1        0.0250
     28  S         24.4510  -22.5870  -10.3820 S.O2    1  UNL1        0.2450
     29  O         24.7560  -21.1710  -10.3710 O.2     1  UNL1       -0.2060
     30  O         25.4500  -23.5690  -10.0140 O.2     1  UNL1       -0.2060
     31  N         23.8580  -22.9390  -11.9350 N.pl3   1  UNL1       -0.1790
     32  H         23.7040  -23.9460  -12.0250 H       1  UNL1        0.1460
     33  C         24.5710  -22.3810  -13.0500 C.2     1  UNL1        0.0580
     34  C         25.2840  -23.2430  -13.9020 C.2     1  UNL1        0.0900
     35  C         26.0490  -22.6950  -14.9300 C.2     1  UNL1        0.0410
     36  C         26.0990  -21.3070  -15.1110 C.2     1  UNL1        0.0390
     37  C         25.3890  -20.4550  -14.2630 C.2     1  UNL1        0.0700
     38  C         24.6260  -20.9990  -13.2290 C.2     1  UNL1        0.0640
     39  O         25.1610  -24.5850  -13.6300 O.2     1  UNL1       -0.3540
     40  C         25.2260  -25.4680  -14.7460 C.3     1  UNL1        0.2100
     41  O         25.3660  -19.0890  -14.3380 O.2     1  UNL1       -0.3560
     42  C         26.4110  -18.4660  -15.0720 C.3     1  UNL1        0.2100
@<TRIPOS>BOND
     1    36    35    2
     2    36    37    1
     3    42    41    1
     4    35    34    1
     5    40    39    1
     6    41    37    1
     7    37    38    2
     8    34    39    1
     9    34    33    2
    10    38    33    1
    11    33    31    1
    12    32    31    1
    13    25    26    2
    14    25    24    1
    15    31    28    1
    16    26    27    1
    17    24    23    2
    18    27    22    2
    19    23    22    1
    20    28    29    2
    21    28    30    2
    22    28     1    1
    23    22    19    1
    24     6     1    2
    25     6     5    1
    26    20    19    2
    27     1     2    1
    28    19    21    2
    29    19    17    1
    30     5     4    2
    31     2     3    2
    32     4     3    1
    33     4     7    1
    34    18    17    1
    35    17    16    1
    36    10     7    1
    37     7     8   am
    38     8     9    2
    39     8    11    1
    40    16    11    2
    41    16    15    1
    42    11    12    1
    43    15    14    2
    44    12    13    2
    45    14    13    1
