@<TRIPOS>MOLECULE
56578_out_ligand_01.pdbqt
 37 40 0 0 0
SMALL
GASTEIGER

@<TRIPOS>ATOM
      1  C         25.0280  -23.2090  -12.4880 C.2     1  UNL1        0.0860
      2  C         23.6930  -22.7960  -12.6280 C.2     1  UNL1        0.0420
      3  C         22.9580  -22.4100  -11.5040 C.2     1  UNL1        0.0330
      4  C         23.5530  -22.4340  -10.2400 C.2     1  UNL1        0.0170
      5  C         24.8800  -22.8500  -10.1020 C.2     1  UNL1        0.0090
      6  C         25.6410  -23.2340  -11.2190 C.2     1  UNL1       -0.0390
      7  C         27.0630  -23.6680  -10.9920 C.3     1  UNL1        0.0500
      8  C         21.5590  -21.9380  -11.6910 C.2     1  UNL1        0.2560
      9  O         21.3160  -21.2140  -12.6470 O.2     1  UNL1       -0.2670
     10  N         20.6690  -22.4020  -10.7460 N.am    1  UNL1       -0.3220
     11  H         21.0030  -23.0880  -10.0780 H       1  UNL1        0.1690
     12  C         19.2850  -22.1220  -10.6360 C.2     1  UNL1        0.0520
     13  C         18.6010  -21.2950  -11.5320 C.2     1  UNL1        0.0310
     14  C         17.2330  -21.0540  -11.3750 C.2     1  UNL1        0.0020
     15  C         16.5320  -21.6360  -10.3230 C.2     1  UNL1        0.0020
     16  C         17.1990  -22.4600   -9.4190 C.2     1  UNL1        0.0210
     17  C         18.5730  -22.7010   -9.5610 C.2     1  UNL1        0.0320
     18  S         19.3950  -23.7670   -8.3690 S.3     1  UNL1       -0.0880
     19  C         18.8520  -23.0630   -6.8200 C.2     1  UNL1        0.0050
     20  C         17.9570  -23.7330   -5.9770 C.2     1  UNL1        0.0190
     21  C         17.5420  -23.1470   -4.7780 C.2     1  UNL1        0.0010
     22  C         18.0140  -21.8860   -4.4190 C.2     1  UNL1        0.0000
     23  C         18.8960  -21.2070   -5.2580 C.2     1  UNL1        0.0010
     24  C         19.3110  -21.7930   -6.4560 C.2     1  UNL1        0.0190
     25  S         25.8870  -23.7080  -13.9750 S.O2    1  UNL1        0.2630
     26  O         27.1210  -22.9540  -14.0520 O.2     1  UNL1       -0.2000
     27  O         25.9160  -25.1530  -14.0370 O.2     1  UNL1       -0.2000
     28  N         24.8860  -23.1100  -15.2040 N.pl3   1  UNL1       -0.2810
     29  H         23.9160  -23.1020  -14.8910 H       1  UNL1        0.1790
     30  C         25.3420  -21.9700  -15.9230 C.2     1  UNL1        0.0430
     31  C         25.4070  -22.0110  -17.3120 C.2     1  UNL1        0.0300
     32  C         25.7890  -20.8730  -18.0220 C.2     1  UNL1        0.0090
     33  C         26.1020  -19.6790  -17.3520 C.2     1  UNL1       -0.0560
     34  C         26.4890  -18.4650  -18.1530 C.3     1  UNL1        0.0490
     35  C         26.0200  -19.6360  -15.9450 C.2     1  UNL1       -0.0540
     36  C         25.6450  -20.7920  -15.2430 C.2     1  UNL1        0.0370
     37  C         26.3140  -18.3740  -15.1800 C.3     1  UNL1        0.0490
@<TRIPOS>BOND
     1    34    33    1
     2    32    33    2
     3    32    31    1
     4    33    35    1
     5    31    30    2
     6    35    36    2
     7    35    37    1
     8    30    36    1
     9    30    28    1
    10    28    29    1
    11    28    25    1
    12    26    25    2
    13    27    25    2
    14    25     1    1
    15     9     8    2
    16     2     1    2
    17     2     3    1
    18     1     6    1
    19     8     3    1
    20     8    10   am
    21    13    14    1
    22    13    12    2
    23     3     4    2
    24    14    15    2
    25     6     7    1
    26     6     5    2
    27    10    12    1
    28    10    11    1
    29    12    17    1
    30    15    16    1
    31     4     5    1
    32    17    16    2
    33    17    18    1
    34    18    19    1
    35    19    24    2
    36    19    20    1
    37    24    23    1
    38    20    21    2
    39    23    22    2
    40    21    22    1
