@<TRIPOS>MOLECULE
5657_out_ligand_01.pdbqt
 34 38 0 0 0
SMALL
GASTEIGER

@<TRIPOS>ATOM
      1  C         17.2990  -22.6090   -9.9150 C.2     1  UNL1        0.0820
      2  C         17.0430  -21.5620  -10.8100 C.2     1  UNL1        0.0280
      3  C         18.0840  -20.9710  -11.5330 C.2     1  UNL1        0.0330
      4  C         19.3660  -21.4750  -11.3050 C.ar    1  UNL1        0.0620
      5  N         20.5930  -21.1470  -11.8240 N.ar    1  UNL1       -0.3380
      6  C         21.5520  -21.9590  -11.2590 C.ar    1  UNL1        0.1390
      7  N         20.9820  -22.7870  -10.3990 N.ar    1  UNL1       -0.2280
      8  C         19.6420  -22.5020  -10.4130 C.ar    1  UNL1        0.0870
      9  C         18.5980  -23.0890   -9.6890 C.2     1  UNL1        0.0590
     10  H         20.7610  -20.4240  -12.5040 H       1  UNL1        0.1670
     11  S         15.9550  -23.3550   -9.0300 S.O2    1  UNL1        0.2630
     12  O         15.3210  -24.3400   -9.8800 O.2     1  UNL1       -0.2000
     13  O         15.1850  -22.2870   -8.4270 O.2     1  UNL1       -0.2000
     14  N         16.7460  -24.1420   -7.7570 N.pl3   1  UNL1       -0.2810
     15  H         17.6400  -24.5200   -8.0710 H       1  UNL1        0.1790
     16  C         16.6960  -23.5400   -6.4720 C.2     1  UNL1        0.0430
     17  C         15.6920  -23.8980   -5.5740 C.2     1  UNL1        0.0300
     18  C         15.6730  -23.3390   -4.2970 C.2     1  UNL1        0.0030
     19  C         16.6630  -22.4310   -3.9180 C.2     1  UNL1        0.0160
     20  C         17.6880  -22.0780   -4.8090 C.2     1  UNL1        0.0500
     21  C         17.6910  -22.6380   -6.0970 C.2     1  UNL1        0.0460
     22  C         18.7460  -21.0850   -4.4020 C.3     1  UNL1        0.4170
     23  F         19.8250  -21.0870   -5.2350 F       1  UNL1       -0.1660
     24  F         19.2360  -21.3330   -3.1560 F       1  UNL1       -0.1660
     25  F         18.3000  -19.7970   -4.3820 F       1  UNL1       -0.1660
     26  C         22.9860  -21.9000  -11.5710 C.2     1  UNL1        0.0110
     27  C         23.9050  -21.7300  -10.5080 C.2     1  UNL1        0.0180
     28  C         25.2840  -21.6590  -10.7350 C.2     1  UNL1        0.0380
     29  C         25.7270  -21.7710  -12.0330 C.2     1  UNL1        0.0750
     30  C         24.8500  -21.9390  -13.0910 C.2     1  UNL1       -0.0220
     31  O         27.0420  -21.7120  -12.4100 O.2     1  UNL1       -0.3500
     32  C         23.4790  -22.0010  -12.8840 C.2     1  UNL1        0.0250
     33  C         25.6160  -21.9540  -14.3570 C.3     1  UNL1        0.0680
     34  C         27.0230  -22.1490  -13.7880 C.3     1  UNL1        0.1800
@<TRIPOS>BOND
     1    33    34    1
     2    33    30    1
     3    34    31    1
     4    30    32    1
     5    30    29    2
     6    32    26    2
     7    10     5    1
     8    31    29    1
     9    29    28    1
    10     5     4   ar
    11     5     6   ar
    12    26     6    1
    13    26    27    1
    14     3     4    2
    15     3     2    1
    16     4     8   ar
    17     6     7   ar
    18     2     1    2
    19    28    27    2
    20     8     7   ar
    21     8     9    2
    22     1     9    1
    23     1    11    1
    24    12    11    2
    25    11    13    2
    26    11    14    1
    27    15    14    1
    28    14    16    1
    29    16    21    2
    30    16    17    1
    31    21    20    1
    32    17    18    2
    33    23    22    1
    34    20    22    1
    35    20    19    2
    36    22    25    1
    37    22    24    1
    38    18    19    1
