@<TRIPOS>MOLECULE
56570_out_ligand_01.pdbqt
 39 44 0 0 0
SMALL
GASTEIGER

@<TRIPOS>ATOM
      1  C         22.4720  -22.0610  -12.1290 C.2     1  UNL1        0.2560
      2  O         21.8680  -21.0760  -12.5320 O.2     1  UNL1       -0.2670
      3  N         22.1980  -22.8180  -11.0070 N.am    1  UNL1       -0.3230
      4  H         22.8720  -23.5300  -10.7570 H       1  UNL1        0.1690
      5  C         23.6660  -22.5080  -12.8930 C.2     1  UNL1        0.0330
      6  C         23.9040  -21.9590  -14.1540 C.2     1  UNL1        0.0420
      7  C         25.0180  -22.3720  -14.9040 C.2     1  UNL1        0.0860
      8  C         25.8990  -23.3500  -14.3970 C.2     1  UNL1       -0.0390
      9  C         25.6380  -23.8890  -13.1250 C.2     1  UNL1        0.0090
     10  C         27.1210  -23.8300  -15.1290 C.3     1  UNL1        0.0500
     11  C         24.5290  -23.4790  -12.3780 C.2     1  UNL1        0.0170
     12  S         25.2770  -21.5760  -16.4870 S.O2    1  UNL1        0.2630
     13  O         25.5270  -22.6050  -17.4760 O.2     1  UNL1       -0.2000
     14  O         24.2080  -20.6190  -16.6880 O.2     1  UNL1       -0.2000
     15  N         26.6830  -20.6800  -16.2500 N.pl3   1  UNL1       -0.2810
     16  H         27.5290  -21.2320  -16.3830 H       1  UNL1        0.1790
     17  C         26.7230  -19.2950  -16.5710 C.2     1  UNL1        0.0430
     18  C         26.5790  -18.8400  -17.8800 C.2     1  UNL1        0.0300
     19  C         26.6360  -17.4730  -18.1530 C.2     1  UNL1        0.0030
     20  C         26.8250  -16.5580  -17.1170 C.2     1  UNL1        0.0070
     21  C         26.9630  -17.0030  -15.7970 C.2     1  UNL1       -0.0600
     22  C         27.1210  -16.0150  -14.6800 C.3     1  UNL1        0.0480
     23  C         26.8960  -18.3770  -15.5300 C.2     1  UNL1        0.0370
     24  C         21.1220  -22.6580  -10.1100 C.2     1  UNL1        0.0350
     25  C         21.4160  -22.6750   -8.7450 C.2     1  UNL1        0.0300
     26  C         20.3990  -22.5210   -7.7940 C.2     1  UNL1        0.0100
     27  C         19.0600  -22.3370   -8.1730 C.2     1  UNL1       -0.0530
     28  C         18.7770  -22.3670   -9.5440 C.2     1  UNL1        0.0100
     29  C         19.7950  -22.5130  -10.5000 C.2     1  UNL1        0.0300
     30  C         17.9860  -22.2030   -7.0910 C.3     1  UNL1        0.0270
     31  C         16.5270  -22.2990   -7.6390 C.3     1  UNL1       -0.0050
     32  C         16.1760  -23.7570   -7.9950 C.3     1  UNL1        0.0100
     33  C         15.5540  -21.8050   -6.5480 C.3     1  UNL1        0.0100
     34  C         16.2730  -24.6500   -6.7490 C.3     1  UNL1       -0.0130
     35  C         15.3080  -24.1330   -5.6690 C.3     1  UNL1        0.0090
     36  C         17.7080  -24.5970   -6.2070 C.3     1  UNL1        0.0100
     37  C         15.6680  -22.6860   -5.2940 C.3     1  UNL1       -0.0130
     38  C         17.1130  -22.6410   -4.7690 C.3     1  UNL1        0.0100
     39  C         18.0950  -23.1440   -5.8520 C.3     1  UNL1       -0.0050
@<TRIPOS>BOND
     1    19    18    1
     2    19    20    2
     3    18    17    2
     4    13    12    2
     5    20    21    1
     6    14    12    2
     7    17    15    1
     8    17    23    1
     9    12    15    1
    10    12     7    1
    11    16    15    1
    12    21    23    2
    13    21    22    1
    14    10     8    1
    15     7     8    2
    16     7     6    1
    17     8     9    1
    18     6     5    2
    19     9    11    2
    20     5    11    1
    21     5     1    1
    22     2     1    2
    23     1     3   am
    24     3     4    1
    25     3    24    1
    26    29    24    2
    27    29    28    1
    28    24    25    1
    29    28    27    2
    30    25    26    2
    31    27    26    1
    32    27    30    1
    33    32    31    1
    34    32    34    1
    35    31    30    1
    36    31    33    1
    37    30    39    1
    38    34    36    1
    39    34    35    1
    40    33    37    1
    41    36    39    1
    42    39    38    1
    43    35    37    1
    44    37    38    1
