@<TRIPOS>MOLECULE
56583_out_ligand_01.pdbqt
 44 47 0 0 0
SMALL
GASTEIGER

@<TRIPOS>ATOM
      1  C         23.0770  -22.1640   -9.9680 C.2     1  UNL1        0.2560
      2  O         23.0730  -21.0200   -9.5320 O.2     1  UNL1       -0.2670
      3  N         22.2760  -23.2160   -9.5590 N.am    1  UNL1       -0.3230
      4  H         22.4620  -24.1240   -9.9630 H       1  UNL1        0.1690
      5  C         21.2300  -23.1750   -8.6120 C.2     1  UNL1        0.0350
      6  C         20.3530  -24.2700   -8.5800 C.2     1  UNL1        0.0310
      7  C         19.2690  -24.2940   -7.6990 C.2     1  UNL1        0.0270
      8  C         19.0680  -23.2190   -6.8320 C.2     1  UNL1        0.0750
      9  C         19.9420  -22.1310   -6.8360 C.2     1  UNL1        0.0270
     10  C         21.0160  -22.1100   -7.7310 C.2     1  UNL1        0.0310
     11  S         17.6980  -23.2410   -5.7050 S.O2    1  UNL1        0.2450
     12  O         17.1050  -24.5630   -5.7500 O.2     1  UNL1       -0.2060
     13  O         18.1550  -22.6320   -4.4740 O.2     1  UNL1       -0.2060
     14  N         16.5800  -22.2130   -6.5010 N.pl3   1  UNL1       -0.1810
     15  H         16.9260  -21.2600   -6.3590 H       1  UNL1        0.1460
     16  C         16.4440  -22.4990   -7.9000 C.2     1  UNL1        0.0230
     17  C         15.7090  -23.6150   -8.3030 C.2     1  UNL1        0.0240
     18  C         15.6220  -23.9430   -9.6570 C.2     1  UNL1        0.0030
     19  C         16.2830  -23.1620  -10.6090 C.2     1  UNL1        0.0160
     20  C         17.0380  -22.0430  -10.2150 C.2     1  UNL1        0.0490
     21  C         17.1210  -21.7250   -8.8480 C.2     1  UNL1        0.0400
     22  C         17.7960  -21.2230  -11.2320 C.3     1  UNL1        0.4170
     23  F         17.7670  -21.7610  -12.4840 F       1  UNL1       -0.1660
     24  F         19.1090  -21.0870  -10.9080 F       1  UNL1       -0.1660
     25  F         17.3060  -19.9570  -11.3620 F       1  UNL1       -0.1660
     26  C         24.0500  -22.4900  -11.0510 C.2     1  UNL1        0.0330
     27  C         23.8190  -21.9680  -12.3300 C.2     1  UNL1        0.0420
     28  C         24.6830  -22.2790  -13.3910 C.2     1  UNL1        0.0810
     29  C         25.7930  -23.1220  -13.1840 C.2     1  UNL1       -0.0390
     30  C         26.0070  -23.6390  -11.8920 C.2     1  UNL1        0.0090
     31  C         26.7860  -23.4690  -14.2580 C.3     1  UNL1        0.0500
     32  C         25.1400  -23.3390  -10.8380 C.2     1  UNL1        0.0170
     33  S         24.3210  -21.5480  -14.9850 S.O2    1  UNL1        0.2460
     34  O         23.5290  -20.3560  -14.7690 O.2     1  UNL1       -0.2060
     35  O         23.8620  -22.6030  -15.8680 O.2     1  UNL1       -0.2060
     36  N         25.8990  -21.1530  -15.5150 N.pl3   1  UNL1       -0.1810
     37  H         26.0890  -21.7980  -16.2850 H       1  UNL1        0.1460
     38  C         26.0310  -19.8000  -15.9770 C.2     1  UNL1        0.0220
     39  C         25.8390  -19.5380  -17.3330 C.2     1  UNL1        0.0250
     40  C         25.9930  -18.2370  -17.8190 C.2     1  UNL1        0.0080
     41  C         26.3420  -17.1930  -16.9510 C.2     1  UNL1       -0.0620
     42  C         26.5520  -15.8070  -17.4910 C.3     1  UNL1        0.0480
     43  C         26.5510  -17.4720  -15.5930 C.2     1  UNL1        0.0080
     44  C         26.3930  -18.7720  -15.1050 C.2     1  UNL1        0.0250
@<TRIPOS>BOND
     1    40    39    1
     2    40    41    2
     3    42    41    1
     4    39    38    2
     5    41    43    1
     6    37    36    1
     7    38    36    1
     8    38    44    1
     9    35    33    2
    10    43    44    2
    11    36    33    1
    12    33    34    2
    13    33    28    1
    14    31    29    1
    15    28    29    2
    16    28    27    1
    17    29    30    1
    18    23    22    1
    19    27    26    2
    20    30    32    2
    21    25    22    1
    22    22    24    1
    23    22    20    1
    24    26    32    1
    25    26     1    1
    26    19    20    2
    27    19    18    1
    28    20    21    1
    29     1     3   am
    30     1     2    2
    31     4     3    1
    32    18    17    2
    33     3     5    1
    34    21    16    2
    35     5     6    2
    36     5    10    1
    37     6     7    1
    38    17    16    1
    39    16    14    1
    40    10     9    2
    41     7     8    2
    42     9     8    1
    43     8    11    1
    44    14    15    1
    45    14    11    1
    46    12    11    2
    47    11    13    2
