@<TRIPOS>MOLECULE
56584_out_ligand_01.pdbqt
 34 36 0 0 0
SMALL
GASTEIGER

@<TRIPOS>ATOM
      1  C         20.1340  -22.8740  -10.1740 C.2     1  UNL1        0.0330
      2  C         20.8790  -23.7190   -9.3460 C.2     1  UNL1        0.0170
      3  C         20.2600  -24.3680   -8.2740 C.2     1  UNL1        0.0090
      4  C         18.8860  -24.2050   -8.0160 C.2     1  UNL1       -0.0390
      5  C         18.3020  -24.9200   -6.8300 C.3     1  UNL1        0.0500
      6  C         18.1430  -23.3640   -8.8690 C.2     1  UNL1        0.0860
      7  C         18.7680  -22.7030   -9.9400 C.2     1  UNL1        0.0420
      8  C         20.7570  -22.1670  -11.3260 C.2     1  UNL1        0.2560
      9  N         22.0740  -22.5090  -11.5700 N.am    1  UNL1       -0.3230
     10  H         22.5240  -23.1170  -10.8990 H       1  UNL1        0.1690
     11  O         20.0820  -21.3420  -11.9310 O.2     1  UNL1       -0.2670
     12  C         22.9040  -22.0320  -12.6060 C.2     1  UNL1        0.0350
     13  C         24.1840  -22.5850  -12.7090 C.2     1  UNL1        0.0320
     14  C         25.0700  -22.1710  -13.7120 C.2     1  UNL1        0.0320
     15  C         24.6910  -21.1940  -14.6300 C.2     1  UNL1        0.0340
     16  C         23.4110  -20.6420  -14.5280 C.2     1  UNL1        0.0320
     17  C         22.5220  -21.0590  -13.5270 C.2     1  UNL1        0.0320
     18  N         25.5210  -20.7160  -15.6640 N.am    1  UNL1       -0.3280
     19  C         25.3490  -20.8830  -17.0270 C.2     1  UNL1        0.2180
     20  C         26.4610  -20.2470  -17.8230 C.3     1  UNL1        0.1170
     21  O         24.4380  -21.4820  -17.5890 O.2     1  UNL1       -0.2740
     22  H         26.3350  -20.1930  -15.3700 H       1  UNL1        0.1690
     23  S         16.3960  -23.0490   -8.6270 S.O2    1  UNL1        0.2630
     24  O         15.7780  -24.2760   -8.1680 O.2     1  UNL1       -0.2000
     25  O         15.8870  -22.3790   -9.8050 O.2     1  UNL1       -0.2000
     26  N         16.3770  -21.9080   -7.3860 N.pl3   1  UNL1       -0.2800
     27  H         16.8790  -21.0570   -7.6230 H       1  UNL1        0.1790
     28  C         16.3250  -22.3190   -6.0210 C.2     1  UNL1        0.0480
     29  C         15.1770  -22.9430   -5.5250 C.2     1  UNL1        0.0300
     30  C         15.1220  -23.3820   -4.2030 C.2     1  UNL1        0.0020
     31  C         16.2140  -23.1900   -3.3630 C.2     1  UNL1        0.0010
     32  C         17.3560  -22.5500   -3.8440 C.2     1  UNL1        0.0090
     33  C         17.4250  -22.0990   -5.1710 C.2     1  UNL1       -0.0350
     34  C         18.6840  -21.4270   -5.6410 C.3     1  UNL1        0.0500
@<TRIPOS>BOND
     1    20    19    1
     2    21    19    2
     3    19    18   am
     4    18    22    1
     5    18    15    1
     6    15    16    2
     7    15    14    1
     8    16    17    1
     9    14    13    2
    10    17    12    2
    11    13    12    1
    12    12     9    1
    13    11     8    2
    14     9     8   am
    15     9    10    1
    16     8     1    1
    17     1     7    2
    18     1     2    1
    19     7     6    1
    20    25    23    2
    21     2     3    2
    22     6    23    1
    23     6     4    2
    24    23    24    2
    25    23    26    1
    26     3     4    1
    27     4     5    1
    28    27    26    1
    29    26    28    1
    30    28    29    2
    31    28    33    1
    32    34    33    1
    33    29    30    1
    34    33    32    2
    35    30    31    2
    36    32    31    1
