@<TRIPOS>MOLECULE
5659_out_ligand_01.pdbqt
 26 28 0 0 0
SMALL
GASTEIGER

@<TRIPOS>ATOM
      1  N         17.8430  -22.5620   -8.5560 N.3     1  UNL1       -0.3020
      2  C         16.4170  -22.4010   -8.2130 C.3     1  UNL1        0.1400
      3  C         16.1850  -22.8800   -6.7790 C.3     1  UNL1        0.0600
      4  C         17.1210  -22.2250   -5.7870 C.2     1  UNL1       -0.0330
      5  C         18.3480  -21.6980   -6.2490 C.2     1  UNL1       -0.0320
      6  C         19.2330  -21.0940   -5.3400 C.2     1  UNL1        0.0090
      7  C         18.9280  -21.0320   -3.9840 C.2     1  UNL1        0.0020
      8  C         17.7330  -21.5730   -3.5180 C.2     1  UNL1        0.0170
      9  C         16.8250  -22.1670   -4.4090 C.2     1  UNL1        0.0380
     10  C         18.7350  -21.7420   -7.7160 C.3     1  UNL1        0.1740
     11  S         18.2580  -22.6840  -10.1960 S.O2    1  UNL1        0.2640
     12  O         17.9780  -21.4190  -10.8420 O.2     1  UNL1       -0.2000
     13  O         17.6320  -23.8900  -10.6980 O.2     1  UNL1       -0.2000
     14  C         20.0250  -22.9240  -10.1920 C.2     1  UNL1        0.1240
     15  C         20.5280  -23.8930   -9.3190 C.2     1  UNL1        0.1400
     16  C         21.8960  -24.1280   -9.2100 C.2     1  UNL1        0.0440
     17  F         19.7170  -24.6570   -8.5760 F       1  UNL1       -0.2040
     18  C         22.7870  -23.3840   -9.9730 C.2     1  UNL1        0.0040
     19  C         22.3020  -22.4070  -10.8420 C.2     1  UNL1        0.0080
     20  C         20.9210  -22.1570  -10.9710 C.2     1  UNL1       -0.0360
     21  C         20.5040  -21.0640  -11.9160 C.3     1  UNL1        0.0500
     22  C         15.5740  -22.7570   -3.8550 C.2     1  UNL1        0.2490
     23  N         15.6750  -24.0210   -3.3420 N.am    1  UNL1       -0.3660
     24  H         16.5650  -24.4550   -3.1460 H       1  UNL1        0.1590
     25  H         14.8550  -24.3800   -2.8680 H       1  UNL1        0.1590
     26  O         14.5130  -22.1510   -3.8290 O.2     1  UNL1       -0.2680
@<TRIPOS>BOND
     1    21    20    1
     2    20    19    1
     3    20    14    2
     4    19    18    2
     5    12    11    2
     6    13    11    2
     7    11    14    1
     8    11     1    1
     9    14    15    1
    10    18    16    1
    11    15    16    2
    12    15    17    1
    13     1     2    1
    14     1    10    1
    15     2     3    1
    16    10     5    1
    17     3     4    1
    18     5     4    2
    19     5     6    1
    20     4     9    1
    21     6     7    2
    22     9    22    1
    23     9     8    2
    24     7     8    1
    25    22    26    2
    26    22    23   am
    27    23    24    1
    28    23    25    1
