@<TRIPOS>MOLECULE
56605_out_ligand_01.pdbqt
 32 34 0 0 0
SMALL
GASTEIGER

@<TRIPOS>ATOM
      1  C         20.7350  -22.5470  -10.3290 C.2     1  UNL1        0.0330
      2  C         20.6060  -21.6500  -11.3910 C.2     1  UNL1        0.0170
      3  C         19.3560  -21.1220  -11.7240 C.2     1  UNL1        0.0090
      4  C         18.1960  -21.4830  -11.0100 C.2     1  UNL1       -0.0390
      5  C         16.9060  -20.8220  -11.4170 C.3     1  UNL1        0.0500
      6  C         18.3350  -22.3670   -9.9210 C.2     1  UNL1        0.0810
      7  C         19.6010  -22.8880   -9.5830 C.2     1  UNL1        0.0420
      8  S         16.9430  -22.9350   -8.9440 S.O2    1  UNL1        0.2460
      9  O         16.2560  -23.9440   -9.7300 O.2     1  UNL1       -0.2060
     10  O         16.2350  -21.7790   -8.4440 O.2     1  UNL1       -0.2060
     11  N         17.7150  -23.7970   -7.6900 N.pl3   1  UNL1       -0.1810
     12  H         17.4830  -24.7800   -7.8360 H       1  UNL1        0.1460
     13  C         17.3550  -23.3860   -6.3570 C.2     1  UNL1        0.0290
     14  C         16.2360  -24.0220   -5.8050 C.2     1  UNL1        0.0250
     15  C         15.8350  -23.7400   -4.5030 C.2     1  UNL1        0.0020
     16  C         16.5640  -22.8310   -3.7400 C.2     1  UNL1        0.0070
     17  C         17.6890  -22.1780   -4.2760 C.2     1  UNL1       -0.0540
     18  C         18.4610  -21.2430   -3.3850 C.3     1  UNL1        0.0490
     19  C         18.0800  -22.4270   -5.6160 C.2     1  UNL1       -0.0340
     20  C         19.2870  -21.7270   -6.1910 C.3     1  UNL1        0.0500
     21  C         22.0940  -23.0770  -10.0130 C.2     1  UNL1        0.2510
     22  N         23.1590  -22.4450  -10.6090 N.am    1  UNL1       -0.3530
     23  H         23.0220  -21.5980  -11.1440 H       1  UNL1        0.1630
     24  O         22.2130  -24.0190   -9.2340 O.2     1  UNL1       -0.2680
     25  C         24.5210  -22.9110  -10.4700 C.3     1  UNL1        0.1620
     26  C         25.4380  -22.1520  -11.3950 C.2     1  UNL1       -0.0350
     27  C         25.9520  -20.9080  -10.9620 C.2     1  UNL1        0.0090
     28  C         26.7840  -20.1460  -11.7870 C.2     1  UNL1        0.0010
     29  C         27.1190  -20.6220  -13.0480 C.2     1  UNL1        0.0010
     30  C         26.6100  -21.8460  -13.5020 C.2     1  UNL1        0.0070
     31  C         25.7640  -22.6210  -12.6890 C.2     1  UNL1       -0.0540
     32  C         25.2180  -23.9220  -13.2400 C.3     1  UNL1        0.0490
@<TRIPOS>BOND
     1    30    29    2
     2    30    31    1
     3    32    31    1
     4    29    28    1
     5    31    26    2
     6    28    27    2
     7     3     2    1
     8     3     4    2
     9     5     4    1
    10    26    27    1
    11    26    25    1
    12     2     1    2
    13    23    22    1
    14     4     6    1
    15    22    25    1
    16    22    21   am
    17     1    21    1
    18     1     7    1
    19    21    24    2
    20     6     7    2
    21     6     8    1
    22     9     8    2
    23     8    10    2
    24     8    11    1
    25    12    11    1
    26    11    13    1
    27    13    14    2
    28    13    19    1
    29    20    19    1
    30    14    15    1
    31    19    17    2
    32    15    16    2
    33    17    16    1
    34    17    18    1
