@<TRIPOS>MOLECULE
56604_out_ligand_01.pdbqt
 31 33 0 0 0
SMALL
GASTEIGER

@<TRIPOS>ATOM
      1  C         17.4690  -22.9170   -9.1020 C.2     1  UNL1        0.0860
      2  C         18.8600  -22.9160   -9.3050 C.2     1  UNL1        0.0420
      3  C         19.4310  -22.1560  -10.3280 C.2     1  UNL1        0.0330
      4  C         18.6090  -21.3920  -11.1590 C.2     1  UNL1        0.0170
      5  C         17.2230  -21.4160  -10.9790 C.2     1  UNL1        0.0090
      6  C         16.6270  -22.1800   -9.9570 C.2     1  UNL1       -0.0390
      7  C         15.1280  -22.1590   -9.8500 C.3     1  UNL1        0.0500
      8  S         16.8890  -23.9160   -7.7350 S.O2    1  UNL1        0.2630
      9  O         18.0670  -24.4620   -7.0930 O.2     1  UNL1       -0.2000
     10  O         15.8250  -24.7920   -8.1730 O.2     1  UNL1       -0.2000
     11  N         16.2610  -22.7760   -6.6610 N.pl3   1  UNL1       -0.2800
     12  H         15.2510  -22.8470   -6.5650 H       1  UNL1        0.1790
     13  C         17.0230  -22.3210   -5.5440 C.2     1  UNL1        0.0480
     14  C         18.1220  -21.4790   -5.7430 C.2     1  UNL1        0.0300
     15  C         18.8800  -21.0330   -4.6610 C.2     1  UNL1        0.0020
     16  C         18.5370  -21.4140   -3.3690 C.2     1  UNL1        0.0010
     17  C         17.4270  -22.2320   -3.1580 C.2     1  UNL1        0.0090
     18  C         16.6520  -22.6890   -4.2380 C.2     1  UNL1       -0.0350
     19  C         15.4460  -23.5410   -3.9530 C.3     1  UNL1        0.0500
     20  C         20.9140  -22.1500  -10.4590 C.2     1  UNL1        0.2560
     21  O         21.5820  -22.0990   -9.4340 O.2     1  UNL1       -0.2670
     22  N         21.3870  -22.2300  -11.7530 N.am    1  UNL1       -0.3200
     23  H         20.7150  -22.3770  -12.5000 H       1  UNL1        0.1690
     24  C         22.7340  -22.2220  -12.1760 C.2     1  UNL1        0.0740
     25  C         23.7580  -22.9470  -11.5660 C.2     1  UNL1        0.0340
     26  C         25.0670  -22.8710  -12.0620 C.2     1  UNL1        0.0210
     27  C         25.3520  -22.0670  -13.1650 C.2     1  UNL1        0.0140
     28 BR         27.1210  -21.9710  -13.8250 Br      1  UNL1       -0.0510
     29  C         24.3440  -21.3360  -13.7840 C.2     1  UNL1        0.0630
     30  C         23.0500  -21.4210  -13.2830 C.2     1  UNL1        0.1440
     31  F         22.0770  -20.7110  -13.8770 F       1  UNL1       -0.2040
@<TRIPOS>BOND
     1    31    30    1
     2    28    27    1
     3    29    30    1
     4    29    27    2
     5    30    24    2
     6    27    26    1
     7    23    22    1
     8    24    22    1
     9    24    25    1
    10    26    25    2
    11    22    20   am
    12     4     5    2
    13     4     3    1
    14     5     6    1
    15    20     3    1
    16    20    21    2
    17     3     2    2
    18     6     7    1
    19     6     1    2
    20     2     1    1
    21     1     8    1
    22    10     8    2
    23     8     9    2
    24     8    11    1
    25    11    12    1
    26    11    13    1
    27    14    13    2
    28    14    15    1
    29    13    18    1
    30    15    16    2
    31    18    19    1
    32    18    17    2
    33    16    17    1
