@<TRIPOS>MOLECULE
56617_out_ligand_01.pdbqt
 38 44 0 0 0
SMALL
GASTEIGER

@<TRIPOS>ATOM
      1  O         24.3100  -23.4050   -9.8220 O.2     1  UNL1       -0.2670
      2  C         23.8230  -22.5260  -10.5230 C.2     1  UNL1        0.2560
      3  N         22.5270  -22.0500  -10.4900 N.am    1  UNL1       -0.3230
      4  H         22.2490  -21.4260  -11.2360 H       1  UNL1        0.1690
      5  C         24.6810  -21.9110  -11.5730 C.2     1  UNL1        0.0320
      6  C         26.0750  -21.8950  -11.4600 C.2     1  UNL1        0.0170
      7  C         26.8500  -21.3110  -12.4680 C.2     1  UNL1        0.0110
      8  C         26.2460  -20.7420  -13.6050 C.2     1  UNL1       -0.0250
      9  C         24.8430  -20.7690  -13.7040 C.2     1  UNL1        0.0110
     10  C         24.0680  -21.3600  -12.7020 C.2     1  UNL1        0.0170
     11  C         27.1200  -20.0950  -14.6650 C.3     1  UNL1        0.1830
     12  S         27.0060  -18.2880  -14.5700 S.3     1  UNL1       -0.1300
     13  C         26.2070  -18.1340  -16.1800 C.3     1  UNL1        0.1790
     14  C         26.3290  -19.4720  -16.8670 C.2     1  UNL1        0.2300
     15  O         26.0530  -19.6430  -18.0510 O.2     1  UNL1       -0.2720
     16  N         26.7670  -20.4690  -16.0160 N.am    1  UNL1       -0.3280
     17  C         27.1080  -21.7910  -16.5160 C.3     1  UNL1        0.1920
     18  C         25.8600  -22.5430  -16.8060 C.2     1  UNL1        0.0700
     19  C         24.8670  -23.0700  -16.0050 C.2     1  UNL1        0.0360
     20  C         23.9160  -23.6480  -16.8770 C.2     1  UNL1        0.0270
     21  C         24.3900  -23.4420  -18.1520 C.2     1  UNL1        0.1420
     22  O         25.5690  -22.7670  -18.1200 O.2     1  UNL1       -0.3250
     23  C         21.5000  -22.4290   -9.6000 C.2     1  UNL1        0.0350
     24  C         21.4910  -22.1230   -8.2440 C.2     1  UNL1        0.0300
     25  C         20.4350  -22.5430   -7.4210 C.2     1  UNL1        0.0100
     26  C         19.3470  -23.2640   -7.9320 C.2     1  UNL1       -0.0530
     27  C         19.3790  -23.5810   -9.3000 C.2     1  UNL1        0.0100
     28  C         20.4300  -23.1590  -10.1240 C.2     1  UNL1        0.0300
     29  C         18.2050  -23.7880   -7.0580 C.3     1  UNL1        0.0270
     30  C         18.0110  -23.1140   -5.6630 C.3     1  UNL1       -0.0050
     31  C         17.4160  -21.6960   -5.8030 C.3     1  UNL1        0.0100
     32  C         17.0250  -23.9670   -4.8330 C.3     1  UNL1        0.0100
     33  C         16.0570  -21.7550   -6.5160 C.3     1  UNL1       -0.0130
     34  C         15.0900  -22.6190   -5.6890 C.3     1  UNL1        0.0090
     35  C         16.2470  -22.3860   -7.9040 C.3     1  UNL1        0.0100
     36  C         15.6590  -24.0400   -5.5350 C.3     1  UNL1       -0.0130
     37  C         15.8380  -24.6610   -6.9280 C.3     1  UNL1        0.0100
     38  C         16.8150  -23.8130   -7.7710 C.3     1  UNL1       -0.0050
@<TRIPOS>BOND
     1    21    22    1
     2    21    20    2
     3    22    18    1
     4    15    14    2
     5    20    19    1
     6    14    13    1
     7    14    16   am
     8    18    17    1
     9    18    19    2
    10    17    16    1
    11    13    12    1
    12    16    11    1
    13    11    12    1
    14    11     8    1
    15     9     8    2
    16     9    10    1
    17     8     7    1
    18    10     5    2
    19     7     6    2
    20     5     6    1
    21     5     2    1
    22     4     3    1
    23     2     3   am
    24     2     1    2
    25     3    23    1
    26    28    23    2
    27    28    27    1
    28    23    24    1
    29    27    26    2
    30    24    25    2
    31    26    25    1
    32    26    29    1
    33    35    38    1
    34    35    33    1
    35    38    29    1
    36    38    37    1
    37    29    30    1
    38    37    36    1
    39    33    31    1
    40    33    34    1
    41    31    30    1
    42    34    36    1
    43    30    32    1
    44    36    32    1
