@<TRIPOS>MOLECULE
56619_out_ligand_01.pdbqt
 45 49 0 0 0
SMALL
GASTEIGER

@<TRIPOS>ATOM
      1  C         22.3070  -23.1330  -10.1430 C.2     1  UNL1        0.2560
      2  O         22.4220  -24.0310   -9.3220 O.2     1  UNL1       -0.2670
      3  N         21.1440  -22.4870  -10.5210 N.am    1  UNL1       -0.3230
      4  H         21.2410  -21.6860  -11.1280 H       1  UNL1        0.1690
      5  C         19.8340  -22.7580  -10.0700 C.2     1  UNL1        0.0350
      6  C         19.7060  -23.5810   -8.9400 C.2     1  UNL1        0.0310
      7  C         18.4450  -23.9110   -8.4340 C.2     1  UNL1        0.0270
      8  C         17.3020  -23.4230   -9.0680 C.2     1  UNL1        0.0800
      9  C         17.4150  -22.5740  -10.1720 C.2     1  UNL1        0.0270
     10  C         18.6800  -22.2520  -10.6740 C.2     1  UNL1        0.0310
     11  S         15.6940  -23.8440   -8.4360 S.O2    1  UNL1        0.2630
     12  O         14.7480  -23.6650   -9.5180 O.2     1  UNL1       -0.2000
     13  O         15.8010  -25.1070   -7.7390 O.2     1  UNL1       -0.2000
     14  N         15.3660  -22.6100   -7.3310 N.pl3   1  UNL1       -0.2800
     15  H         15.5430  -21.6840   -7.7080 H       1  UNL1        0.1790
     16  C         15.6110  -22.8340   -5.9410 C.2     1  UNL1        0.0530
     17  C         14.7210  -23.6570   -5.2440 C.2     1  UNL1        0.0310
     18  C         14.9370  -23.9410   -3.9000 C.2     1  UNL1        0.0030
     19  C         16.0450  -23.4050   -3.2470 C.2     1  UNL1        0.0120
     20  C         16.9550  -22.5810   -3.9270 C.2     1  UNL1       -0.0240
     21  C         18.0730  -22.0600   -3.2530 C.2     1  UNL1        0.0120
     22  C         16.7500  -22.2790   -5.2970 C.2     1  UNL1        0.0010
     23  C         18.9940  -21.2470   -3.9120 C.2     1  UNL1        0.0010
     24  C         18.8100  -20.9420   -5.2540 C.2     1  UNL1        0.0010
     25  C         17.7030  -21.4500   -5.9380 C.2     1  UNL1        0.0140
     26  C         23.5410  -22.6200  -10.7990 C.2     1  UNL1        0.0330
     27  C         24.1360  -23.3910  -11.8010 C.2     1  UNL1        0.0420
     28  C         25.3080  -22.9450  -12.4310 C.2     1  UNL1        0.0860
     29  C         25.8850  -21.7070  -12.0770 C.2     1  UNL1       -0.0390
     30  C         25.2510  -20.9320  -11.0900 C.2     1  UNL1        0.0090
     31  C         27.1210  -21.1520  -12.7330 C.3     1  UNL1        0.0500
     32  C         24.0920  -21.3830  -10.4520 C.2     1  UNL1        0.0170
     33  S         26.0180  -24.0010  -13.6840 S.O2    1  UNL1        0.2630
     34  O         27.0440  -24.8270  -13.0850 O.2     1  UNL1       -0.2000
     35  O         24.9330  -24.6060  -14.4270 O.2     1  UNL1       -0.2000
     36  N         26.7520  -22.8890  -14.7320 N.pl3   1  UNL1       -0.2810
     37  H         27.2150  -22.1560  -14.1930 H       1  UNL1        0.1790
     38  C         26.0130  -22.4790  -15.8780 C.2     1  UNL1        0.0430
     39  C         25.0370  -23.3230  -16.4040 C.2     1  UNL1        0.0370
     40  C         24.2770  -22.9190  -17.5100 C.2     1  UNL1       -0.0590
     41  C         24.5100  -21.6580  -18.0760 C.2     1  UNL1        0.0130
     42  C         23.2410  -23.8420  -18.0830 C.3     1  UNL1        0.0480
     43  C         25.4730  -20.7940  -17.5330 C.2     1  UNL1       -0.0590
     44  C         25.7240  -19.4510  -18.1530 C.3     1  UNL1        0.0480
     45  C         26.2290  -21.2180  -16.4330 C.2     1  UNL1        0.0370
@<TRIPOS>BOND
     1    44    43    1
     2    42    40    1
     3    41    43    2
     4    41    40    1
     5    43    45    1
     6    40    39    2
     7    45    38    2
     8    39    38    1
     9    38    36    1
    10    36    37    1
    11    36    33    1
    12    35    33    2
    13    33    34    2
    14    33    28    1
    15    31    29    1
    16    28    29    2
    17    28    27    1
    18    29    30    1
    19    27    26    2
    20     4     3    1
    21    30    32    2
    22    26    32    1
    23    26     1    1
    24    10     9    1
    25    10     5    2
    26     3     1   am
    27     3     5    1
    28     9     8    2
    29     1     2    2
    30     5     6    1
    31    12    11    2
    32     8    11    1
    33     8     7    1
    34     6     7    2
    35    11    13    2
    36    11    14    1
    37    15    14    1
    38    14    16    1
    39    16    22    2
    40    16    17    1
    41    25    22    1
    42    25    24    2
    43    22    20    1
    44    24    23    1
    45    17    18    2
    46    20    21    1
    47    20    19    2
    48    23    21    2
    49    18    19    1
