@<TRIPOS>MOLECULE
56613_out_ligand_01.pdbqt
 38 41 0 0 0
SMALL
GASTEIGER

@<TRIPOS>ATOM
      1  C         17.8670  -22.9830   -6.0220 C.2     1  UNL1        0.0860
      2  C         19.0290  -22.8760   -6.8040 C.2     1  UNL1        0.0420
      3  C         19.9320  -21.8330   -6.5850 C.2     1  UNL1        0.0330
      4  C         19.6510  -20.8660   -5.6160 C.2     1  UNL1        0.0170
      5  C         18.4860  -20.9620   -4.8510 C.2     1  UNL1        0.0090
      6  C         17.5810  -22.0230   -5.0310 C.2     1  UNL1       -0.0390
      7  C         16.3400  -22.0480   -4.1840 C.3     1  UNL1        0.0500
      8  C         21.1640  -21.7700   -7.4170 C.2     1  UNL1        0.2560
      9  O         22.0610  -21.0160   -7.0680 O.2     1  UNL1       -0.2670
     10  N         21.1360  -22.5590   -8.5530 N.am    1  UNL1       -0.3230
     11  H         20.2550  -22.9990   -8.7820 H       1  UNL1        0.1690
     12  C         22.1700  -22.7270   -9.4960 C.2     1  UNL1        0.0350
     13  C         23.4310  -23.2430   -9.1830 C.2     1  UNL1        0.0310
     14  C         24.4090  -23.3810  -10.1740 C.2     1  UNL1        0.0270
     15  C         24.1330  -22.9830  -11.4820 C.2     1  UNL1        0.0790
     16  C         22.8670  -22.5010  -11.8170 C.2     1  UNL1        0.0270
     17  C         21.8920  -22.3700  -10.8240 C.2     1  UNL1        0.0310
     18  S         25.3740  -23.1690  -12.7460 S.O2    1  UNL1        0.2610
     19  O         26.6580  -22.8830  -12.1420 O.2     1  UNL1       -0.2000
     20  O         25.1230  -24.4310  -13.4120 O.2     1  UNL1       -0.2000
     21  N         25.0170  -21.9280  -13.8350 N.3     1  UNL1       -0.3030
     22  C         25.5150  -20.5560  -13.5380 C.3     1  UNL1        0.1610
     23  C         26.4570  -20.0700  -14.6450 C.3     1  UNL1        0.1880
     24  O         25.8480  -20.0330  -15.9420 O.3     1  UNL1       -0.3880
     25  C         24.7920  -20.9890  -16.1090 C.3     1  UNL1        0.1880
     26  C         25.0050  -22.2620  -15.2860 C.3     1  UNL1        0.1610
     27  S         16.7830  -24.3710   -6.3550 S.O2    1  UNL1        0.2630
     28  O         15.8390  -24.4830   -5.2650 O.2     1  UNL1       -0.2000
     29  O         17.6020  -25.5010   -6.7380 O.2     1  UNL1       -0.2000
     30  N         15.9580  -23.8870   -7.7440 N.pl3   1  UNL1       -0.2810
     31  H         15.1880  -24.5090   -7.9810 H       1  UNL1        0.1790
     32  C         16.6460  -23.2250   -8.7970 C.2     1  UNL1        0.0420
     33  C         16.1980  -21.9640   -9.1950 C.2     1  UNL1        0.0300
     34  C         16.8380  -21.2870  -10.2370 C.2     1  UNL1        0.0090
     35  C         17.9280  -21.8680  -10.8960 C.2     1  UNL1       -0.0620
     36  C         18.6420  -21.1280  -11.9890 C.3     1  UNL1        0.0480
     37  C         18.3870  -23.1220  -10.4730 C.2     1  UNL1        0.0090
     38  C         17.7490  -23.7970   -9.4270 C.2     1  UNL1        0.0300
@<TRIPOS>BOND
     1    25    24    1
     2    25    26    1
     3    24    23    1
     4    26    21    1
     5    23    22    1
     6    21    22    1
     7    21    18    1
     8    20    18    2
     9    18    19    2
    10    18    15    1
    11    36    35    1
    12    16    15    2
    13    16    17    1
    14    15    14    1
    15    35    37    2
    16    35    34    1
    17    17    12    2
    18    37    38    1
    19    34    33    2
    20    14    13    2
    21    12    13    1
    22    12    10    1
    23    38    32    2
    24    33    32    1
    25    32    30    1
    26    11    10    1
    27    10     8   am
    28    31    30    1
    29    30    27    1
    30     8     9    2
    31     8     3    1
    32     2     3    1
    33     2     1    2
    34    29    27    2
    35     3     4    2
    36    27     1    1
    37    27    28    2
    38     1     6    1
    39     4     5    1
    40     6     5    2
    41     6     7    1
