@<TRIPOS>MOLECULE
56620_out_ligand_01.pdbqt
 32 34 0 0 0
SMALL
GASTEIGER

@<TRIPOS>ATOM
      1  C         17.7340  -23.2050   -8.9420 C.2     1  UNL1        0.0860
      2  C         19.1220  -23.4190   -9.0040 C.2     1  UNL1        0.0420
      3  C         19.8810  -22.8390  -10.0230 C.2     1  UNL1        0.0330
      4  C         19.2570  -22.0360  -10.9810 C.2     1  UNL1        0.0170
      5  C         17.8760  -21.8300  -10.9260 C.2     1  UNL1        0.0090
      6  C         17.0910  -22.4060   -9.9080 C.2     1  UNL1       -0.0390
      7  C         15.6110  -22.1470   -9.9280 C.3     1  UNL1        0.0500
      8  C         21.3510  -23.0700  -10.0400 C.2     1  UNL1        0.2560
      9  O         21.8310  -23.8180   -9.1990 O.2     1  UNL1       -0.2670
     10  N         22.0260  -22.4240  -11.0600 N.am    1  UNL1       -0.3230
     11  H         21.4600  -21.9700  -11.7660 H       1  UNL1        0.1690
     12  C         23.4190  -22.4240  -11.2920 C.2     1  UNL1        0.0370
     13  C         24.1810  -21.4850  -10.5800 C.2     1  UNL1        0.0290
     14  C         25.5670  -21.4090  -10.7430 C.2     1  UNL1        0.0050
     15  C         26.2120  -22.2790  -11.6190 C.2     1  UNL1        0.0360
     16  C         25.4570  -23.2250  -12.3230 C.2     1  UNL1        0.1050
     17  C         24.0640  -23.3030  -12.1640 C.2     1  UNL1        0.0650
     18  N         26.1380  -24.1510  -13.2350 N.pl3   1  UNL1       -0.1160
     19  O         27.0660  -24.8360  -12.7830 O.2     1  UNL1       -0.5320
     20  O         25.7500  -24.1850  -14.4120 O.2     1  UNL1       -0.5320
     21  S         16.8460  -24.0240   -7.6180 S.O2    1  UNL1        0.2630
     22  O         15.6640  -24.6470   -8.1790 O.2     1  UNL1       -0.2000
     23  O         17.7960  -24.8210   -6.8710 O.2     1  UNL1       -0.2000
     24  N         16.3040  -22.7450   -6.6650 N.pl3   1  UNL1       -0.2800
     25  H         15.7650  -22.0610   -7.1890 H       1  UNL1        0.1790
     26  C         17.0650  -22.3050   -5.5420 C.2     1  UNL1        0.0480
     27  C         18.1750  -21.4770   -5.7360 C.2     1  UNL1        0.0300
     28  C         18.9040  -21.0030   -4.6460 C.2     1  UNL1        0.0020
     29  C         18.5350  -21.3630   -3.3550 C.2     1  UNL1        0.0010
     30  C         17.4430  -22.2080   -3.1530 C.2     1  UNL1        0.0090
     31  C         16.7000  -22.6960   -4.2410 C.2     1  UNL1       -0.0350
     32  C         15.5270  -23.5960   -3.9700 C.3     1  UNL1        0.0500
@<TRIPOS>BOND
     1    20    18    2
     2    18    19    2
     3    18    16    1
     4    16    17    1
     5    16    15    2
     6    17    12    2
     7    11    10    1
     8    15    14    1
     9    12    10    1
    10    12    13    1
    11    10     8   am
    12     4     5    2
    13     4     3    1
    14     5     6    1
    15    14    13    2
    16     8     3    1
    17     8     9    2
    18     3     2    2
    19     7     6    1
    20     6     1    2
    21     2     1    1
    22     1    21    1
    23    22    21    2
    24    21    23    2
    25    21    24    1
    26    25    24    1
    27    24    26    1
    28    27    26    2
    29    27    28    1
    30    26    31    1
    31    28    29    2
    32    31    32    1
    33    31    30    2
    34    29    30    1
