@<TRIPOS>MOLECULE
56622_out_ligand_01.pdbqt
 31 33 0 0 0
SMALL
GASTEIGER

@<TRIPOS>ATOM
      1  C         17.5310  -23.4970   -8.7100 C.2     1  UNL1        0.0860
      2  C         18.9250  -23.6630   -8.7170 C.2     1  UNL1        0.0420
      3  C         19.6990  -23.0820   -9.7250 C.2     1  UNL1        0.0330
      4  C         19.0830  -22.2930  -10.7010 C.2     1  UNL1        0.0170
      5  C         17.6970  -22.1120  -10.6820 C.2     1  UNL1        0.0090
      6  C         16.8960  -22.7180   -9.6990 C.2     1  UNL1       -0.0390
      7  C         15.4140  -22.4680   -9.7410 C.3     1  UNL1        0.0500
      8  S         16.6180  -24.3140   -7.4010 S.O2    1  UNL1        0.2630
      9  O         15.4810  -24.9880   -7.9900 O.2     1  UNL1       -0.2000
     10  O         17.5590  -25.0430   -6.5780 O.2     1  UNL1       -0.2000
     11  N         16.0630  -23.0220   -6.4630 N.pl3   1  UNL1       -0.2810
     12  H         15.0670  -23.0890   -6.2620 H       1  UNL1        0.1790
     13  C         16.9140  -22.4700   -5.4670 C.2     1  UNL1        0.0430
     14  C         16.6620  -22.6750   -4.1110 C.2     1  UNL1        0.0300
     15  C         17.4760  -22.0710   -3.1530 C.2     1  UNL1        0.0030
     16  C         18.5460  -21.2680   -3.5500 C.2     1  UNL1        0.0070
     17  C         18.8200  -21.0720   -4.9090 C.2     1  UNL1       -0.0600
     18  C         19.9470  -20.1790   -5.3340 C.3     1  UNL1        0.0480
     19  C         17.9890  -21.6710   -5.8650 C.2     1  UNL1        0.0370
     20  C         21.1700  -23.3070   -9.7140 C.2     1  UNL1        0.2520
     21  O         21.6600  -24.1350   -8.9570 O.2     1  UNL1       -0.2680
     22  N         21.9000  -22.5700  -10.6200 N.am    1  UNL1       -0.3490
     23  H         21.4120  -22.0930  -11.3670 H       1  UNL1        0.1630
     24  C         23.3300  -22.7740  -10.7900 C.3     1  UNL1        0.1140
     25  C         24.1420  -21.8620   -9.8650 C.3     1  UNL1        0.0370
     26  C         23.6970  -22.5810  -12.2520 C.2     1  UNL1       -0.0360
     27  C         23.0510  -21.5900  -13.0070 C.2     1  UNL1        0.0090
     28  C         23.3880  -21.3800  -14.3450 C.2     1  UNL1        0.0010
     29  C         24.3780  -22.1540  -14.9450 C.2     1  UNL1        0.0000
     30  C         25.0350  -23.1360  -14.2070 C.2     1  UNL1        0.0010
     31  C         24.7000  -23.3470  -12.8690 C.2     1  UNL1        0.0090
@<TRIPOS>BOND
     1    29    28    2
     2    29    30    1
     3    28    27    1
     4    30    31    2
     5    27    26    2
     6    31    26    1
     7    26    24    1
     8    23    22    1
     9    24    22    1
    10    24    25    1
    11     4     5    2
    12     4     3    1
    13     5     6    1
    14    22    20   am
    15     7     6    1
    16     3    20    1
    17     3     2    2
    18    20    21    2
    19     6     1    2
    20     2     1    1
    21     1     8    1
    22     9     8    2
    23     8    10    2
    24     8    11    1
    25    11    12    1
    26    11    13    1
    27    19    13    2
    28    19    17    1
    29    13    14    1
    30    18    17    1
    31    17    16    2
    32    14    15    2
    33    16    15    1
