@<TRIPOS>MOLECULE
56637_out_ligand_01.pdbqt
 42 45 0 0 0
SMALL
GASTEIGER

@<TRIPOS>ATOM
      1  C         20.9060  -21.8980  -11.0100 C.2     1  UNL1        0.2560
      2  O         20.3240  -20.9080  -11.4360 O.2     1  UNL1       -0.2670
      3  N         22.1540  -22.3610  -11.3840 N.am    1  UNL1       -0.3230
      4  H         22.4400  -23.2570  -11.0120 H       1  UNL1        0.1690
      5  C         20.2110  -22.7280   -9.9890 C.2     1  UNL1        0.0330
      6  C         18.8440  -22.5280   -9.7850 C.2     1  UNL1        0.0420
      7  C         18.1540  -23.2760   -8.8130 C.2     1  UNL1        0.0860
      8  C         18.8320  -24.2340   -8.0360 C.2     1  UNL1       -0.0390
      9  C         20.2130  -24.4100   -8.2520 C.2     1  UNL1        0.0090
     10  C         18.1720  -25.0780   -6.9820 C.3     1  UNL1        0.0500
     11  C         20.8990  -23.6630   -9.2130 C.2     1  UNL1        0.0170
     12  S         16.4030  -22.9380   -8.6700 S.O2    1  UNL1        0.2630
     13  O         16.0330  -22.1750   -9.8450 O.2     1  UNL1       -0.2000
     14  O         15.6790  -24.1400   -8.3260 O.2     1  UNL1       -0.2000
     15  N         16.3470  -21.8520   -7.3780 N.pl3   1  UNL1       -0.2800
     16  H         15.7290  -21.0660   -7.5790 H       1  UNL1        0.1790
     17  C         16.3510  -22.3700   -6.0520 C.2     1  UNL1        0.0480
     18  C         15.2140  -23.0480   -5.6030 C.2     1  UNL1        0.0300
     19  C         15.1560  -23.5340   -4.2980 C.2     1  UNL1        0.0020
     20  C         16.2320  -23.3370   -3.4370 C.2     1  UNL1        0.0010
     21  C         17.3680  -22.6590   -3.8820 C.2     1  UNL1        0.0090
     22  C         17.4470  -22.1730   -5.1970 C.2     1  UNL1       -0.0350
     23  C         18.6770  -21.4270   -5.6310 C.3     1  UNL1        0.0500
     24  C         23.0450  -21.7680  -12.3040 C.2     1  UNL1        0.0350
     25  C         24.3790  -21.6190  -11.8940 C.2     1  UNL1        0.0310
     26  C         25.3260  -21.0320  -12.7380 C.2     1  UNL1        0.0270
     27  C         24.9360  -20.5910  -14.0030 C.2     1  UNL1        0.0750
     28  C         23.6160  -20.7410  -14.4290 C.2     1  UNL1        0.0270
     29  C         22.6730  -21.3240  -13.5760 C.2     1  UNL1        0.0310
     30  S         26.1190  -19.8330  -15.0860 S.O2    1  UNL1        0.2450
     31  O         27.1210  -19.2110  -14.2480 O.2     1  UNL1       -0.2060
     32  O         25.4060  -19.0870  -16.0990 O.2     1  UNL1       -0.2060
     33  N         26.8680  -21.1770  -15.8070 N.pl3   1  UNL1       -0.1800
     34  H         27.3220  -20.8680  -16.6700 H       1  UNL1        0.1460
     35  C         26.0740  -22.3670  -15.9200 C.2     1  UNL1        0.0460
     36  C         26.2430  -23.3770  -14.9690 C.2     1  UNL1        0.0260
     37  C         25.4450  -24.5200  -15.0120 C.2     1  UNL1        0.0040
     38  C         24.4720  -24.6510  -16.0010 C.2     1  UNL1        0.0260
     39  C         24.2930  -23.6430  -16.9550 C.2     1  UNL1        0.0570
     40 CL         23.0700  -23.8880  -18.1530 Cl      1  UNL1       -0.0820
     41  C         25.0910  -22.4920  -16.9180 C.2     1  UNL1        0.0770
     42 CL         24.9140  -21.2290  -18.0940 Cl      1  UNL1       -0.0810
@<TRIPOS>BOND
     1    40    39    1
     2    42    41    1
     3    39    41    1
     4    39    38    2
     5    41    35    2
     6    34    33    1
     7    32    30    2
     8    38    37    1
     9    35    33    1
    10    35    36    1
    11    33    30    1
    12    30    31    2
    13    30    27    1
    14    37    36    2
    15    28    27    2
    16    28    29    1
    17    27    26    1
    18    29    24    2
    19    26    25    2
    20    24    25    1
    21    24     3    1
    22     2     1    2
    23     3     4    1
    24     3     1   am
    25     1     5    1
    26     5     6    2
    27     5    11    1
    28    13    12    2
    29     6     7    1
    30    11     9    2
    31     7    12    1
    32     7     8    2
    33    12    14    2
    34    12    15    1
    35     9     8    1
    36     8    10    1
    37    16    15    1
    38    15    17    1
    39    17    18    2
    40    17    22    1
    41    23    22    1
    42    18    19    1
    43    22    21    2
    44    19    20    2
    45    21    20    1
