@<TRIPOS>MOLECULE
56630_out_ligand_01.pdbqt
 31 33 0 0 0
SMALL
GASTEIGER

@<TRIPOS>ATOM
      1  C         17.5730  -23.4150   -8.8170 C.2     1  UNL1        0.0810
      2  C         18.9630  -23.5930   -8.8990 C.2     1  UNL1        0.0420
      3  C         19.6880  -22.9920   -9.9320 C.2     1  UNL1        0.0330
      4  C         19.0280  -22.2030  -10.8770 C.2     1  UNL1        0.0170
      5  C         17.6440  -22.0290  -10.7970 C.2     1  UNL1        0.0090
      6  C         16.8940  -22.6240   -9.7670 C.2     1  UNL1       -0.0390
      7  C         15.4060  -22.4040   -9.7500 C.3     1  UNL1        0.0500
      8  S         16.7100  -24.2350   -7.4800 S.O2    1  UNL1        0.2460
      9  O         15.6460  -25.0240   -8.0600 O.2     1  UNL1       -0.2060
     10  O         17.7060  -24.8320   -6.6150 O.2     1  UNL1       -0.2060
     11  N         16.0770  -22.8840   -6.6540 N.pl3   1  UNL1       -0.1810
     12  H         15.8640  -22.1610   -7.3410 H       1  UNL1        0.1460
     13  C         16.9090  -22.3900   -5.5900 C.2     1  UNL1        0.0290
     14  C         16.6170  -22.6650   -4.2440 C.2     1  UNL1       -0.0400
     15  C         17.4600  -22.1350   -3.2540 C.2     1  UNL1        0.0090
     16  C         15.4420  -23.5040   -3.8280 C.3     1  UNL1        0.0500
     17  C         18.5590  -21.3430   -3.5950 C.2     1  UNL1        0.0070
     18  C         18.8360  -21.0540   -4.9330 C.2     1  UNL1       -0.0600
     19  C         20.0270  -20.2210   -5.2990 C.3     1  UNL1        0.0480
     20  C         18.0100  -21.5930   -5.9250 C.2     1  UNL1        0.0310
     21  C         21.1640  -23.1840   -9.9690 C.2     1  UNL1        0.2560
     22  O         21.6690  -23.9200   -9.1310 O.2     1  UNL1       -0.2670
     23  N         21.8120  -22.5100  -10.9830 N.am    1  UNL1       -0.3200
     24  H         21.2470  -22.0250  -11.6730 H       1  UNL1        0.1690
     25  C         23.1990  -22.4820  -11.2470 C.2     1  UNL1        0.0730
     26  C         23.8230  -23.1920  -12.2720 C.2     1  UNL1        0.0330
     27  C         25.2090  -23.1010  -12.4510 C.2     1  UNL1        0.0020
     28  C         25.9820  -22.3020  -11.6060 C.2     1  UNL1        0.0030
     29  C         25.3700  -21.5920  -10.5770 C.2     1  UNL1        0.0440
     30  C         23.9920  -21.6880  -10.4070 C.2     1  UNL1        0.1430
     31  F         23.4120  -21.0010   -9.4090 F       1  UNL1       -0.2040
@<TRIPOS>BOND
     1    27    26    1
     2    27    28    2
     3    26    25    2
     4    24    23    1
     5    28    29    1
     6    25    23    1
     7    25    30    1
     8    23    21   am
     9     4     5    2
    10     4     3    1
    11     5     6    1
    12    29    30    2
    13    30    31    1
    14    21     3    1
    15    21    22    2
    16     3     2    2
    17     6     7    1
    18     6     1    2
    19     2     1    1
    20     1     8    1
    21     9     8    2
    22     8    11    1
    23     8    10    2
    24    12    11    1
    25    11    13    1
    26    20    13    2
    27    20    18    1
    28    13    14    1
    29    19    18    1
    30    18    17    2
    31    14    16    1
    32    14    15    2
    33    17    15    1
