@<TRIPOS>MOLECULE
56636_out_ligand_01.pdbqt
 32 34 0 0 0
SMALL
GASTEIGER

@<TRIPOS>ATOM
      1  C         17.4690  -23.4930   -8.7550 C.2     1  UNL1        0.0860
      2  C         18.8660  -23.6230   -8.8220 C.2     1  UNL1        0.0420
      3  C         19.5900  -22.9620   -9.8160 C.2     1  UNL1        0.0330
      4  C         18.9200  -22.1730  -10.7540 C.2     1  UNL1        0.0170
      5  C         17.5300  -22.0320  -10.6800 C.2     1  UNL1        0.0090
      6  C         16.7810  -22.6880   -9.6860 C.2     1  UNL1       -0.0390
      7  C         15.2940  -22.4710   -9.6660 C.3     1  UNL1        0.0500
      8  S         16.6360  -24.3580   -7.4250 S.O2    1  UNL1        0.2630
      9  O         17.6330  -25.0480   -6.6350 O.2     1  UNL1       -0.2000
     10  O         15.5290  -25.0950   -7.9970 O.2     1  UNL1       -0.2000
     11  N         16.0430  -23.1100   -6.4580 N.pl3   1  UNL1       -0.2800
     12  H         15.0520  -23.2050   -6.2590 H       1  UNL1        0.1790
     13  C         16.8810  -22.4850   -5.4870 C.2     1  UNL1        0.0490
     14  C         16.6430  -22.6790   -4.1150 C.2     1  UNL1       -0.0350
     15  C         17.5230  -22.1000   -3.1870 C.2     1  UNL1        0.0090
     16  C         15.5030  -23.5140   -3.6050 C.3     1  UNL1        0.0500
     17  C         18.6050  -21.3270   -3.6120 C.2     1  UNL1        0.0070
     18  C         18.8190  -21.1000   -4.9720 C.2     1  UNL1       -0.0600
     19  C         20.0020  -20.3010   -5.4360 C.3     1  UNL1        0.0480
     20  C         17.9520  -21.6840   -5.9020 C.2     1  UNL1        0.0370
     21  C         21.0670  -23.1450   -9.8640 C.2     1  UNL1        0.2560
     22  O         21.5790  -23.9420   -9.0890 O.2     1  UNL1       -0.2670
     23  N         21.7200  -22.3460  -10.7870 N.am    1  UNL1       -0.3230
     24  H         21.1610  -21.6470  -11.2590 H       1  UNL1        0.1690
     25  C         23.1020  -22.3320  -11.0760 C.2     1  UNL1        0.0360
     26  C         24.0410  -21.5870  -10.3550 C.2     1  UNL1        0.0320
     27  C         25.3960  -21.6310  -10.7000 C.2     1  UNL1        0.0460
     28  C         25.8150  -22.4200  -11.7630 C.2     1  UNL1        0.1380
     29  F         27.1200  -22.4480  -12.0740 F       1  UNL1       -0.2040
     30  C         24.8930  -23.1690  -12.4860 C.2     1  UNL1        0.0740
     31 CL         25.4010  -24.1540  -13.8050 Cl      1  UNL1       -0.0810
     32  C         23.5380  -23.1270  -12.1450 C.2     1  UNL1        0.0560
@<TRIPOS>BOND
     1    31    30    1
     2    30    32    1
     3    30    28    2
     4    32    25    2
     5    29    28    1
     6    28    27    1
     7    24    23    1
     8    25    23    1
     9    25    26    1
    10    23    21   am
    11     4     5    2
    12     4     3    1
    13    27    26    2
    14     5     6    1
    15    21     3    1
    16    21    22    2
    17     3     2    2
    18     6     7    1
    19     6     1    2
    20     2     1    1
    21     1     8    1
    22    10     8    2
    23     8     9    2
    24     8    11    1
    25    11    12    1
    26    11    13    1
    27    20    13    2
    28    20    18    1
    29    13    14    1
    30    19    18    1
    31    18    17    2
    32    14    16    1
    33    14    15    2
    34    17    15    1
