@<TRIPOS>MOLECULE
56638_out_ligand_01.pdbqt
 39 42 0 0 0
SMALL
GASTEIGER

@<TRIPOS>ATOM
      1  C         20.9780  -21.6390   -7.1020 C.2     1  UNL1        0.2560
      2  O         21.7290  -20.8190   -6.5880 O.2     1  UNL1       -0.2670
      3  N         21.2370  -22.4290   -8.2050 N.am    1  UNL1       -0.3230
      4  H         20.4740  -22.9870   -8.5670 H       1  UNL1        0.1690
      5  C         19.6260  -21.8110   -6.4980 C.2     1  UNL1        0.0340
      6  C         18.6390  -22.4720   -7.2390 C.2     1  UNL1        0.0440
      7  C         17.3420  -22.6220   -6.7200 C.2     1  UNL1        0.1020
      8  C         17.0260  -22.1020   -5.4630 C.2     1  UNL1        0.0570
      9  C         18.0160  -21.4350   -4.7290 C.2     1  UNL1        0.0260
     10 CL         15.4590  -22.1740   -4.7450 Cl      1  UNL1       -0.0830
     11  C         19.3090  -21.2840   -5.2400 C.2     1  UNL1        0.0190
     12  S         16.1470  -23.4860   -7.6990 S.O2    1  UNL1        0.2640
     13  O         15.1140  -22.5430   -8.0700 O.2     1  UNL1       -0.2000
     14  O         15.7900  -24.7120   -7.0170 O.2     1  UNL1       -0.2000
     15  N         16.9970  -23.8740   -9.1080 N.pl3   1  UNL1       -0.2810
     16  H         17.6530  -24.6360   -8.9410 H       1  UNL1        0.1790
     17  C         17.4290  -22.8010   -9.9340 C.2     1  UNL1        0.0430
     18  C         16.5540  -21.7590  -10.2380 C.2     1  UNL1        0.0300
     19  C         16.9690  -20.7380  -11.0910 C.2     1  UNL1        0.0030
     20  C         18.2510  -20.7640  -11.6460 C.2     1  UNL1        0.0070
     21  C         19.1270  -21.8180  -11.3590 C.2     1  UNL1       -0.0600
     22  C         20.5110  -21.8440  -11.9380 C.3     1  UNL1        0.0480
     23  C         18.7090  -22.8320  -10.4880 C.2     1  UNL1        0.0370
     24  C         22.4400  -22.5040   -8.9390 C.2     1  UNL1        0.0350
     25  C         23.1810  -23.6780   -9.1090 C.2     1  UNL1        0.0310
     26  C         24.3620  -23.6750   -9.8600 C.2     1  UNL1        0.0270
     27  C         24.7960  -22.4910  -10.4560 C.2     1  UNL1        0.0740
     28  C         24.0750  -21.3070  -10.2900 C.2     1  UNL1        0.0270
     29  C         22.9010  -21.3180   -9.5320 C.2     1  UNL1        0.0310
     30  S         26.2870  -22.4630  -11.4200 S.O2    1  UNL1        0.2430
     31  O         26.7840  -21.1030  -11.3950 O.2     1  UNL1       -0.2060
     32  O         27.1210  -23.5780  -11.0210 O.2     1  UNL1       -0.2060
     33  N         25.7110  -22.7950  -12.9960 N.3     1  UNL1       -0.2060
     34  C         24.3070  -22.4050  -13.2670 C.3     1  UNL1        0.1070
     35  C         24.1820  -21.8120  -14.6750 C.3     1  UNL1        0.0150
     36  C         25.2940  -22.1720  -15.6630 C.3     1  UNL1        0.0010
     37  C         25.4740  -23.6630  -15.9400 C.3     1  UNL1        0.0010
     38  C         25.3470  -24.6020  -14.7420 C.3     1  UNL1        0.0150
     39  C         26.0820  -24.1590  -13.4750 C.3     1  UNL1        0.1070
@<TRIPOS>BOND
     1    37    36    1
     2    37    38    1
     3    36    35    1
     4    38    39    1
     5    35    34    1
     6    39    33    1
     7    34    33    1
     8    33    30    1
     9    22    21    1
    10    20    21    2
    11    20    19    1
    12    30    31    2
    13    30    32    2
    14    30    27    1
    15    21    23    1
    16    19    18    2
    17    23    17    2
    18    27    28    2
    19    27    26    1
    20    28    29    1
    21    18    17    1
    22    17    15    1
    23    26    25    2
    24    29    24    2
    25    25    24    1
    26    15    16    1
    27    15    12    1
    28    24     3    1
    29     4     3    1
    30     3     1   am
    31    13    12    2
    32    12    14    2
    33    12     7    1
    34     6     7    1
    35     6     5    2
    36     1     2    2
    37     1     5    1
    38     7     8    2
    39     5    11    1
    40     8    10    1
    41     8     9    1
    42    11     9    2
