@<TRIPOS>MOLECULE
56645_out_ligand_01.pdbqt
 33 35 0 0 0
SMALL
GASTEIGER

@<TRIPOS>ATOM
      1  C         17.6960  -22.6570   -9.3260 C.2     1  UNL1        0.0860
      2  C         19.0260  -22.3890   -9.6910 C.2     1  UNL1        0.0420
      3  C         19.3120  -21.6910  -10.8670 C.2     1  UNL1        0.0330
      4  C         18.2650  -21.2430  -11.6770 C.2     1  UNL1        0.0170
      5  C         16.9410  -21.5140  -11.3170 C.2     1  UNL1        0.0090
      6  C         16.6310  -22.2240  -10.1410 C.2     1  UNL1       -0.0390
      7  C         15.1810  -22.4720   -9.8310 C.3     1  UNL1        0.0500
      8  C         20.7370  -21.4130  -11.2030 C.2     1  UNL1        0.2560
      9  O         21.0550  -20.2530  -11.4270 O.2     1  UNL1       -0.2670
     10  N         21.5630  -22.5240  -11.1930 N.am    1  UNL1       -0.3220
     11  H         21.1400  -23.3850  -10.8610 H       1  UNL1        0.1690
     12  C         22.9440  -22.5870  -11.5100 C.2     1  UNL1        0.0500
     13  C         23.4310  -22.2090  -12.7690 C.2     1  UNL1        0.0300
     14  C         24.7930  -22.2790  -13.0730 C.2     1  UNL1        0.0020
     15  C         25.6990  -22.7310  -12.1240 C.2     1  UNL1        0.0010
     16  C         25.2370  -23.1160  -10.8690 C.2     1  UNL1        0.0180
     17  C         23.8630  -23.0550  -10.5460 C.2     1  UNL1        0.0740
     18  C         23.4720  -23.4910   -9.1570 C.3     1  UNL1        0.4190
     19  F         23.1820  -22.4390   -8.3380 F       1  UNL1       -0.1660
     20  F         24.4370  -24.2030   -8.5010 F       1  UNL1       -0.1660
     21  F         22.3650  -24.2850   -9.1490 F       1  UNL1       -0.1660
     22  S         17.4710  -23.5850   -7.8140 S.O2    1  UNL1        0.2630
     23  O         16.5750  -24.6990   -8.0280 O.2     1  UNL1       -0.2000
     24  O         18.7940  -23.8130   -7.2660 O.2     1  UNL1       -0.2000
     25  N         16.7420  -22.4540   -6.7950 N.pl3   1  UNL1       -0.2800
     26  H         16.3230  -21.6890   -7.3210 H       1  UNL1        0.1790
     27  C         17.3640  -22.1500   -5.5540 C.2     1  UNL1        0.0480
     28  C         18.4070  -21.2190   -5.5510 C.2     1  UNL1        0.0300
     29  C         19.0230  -20.8570   -4.3540 C.2     1  UNL1        0.0020
     30  C         18.5930  -21.4190   -3.1570 C.2     1  UNL1        0.0010
     31  C         17.5530  -22.3510   -3.1560 C.2     1  UNL1        0.0090
     32  C         16.9330  -22.7380   -4.3540 C.2     1  UNL1       -0.0350
     33  C         15.7980  -23.7220   -4.3020 C.3     1  UNL1        0.0500
@<TRIPOS>BOND
     1    14    13    1
     2    14    15    2
     3    13    12    2
     4    15    16    1
     5     4     5    2
     6     4     3    1
     7    12    10    1
     8    12    17    1
     9     9     8    2
    10     5     6    1
    11     8    10   am
    12     8     3    1
    13    10    11    1
    14    16    17    2
    15     3     2    2
    16    17    18    1
    17     6     7    1
    18     6     1    2
    19     2     1    1
    20     1    22    1
    21    18    21    1
    22    18    20    1
    23    18    19    1
    24    23    22    2
    25    22    24    2
    26    22    25    1
    27    26    25    1
    28    25    27    1
    29    27    28    2
    30    27    32    1
    31    28    29    1
    32    29    30    2
    33    32    33    1
    34    32    31    2
    35    30    31    1
