@<TRIPOS>MOLECULE
56654_out_ligand_01.pdbqt
 30 32 0 0 0
SMALL
GASTEIGER

@<TRIPOS>ATOM
      1  C         17.7350  -23.2190   -8.9580 C.2     1  UNL1        0.0860
      2  C         19.1300  -23.3880   -8.9930 C.2     1  UNL1        0.0420
      3  C         19.8910  -22.7990  -10.0040 C.2     1  UNL1        0.0330
      4  C         19.2630  -22.0330  -10.9870 C.2     1  UNL1        0.0170
      5  C         17.8800  -21.8400  -10.9370 C.2     1  UNL1        0.0090
      6  C         17.0920  -22.4200   -9.9230 C.2     1  UNL1       -0.0390
      7  C         15.6150  -22.1440   -9.9390 C.3     1  UNL1        0.0500
      8  S         16.8890  -24.0570   -7.6200 S.O2    1  UNL1        0.2630
      9  O         17.8300  -24.8350   -6.8470 O.2     1  UNL1       -0.2000
     10  O         15.7220  -24.6870   -8.2020 O.2     1  UNL1       -0.2000
     11  N         16.3090  -22.7860   -6.6730 N.pl3   1  UNL1       -0.2800
     12  H         15.7640  -22.1160   -7.2140 H       1  UNL1        0.1790
     13  C         17.0440  -22.3140   -5.5450 C.2     1  UNL1        0.0480
     14  C         18.1670  -21.5030   -5.7330 C.2     1  UNL1        0.0300
     15  C         18.8900  -21.0260   -4.6390 C.2     1  UNL1        0.0020
     16  C         18.5020  -21.3700   -3.3490 C.2     1  UNL1        0.0010
     17  C         17.4000  -22.2020   -3.1530 C.2     1  UNL1        0.0090
     18  C         16.6610  -22.6900   -4.2450 C.2     1  UNL1       -0.0350
     19  C         15.5010  -23.6090   -3.9790 C.3     1  UNL1        0.0500
     20  C         21.3560  -23.0580  -10.0270 C.2     1  UNL1        0.2560
     21  O         21.8100  -23.8460   -9.2070 O.2     1  UNL1       -0.2670
     22  N         22.0600  -22.3390  -10.9740 N.am    1  UNL1       -0.3230
     23  H         21.5490  -21.6320  -11.4880 H       1  UNL1        0.1690
     24  C         23.4430  -22.4120  -11.2470 C.2     1  UNL1        0.0370
     25  C         24.2740  -21.4900  -10.5940 C.2     1  UNL1        0.0290
     26  C         25.6560  -21.4890  -10.8110 C.2     1  UNL1        0.0050
     27  C         26.2170  -22.4120  -11.6880 C.2     1  UNL1        0.0420
     28  C         25.3920  -23.3220  -12.3380 C.2     1  UNL1        0.1180
     29  F         25.9350  -24.2060  -13.1850 F       1  UNL1       -0.2060
     30  C         24.0160  -23.3310  -12.1270 C.2     1  UNL1        0.0710
@<TRIPOS>BOND
     1    29    28    1
     2    28    30    1
     3    28    27    2
     4    30    24    2
     5    27    26    1
     6    23    22    1
     7    24    22    1
     8    24    25    1
     9     4     5    2
    10     4     3    1
    11    22    20   am
    12     5     6    1
    13    26    25    2
    14    20     3    1
    15    20    21    2
    16     3     2    2
    17     7     6    1
    18     6     1    2
    19     2     1    1
    20     1     8    1
    21    10     8    2
    22     8     9    2
    23     8    11    1
    24    12    11    1
    25    11    13    1
    26    14    13    2
    27    14    15    1
    28    13    18    1
    29    15    16    2
    30    18    19    1
    31    18    17    2
    32    16    17    1
