@<TRIPOS>MOLECULE
56653_out_ligand_01.pdbqt
 31 33 0 0 0
SMALL
GASTEIGER

@<TRIPOS>ATOM
      1  C         17.6210  -23.5130   -8.6740 C.2     1  UNL1        0.0860
      2  C         19.0140  -23.6970   -8.5950 C.2     1  UNL1        0.0420
      3  C         19.8590  -23.1090   -9.5400 C.2     1  UNL1        0.0330
      4  C         19.3070  -22.3350  -10.5630 C.2     1  UNL1        0.0170
      5  C         17.9230  -22.1620  -10.6530 C.2     1  UNL1        0.0090
      6  C         17.0560  -22.7420   -9.7110 C.2     1  UNL1       -0.0390
      7  C         15.5800  -22.5180   -9.8780 C.3     1  UNL1        0.0500
      8  S         16.6290  -24.3250   -7.4220 S.O2    1  UNL1        0.2630
      9  O         17.5140  -25.1600   -6.6350 O.2     1  UNL1       -0.2000
     10  O         15.4620  -24.9000   -8.0550 O.2     1  UNL1       -0.2000
     11  N         16.0770  -23.0420   -6.4760 N.pl3   1  UNL1       -0.2800
     12  H         15.4420  -22.4280   -6.9780 H       1  UNL1        0.1790
     13  C         16.9200  -22.4780   -5.4720 C.2     1  UNL1        0.0490
     14  C         16.6710  -22.7240   -4.1110 C.2     1  UNL1       -0.0350
     15  C         17.4800  -22.0930   -3.1530 C.2     1  UNL1        0.0090
     16  C         15.5490  -23.6070   -3.6420 C.3     1  UNL1        0.0500
     17  C         18.5300  -21.2570   -3.5390 C.2     1  UNL1        0.0070
     18  C         18.8030  -21.0450   -4.8910 C.2     1  UNL1       -0.0600
     19  C         19.9130  -20.1260   -5.3080 C.3     1  UNL1        0.0480
     20  C         17.9880  -21.6550   -5.8510 C.2     1  UNL1        0.0370
     21  C         21.3410  -23.2520   -9.4800 C.2     1  UNL1        0.2520
     22  O         21.8430  -24.3300   -9.1800 O.2     1  UNL1       -0.2680
     23  N         22.0810  -22.1210   -9.7440 N.am    1  UNL1       -0.3510
     24  H         21.6340  -21.2150   -9.7030 H       1  UNL1        0.1630
     25  C         23.5180  -22.1100   -9.5520 C.3     1  UNL1        0.1820
     26  C         24.2400  -21.7330  -10.8260 C.2     1  UNL1        0.0510
     27  C         23.8290  -22.2580  -12.0490 C.2     1  UNL1        0.0290
     28  C         24.5390  -21.9200  -13.1980 C.2     1  UNL1        0.0030
     29  C         25.6390  -21.0780  -13.0950 C.2     1  UNL1        0.0190
     30  C         25.9900  -20.6110  -11.8410 C.2     1  UNL1        0.1170
     31  N         25.3230  -20.9220  -10.7060 N.2     1  UNL1       -0.2640
@<TRIPOS>BOND
     1    28    29    2
     2    28    27    1
     3    29    30    1
     4    27    26    2
     5    30    31    2
     6    26    31    1
     7    26    25    1
     8     5     4    2
     9     5     6    1
    10     4     3    1
    11     7     6    1
    12    23    24    1
    13    23    25    1
    14    23    21   am
    15     6     1    2
    16     3    21    1
    17     3     2    2
    18    21    22    2
    19     1     2    1
    20     1     8    1
    21    10     8    2
    22     8     9    2
    23     8    11    1
    24    12    11    1
    25    11    13    1
    26    20    13    2
    27    20    18    1
    28    13    14    1
    29    19    18    1
    30    18    17    2
    31    14    16    1
    32    14    15    2
    33    17    15    1
