@<TRIPOS>MOLECULE
56668_out_ligand_01.pdbqt
 31 33 0 0 0
SMALL
GASTEIGER

@<TRIPOS>ATOM
      1  C         20.1030  -21.7680  -11.3780 C.2     1  UNL1        0.0330
      2  C         19.0040  -21.2030  -12.0270 C.2     1  UNL1        0.0170
      3  C         17.7240  -21.3520  -11.4860 C.2     1  UNL1        0.0090
      4  C         17.5100  -22.0820  -10.3000 C.2     1  UNL1       -0.0390
      5  C         16.1000  -22.1940   -9.7920 C.3     1  UNL1        0.0500
      6  C         18.6240  -22.6680   -9.6700 C.2     1  UNL1        0.0860
      7  C         19.9130  -22.4980  -10.2030 C.2     1  UNL1        0.0420
      8  C         21.4790  -21.6680  -11.9340 C.2     1  UNL1        0.2560
      9  N         22.4470  -22.3380  -11.2110 N.am    1  UNL1       -0.3230
     10  H         22.1270  -22.9370  -10.4600 H       1  UNL1        0.1690
     11  O         21.6290  -21.0430  -12.9780 O.2     1  UNL1       -0.2670
     12  C         23.8340  -22.3730  -11.4710 C.2     1  UNL1        0.0360
     13  C         24.6450  -21.5040  -10.7310 C.2     1  UNL1        0.0290
     14  C         26.0240  -21.4730  -10.9370 C.2     1  UNL1        0.0040
     15  C         26.6040  -22.3150  -11.8850 C.2     1  UNL1        0.0180
     16  C         25.8120  -23.1940  -12.6280 C.2     1  UNL1        0.0020
     17  C         24.4250  -23.2060  -12.4260 C.2     1  UNL1        0.0480
     18  S         26.6140  -24.2310  -13.8430 S.3     1  UNL1       -0.1340
     19  C         25.3550  -24.2670  -15.1480 C.3     1  UNL1        0.0950
     20  S         18.5280  -23.6620   -8.1820 S.O2    1  UNL1        0.2630
     21  O         19.7740  -24.3620   -7.9680 O.2     1  UNL1       -0.2000
     22  O         17.2760  -24.3850   -8.2500 O.2     1  UNL1       -0.2000
     23  N         18.3380  -22.5030   -6.9650 N.pl3   1  UNL1       -0.2810
     24  H         19.2320  -22.1460   -6.6320 H       1  UNL1        0.1790
     25  C         17.2950  -22.6660   -6.0110 C.2     1  UNL1        0.0430
     26  C         17.5230  -23.3290   -4.8080 C.2     1  UNL1        0.0300
     27  C         16.4980  -23.4350   -3.8680 C.2     1  UNL1        0.0030
     28  C         15.2460  -22.8790   -4.1320 C.2     1  UNL1        0.0070
     29  C         15.0010  -22.2250   -5.3460 C.2     1  UNL1       -0.0600
     30  C         13.6680  -21.5940   -5.6180 C.3     1  UNL1        0.0480
     31  C         16.0400  -22.1140   -6.2810 C.2     1  UNL1        0.0370
@<TRIPOS>BOND
     1    19    18    1
     2    18    16    1
     3    11     8    2
     4    16    17    1
     5    16    15    2
     6    17    12    2
     7     2     3    1
     8     2     1    2
     9     8     1    1
    10     8     9   am
    11    15    14    1
    12     3     4    2
    13    12     9    1
    14    12    13    1
    15     1     7    1
    16     9    10    1
    17    14    13    2
    18     4     5    1
    19     4     6    1
    20     7     6    2
    21     6    20    1
    22    22    20    2
    23    20    21    2
    24    20    23    1
    25    23    24    1
    26    23    25    1
    27    31    25    2
    28    31    29    1
    29    25    26    1
    30    30    29    1
    31    29    28    2
    32    26    27    2
    33    28    27    1
