@<TRIPOS>MOLECULE
56661_out_ligand_01.pdbqt
 31 34 0 0 0
SMALL
GASTEIGER

@<TRIPOS>ATOM
      1  C         17.6560  -23.5180   -8.6740 C.2     1  UNL1        0.0970
      2  C         19.0490  -23.7000   -8.6760 C.2     1  UNL1        0.0430
      3  C         19.8340  -23.1040   -9.6700 C.2     1  UNL1        0.0330
      4  C         19.2250  -22.3470  -10.6750 C.2     1  UNL1        0.0190
      5  C         17.8380  -22.1740  -10.6730 C.2     1  UNL1        0.0260
      6  C         17.0470  -22.7560   -9.6740 C.2     1  UNL1        0.0570
      7 CL         15.3470  -22.4630   -9.7690 Cl      1  UNL1       -0.0830
      8  S         16.7100  -24.2820   -7.3830 S.O2    1  UNL1        0.2470
      9  O         17.6380  -24.9600   -6.5020 O.2     1  UNL1       -0.2050
     10  O         15.6020  -24.9780   -7.9980 O.2     1  UNL1       -0.2050
     11  N         16.0730  -22.9170   -6.5750 N.pl3   1  UNL1       -0.1810
     12  H         15.1870  -23.2310   -6.1650 H       1  UNL1        0.1460
     13  C         16.9240  -22.4000   -5.5390 C.2     1  UNL1        0.0290
     14  C         16.6270  -22.6620   -4.1950 C.2     1  UNL1       -0.0400
     15  C         17.4600  -22.1200   -3.2070 C.2     1  UNL1        0.0090
     16  C         15.4290  -23.4750   -3.7950 C.3     1  UNL1        0.0500
     17  C         18.5610  -21.3330   -3.5530 C.2     1  UNL1        0.0070
     18  C         18.8420  -21.0540   -4.8950 C.2     1  UNL1       -0.0600
     19  C         20.0210  -20.2090   -5.2770 C.3     1  UNL1        0.0480
     20  C         18.0200  -21.6000   -5.8880 C.2     1  UNL1        0.0310
     21  C         21.3020  -23.3350   -9.6470 C.2     1  UNL1        0.2520
     22  O         21.7880  -24.0640   -8.7920 O.2     1  UNL1       -0.2680
     23  N         22.0380  -22.6810  -10.6110 N.am    1  UNL1       -0.3520
     24  H         21.5770  -22.0810  -11.2800 H       1  UNL1        0.1630
     25  C         23.4660  -22.9120  -10.7520 C.3     1  UNL1        0.0890
     26  C         24.2990  -21.6990  -10.2870 C.3     1  UNL1        0.0300
     27  C         25.1080  -21.3330  -11.5450 C.3     1  UNL1       -0.0120
     28  C         26.1550  -22.4300  -11.8040 C.3     1  UNL1        0.0050
     29  C         24.0930  -21.5960  -12.6560 C.3     1  UNL1        0.0110
     30  C         25.3060  -23.6070  -12.3060 C.3     1  UNL1        0.0070
     31  C         23.8720  -23.0520  -12.2390 C.3     1  UNL1        0.0090
@<TRIPOS>BOND
     1    29    31    1
     2    29    27    1
     3    30    31    1
     4    30    28    1
     5    31    25    1
     6    28    27    1
     7    27    26    1
     8    24    23    1
     9    25    23    1
    10    25    26    1
    11     4     5    2
    12     4     3    1
    13     5     6    1
    14    23    21   am
    15     7     6    1
    16     6     1    2
    17     3    21    1
    18     3     2    2
    19    21    22    2
    20     2     1    1
    21     1     8    1
    22    10     8    2
    23     8    11    1
    24     8     9    2
    25    11    12    1
    26    11    13    1
    27    20    13    2
    28    20    18    1
    29    13    14    1
    30    19    18    1
    31    18    17    2
    32    14    16    1
    33    14    15    2
    34    17    15    1
