@<TRIPOS>MOLECULE
56675_out_ligand_01.pdbqt
 30 33 0 0 0
SMALL
GASTEIGER

@<TRIPOS>ATOM
      1  C         18.6260  -22.5590   -9.8920 C.2     1  UNL1        0.0970
      2  C         19.9450  -23.0390   -9.8320 C.2     1  UNL1        0.0430
      3  C         20.9230  -22.5340  -10.7000 C.2     1  UNL1        0.0330
      4  C         20.5830  -21.5270  -11.6080 C.2     1  UNL1        0.0190
      5  C         19.2700  -21.0490  -11.6620 C.2     1  UNL1        0.0260
      6  C         18.2830  -21.5620  -10.8080 C.2     1  UNL1        0.0570
      7 CL         16.7010  -20.9020  -10.9870 Cl      1  UNL1       -0.0830
      8  S         17.4350  -23.2370   -8.7630 S.O2    1  UNL1        0.2470
      9  O         16.2500  -23.5660   -9.5310 O.2     1  UNL1       -0.2050
     10  O         18.1100  -24.2300   -7.9600 O.2     1  UNL1       -0.2050
     11  N         17.0150  -21.8600   -7.8440 N.pl3   1  UNL1       -0.1810
     12  H         16.1390  -21.5020   -8.2230 H       1  UNL1        0.1460
     13  C         16.9000  -22.0990   -6.4280 C.2     1  UNL1        0.0280
     14  C         15.6650  -22.5270   -5.9290 C.2     1  UNL1        0.0250
     15  C         15.4920  -22.7480   -4.5630 C.2     1  UNL1        0.0020
     16  C         16.5530  -22.5390   -3.6880 C.2     1  UNL1        0.0010
     17  C         17.7850  -22.1040   -4.1780 C.2     1  UNL1        0.0080
     18  C         17.9780  -21.8770   -5.5520 C.2     1  UNL1       -0.0400
     19  C         19.3210  -21.3950   -6.0230 C.3     1  UNL1        0.0500
     20  C         22.3090  -23.0700  -10.5990 C.2     1  UNL1        0.2520
     21  O         22.6140  -23.7960   -9.6610 O.2     1  UNL1       -0.2680
     22  N         23.1740  -22.7270  -11.6190 N.am    1  UNL1       -0.3520
     23  H         22.7930  -22.3440  -12.4720 H       1  UNL1        0.1630
     24  C         24.5240  -23.2530  -11.6540 C.3     1  UNL1        0.0890
     25  C         25.1960  -23.1040  -13.0350 C.3     1  UNL1        0.0300
     26  C         26.5050  -22.3620  -12.7070 C.3     1  UNL1       -0.0120
     27  C         26.1740  -20.8980  -12.3700 C.3     1  UNL1        0.0050
     28  C         26.8590  -22.9290  -11.3320 C.3     1  UNL1        0.0110
     29  C         25.5120  -21.0060  -10.9900 C.3     1  UNL1        0.0070
     30  C         25.5170  -22.5230  -10.7170 C.3     1  UNL1        0.0090
@<TRIPOS>BOND
     1    25    26    1
     2    25    24    1
     3    26    27    1
     4    26    28    1
     5    23    22    1
     6    27    29    1
     7     5     4    2
     8     5     6    1
     9    24    22    1
    10    24    30    1
    11    22    20   am
    12     4     3    1
    13    28    30    1
    14    29    30    1
    15     7     6    1
    16     6     1    2
    17     3    20    1
    18     3     2    2
    19    20    21    2
    20     1     2    1
    21     1     8    1
    22     9     8    2
    23     8    10    2
    24     8    11    1
    25    12    11    1
    26    11    13    1
    27    13    14    2
    28    13    18    1
    29    19    18    1
    30    14    15    1
    31    18    17    2
    32    15    16    2
    33    17    16    1
