@<TRIPOS>MOLECULE
56674_out_ligand_01.pdbqt
 34 36 0 0 0
SMALL
GASTEIGER

@<TRIPOS>ATOM
      1  C         20.5290  -22.0620  -10.2630 C.2     1  UNL1        0.0860
      2  C         19.4480  -22.4550   -9.4600 C.2     1  UNL1        0.0420
      3  C         18.1410  -22.3640   -9.9450 C.2     1  UNL1        0.0330
      4  C         17.9110  -21.8710  -11.2320 C.2     1  UNL1        0.0170
      5  C         18.9880  -21.4820  -12.0330 C.2     1  UNL1        0.0090
      6  C         20.3110  -21.5630  -11.5650 C.2     1  UNL1       -0.0390
      7  C         21.4190  -21.1300  -12.4840 C.3     1  UNL1        0.0500
      8  C         17.0170  -22.7620   -9.0520 C.2     1  UNL1        0.2560
      9  O         16.1610  -23.5070   -9.5080 O.2     1  UNL1       -0.2670
     10  N         17.0670  -22.2140   -7.7810 N.am    1  UNL1       -0.3220
     11  H         17.8020  -21.5300   -7.6260 H       1  UNL1        0.1690
     12  C         16.1590  -22.4120   -6.7100 C.2     1  UNL1        0.0500
     13  C         14.9050  -21.7860   -6.6770 C.2     1  UNL1        0.0300
     14  C         14.0210  -21.9830   -5.6110 C.2     1  UNL1        0.0020
     15  C         14.3710  -22.8160   -4.5580 C.2     1  UNL1        0.0010
     16  C         15.6080  -23.4530   -4.5740 C.2     1  UNL1        0.0180
     17  C         16.5140  -23.2620   -5.6410 C.2     1  UNL1        0.0740
     18  C         17.8090  -24.0310   -5.5840 C.3     1  UNL1        0.4190
     19  F         18.1270  -24.4980   -4.3400 F       1  UNL1       -0.1660
     20  F         18.8760  -23.2760   -5.9690 F       1  UNL1       -0.1660
     21  F         17.8170  -25.1250   -6.3960 F       1  UNL1       -0.1660
     22  S         22.1680  -22.2430   -9.5740 S.O2    1  UNL1        0.2630
     23  O         22.8540  -20.9710   -9.6500 O.2     1  UNL1       -0.2000
     24  O         22.0440  -22.9240   -8.3020 O.2     1  UNL1       -0.2000
     25  N         22.9020  -23.3410  -10.6330 N.pl3   1  UNL1       -0.2810
     26  H         23.0320  -24.2400  -10.1730 H       1  UNL1        0.1790
     27  C         23.9790  -22.8630  -11.4300 C.2     1  UNL1        0.0430
     28  C         24.2490  -23.4620  -12.6550 C.2     1  UNL1        0.0300
     29  C         25.2690  -22.9580  -13.4620 C.2     1  UNL1        0.0090
     30  C         26.0250  -21.8470  -13.0550 C.2     1  UNL1       -0.0560
     31  C         27.1070  -21.3230  -13.9600 C.3     1  UNL1        0.0490
     32  C         25.7460  -21.2380  -11.8140 C.2     1  UNL1       -0.0540
     33  C         24.7150  -21.7530  -11.0120 C.2     1  UNL1        0.0370
     34  C         26.5100  -20.0310  -11.3430 C.3     1  UNL1        0.0490
@<TRIPOS>BOND
     1    31    30    1
     2    29    30    2
     3    29    28    1
     4    30    32    1
     5    28    27    2
     6     7     6    1
     7     5     6    1
     8     5     4    2
     9    32    34    1
    10    32    33    2
    11     6     1    2
    12    27    33    1
    13    27    25    1
    14     4     3    1
    15    25    26    1
    16    25    22    1
    17     1    22    1
    18     1     2    1
    19     3     2    2
    20     3     8    1
    21    23    22    2
    22    22    24    2
    23     9     8    2
    24     8    10   am
    25    10    11    1
    26    10    12    1
    27    12    13    2
    28    12    17    1
    29    13    14    1
    30    21    18    1
    31    20    18    1
    32    17    18    1
    33    17    16    2
    34    14    15    2
    35    18    19    1
    36    16    15    1
