@<TRIPOS>MOLECULE
56686_out_ligand_01.pdbqt
 43 46 0 0 0
SMALL
GASTEIGER

@<TRIPOS>ATOM
      1  C         20.8790  -21.5080   -6.8970 C.2     1  UNL1        0.2560
      2  O         21.6210  -20.6430   -6.4510 O.2     1  UNL1       -0.2670
      3  N         21.1650  -22.4200   -7.8980 N.am    1  UNL1       -0.3230
      4  H         20.4890  -23.1580   -8.0470 H       1  UNL1        0.1690
      5  C         19.5310  -21.6690   -6.2870 C.2     1  UNL1        0.0330
      6  C         19.2410  -21.1650   -5.0160 C.2     1  UNL1        0.0170
      7  C         17.9610  -21.3220   -4.4800 C.2     1  UNL1        0.0090
      8  C         16.9430  -21.9700   -5.2030 C.2     1  UNL1       -0.0390
      9  C         15.5970  -22.1130   -4.5470 C.3     1  UNL1        0.0500
     10  C         17.2540  -22.4900   -6.4760 C.2     1  UNL1        0.0860
     11  C         18.5480  -22.3540   -7.0050 C.2     1  UNL1        0.0420
     12  S         16.0540  -23.3590   -7.4790 S.O2    1  UNL1        0.2630
     13  O         15.6540  -24.5580   -6.7720 O.2     1  UNL1       -0.2000
     14  O         15.0560  -22.4100   -7.9250 O.2     1  UNL1       -0.2000
     15  N         16.9450  -23.7880   -8.8430 N.pl3   1  UNL1       -0.2800
     16  H         16.7490  -24.7310   -9.1670 H       1  UNL1        0.1790
     17  C         17.4030  -22.8080   -9.7770 C.2     1  UNL1        0.0490
     18  C         16.5620  -21.7500  -10.1330 C.2     1  UNL1        0.0310
     19  C         16.9880  -20.7820  -11.0380 C.2     1  UNL1        0.0030
     20  C         18.2670  -20.8560  -11.5830 C.2     1  UNL1        0.0070
     21  C         19.1380  -21.9010  -11.2330 C.2     1  UNL1       -0.0540
     22  C         20.5080  -21.9230  -11.8600 C.3     1  UNL1        0.0490
     23  C         18.7110  -22.8890  -10.3100 C.2     1  UNL1       -0.0290
     24  C         19.6210  -24.0240   -9.9150 C.3     1  UNL1        0.0510
     25  C         22.3530  -22.5140   -8.6490 C.2     1  UNL1        0.0350
     26  C         22.9580  -21.4280   -9.2890 C.2     1  UNL1        0.0310
     27  C         24.1440  -21.5970  -10.0090 C.2     1  UNL1        0.0270
     28  C         24.7380  -22.8600  -10.0750 C.2     1  UNL1        0.0800
     29  C         24.1320  -23.9600   -9.4670 C.2     1  UNL1        0.0270
     30  C         22.9420  -23.7820   -8.7550 C.2     1  UNL1        0.0310
     31  S         26.2610  -23.0780  -10.9670 S.O2    1  UNL1        0.2630
     32  O         26.7030  -21.7690  -11.3980 O.2     1  UNL1       -0.2000
     33  O         27.1200  -23.9470  -10.1970 O.2     1  UNL1       -0.2000
     34  N         25.7640  -23.8790  -12.3720 N.pl3   1  UNL1       -0.2810
     35  H         26.2960  -24.7330  -12.5310 H       1  UNL1        0.1790
     36  C         25.3450  -23.1210  -13.5020 C.2     1  UNL1        0.0450
     37  C         24.2750  -22.2320  -13.4090 C.2     1  UNL1        0.0540
     38  C         23.9130  -21.4740  -14.5240 C.2     1  UNL1        0.0370
     39 CL         22.5910  -20.3770  -14.4140 Cl      1  UNL1       -0.0840
     40  C         24.6090  -21.5940  -15.7240 C.2     1  UNL1        0.0480
     41  C         25.6760  -22.4850  -15.8040 C.2     1  UNL1        0.0370
     42 CL         26.5520  -22.6400  -17.2780 Cl      1  UNL1       -0.0840
     43  C         26.0470  -23.2540  -14.7010 C.2     1  UNL1        0.0540
@<TRIPOS>BOND
     1    42    41    1
     2    41    40    2
     3    41    43    1
     4    40    38    1
     5    43    36    2
     6    38    39    1
     7    38    37    2
     8    36    37    1
     9    36    34    1
    10    35    34    1
    11    34    31    1
    12    22    21    1
    13    20    21    2
    14    20    19    1
    15    32    31    2
    16    21    23    1
    17    19    18    2
    18    31    33    2
    19    31    28    1
    20    23    24    1
    21    23    17    2
    22    18    17    1
    23    28    27    2
    24    28    29    1
    25    27    26    1
    26    17    15    1
    27    29    30    2
    28    26    25    2
    29    16    15    1
    30    15    12    1
    31    30    25    1
    32    25     3    1
    33     4     3    1
    34    14    12    2
    35     3     1   am
    36    12    13    2
    37    12    10    1
    38    11    10    1
    39    11     5    2
    40     1     2    2
    41     1     5    1
    42    10     8    2
    43     5     6    1
    44     8     9    1
    45     8     7    1
    46     6     7    2
