@<TRIPOS>MOLECULE
56684_out_ligand_01.pdbqt
 34 37 0 0 0
SMALL
GASTEIGER

@<TRIPOS>ATOM
      1  C         22.8710  -22.3750  -11.5450 C.2     1  UNL1        0.0860
      2  C         22.1800  -22.9600  -10.4690 C.2     1  UNL1        0.0420
      3  C         20.8000  -22.7870  -10.3340 C.2     1  UNL1        0.0330
      4  C         20.1020  -22.0320  -11.2780 C.2     1  UNL1        0.0170
      5  C         20.7860  -21.4690  -12.3610 C.2     1  UNL1        0.0090
      6  C         22.1760  -21.6320  -12.5180 C.2     1  UNL1       -0.0390
      7  C         22.8280  -20.9900  -13.7080 C.3     1  UNL1        0.0500
      8  C         20.1260  -23.3840   -9.1510 C.2     1  UNL1        0.2560
      9  O         20.5810  -24.4310   -8.7060 O.2     1  UNL1       -0.2670
     10  N         19.0210  -22.6880   -8.7000 N.am    1  UNL1       -0.3230
     11  H         18.7120  -21.9050   -9.2640 H       1  UNL1        0.1690
     12  C         18.2080  -22.9980   -7.5900 C.2     1  UNL1        0.0370
     13  C         17.1350  -23.8730   -7.8120 C.2     1  UNL1        0.0320
     14  C         16.2810  -24.2380   -6.7660 C.2     1  UNL1        0.0420
     15  C         16.4940  -23.7270   -5.4920 C.2     1  UNL1        0.1020
     16  C         17.5410  -22.8290   -5.2670 C.2     1  UNL1        0.1040
     17  O         15.6340  -24.1430   -4.5070 O.2     1  UNL1       -0.3460
     18  C         18.4030  -22.4760   -6.3100 C.2     1  UNL1        0.0690
     19  O         17.7900  -22.2610   -4.0430 O.2     1  UNL1       -0.3460
     20  C         16.6780  -22.4190   -3.1550 C.3     1  UNL1        0.2020
     21  C         16.1500  -23.8420   -3.2070 C.3     1  UNL1        0.2020
     22  S         24.6410  -22.6510  -11.5670 S.O2    1  UNL1        0.2630
     23  O         25.0830  -23.1560  -10.2870 O.2     1  UNL1       -0.2000
     24  O         25.2350  -21.4600  -12.1390 O.2     1  UNL1       -0.2000
     25  N         24.8180  -23.8700  -12.7250 N.pl3   1  UNL1       -0.2810
     26  H         25.1240  -24.7500  -12.3140 H       1  UNL1        0.1790
     27  C         25.3110  -23.5360  -14.0170 C.2     1  UNL1        0.0430
     28  C         26.6260  -23.1010  -14.1450 C.2     1  UNL1        0.0300
     29  C         27.1210  -22.7400  -15.3980 C.2     1  UNL1        0.0090
     30  C         26.3090  -22.8160  -16.5400 C.2     1  UNL1       -0.0560
     31  C         26.8770  -22.4190  -17.8750 C.3     1  UNL1        0.0490
     32  C         24.9740  -23.2470  -16.4090 C.2     1  UNL1       -0.0540
     33  C         24.4930  -23.6150  -15.1410 C.2     1  UNL1        0.0370
     34  C         24.0600  -23.3640  -17.5970 C.3     1  UNL1        0.0490
@<TRIPOS>BOND
     1    31    30    1
     2    34    32    1
     3    30    32    2
     4    30    29    1
     5    32    33    1
     6    29    28    2
     7    33    27    2
     8    28    27    1
     9    27    25    1
    10     7     6    1
    11    25    26    1
    12    25    22    1
    13     6     5    1
    14     6     1    2
    15     5     4    2
    16    24    22    2
    17    22     1    1
    18    22    23    2
    19     1     2    1
    20     4     3    1
    21     2     3    2
    22     3     8    1
    23    11    10    1
    24     8     9    2
    25     8    10   am
    26    10    12    1
    27    13    12    2
    28    13    14    1
    29    12    18    1
    30    14    15    2
    31    18    16    2
    32    15    16    1
    33    15    17    1
    34    16    19    1
    35    17    21    1
    36    19    20    1
    37    21    20    1
