@<TRIPOS>MOLECULE
5669_out_ligand_01.pdbqt
 34 37 0 0 0
SMALL
GASTEIGER

@<TRIPOS>ATOM
      1  C         17.2830  -22.4850   -9.9360 C.2     1  UNL1        0.0770
      2  C         16.9700  -21.3950  -10.7580 C.2     1  UNL1        0.0270
      3  C         17.9620  -20.7730  -11.5240 C.2     1  UNL1        0.0330
      4  C         19.2530  -21.2980  -11.4210 C.ar    1  UNL1        0.0620
      5  N         20.4420  -20.9460  -12.0080 N.ar    1  UNL1       -0.3380
      6  C         21.4300  -21.7970  -11.5610 C.ar    1  UNL1        0.1390
      7  N         20.9150  -22.6700  -10.7120 N.ar    1  UNL1       -0.2280
      8  C         19.5800  -22.3750  -10.6100 C.ar    1  UNL1        0.0870
      9  C         18.5870  -22.9920   -9.8420 C.2     1  UNL1        0.0580
     10  H         20.5640  -20.1860  -12.6580 H       1  UNL1        0.1670
     11  S         16.0100  -23.2620   -8.9710 S.O2    1  UNL1        0.2450
     12  O         15.2740  -22.2080   -8.3090 O.2     1  UNL1       -0.2060
     13  O         15.3640  -24.2570   -9.7990 O.2     1  UNL1       -0.2060
     14  N         16.9520  -24.1300   -7.8400 N.pl3   1  UNL1       -0.1810
     15  H         16.6050  -25.0910   -7.8450 H       1  UNL1        0.1460
     16  C         16.9070  -23.5840   -6.5150 C.2     1  UNL1        0.0230
     17  C         15.8780  -23.9380   -5.6430 C.2     1  UNL1        0.0240
     18  C         15.8150  -23.3600   -4.3760 C.2     1  UNL1        0.0030
     19  C         16.7740  -22.4220   -3.9870 C.2     1  UNL1        0.0160
     20  C         17.8060  -22.0490   -4.8640 C.2     1  UNL1        0.0490
     21  C         17.8540  -22.6320   -6.1400 C.2     1  UNL1        0.0400
     22  C         18.8170  -21.0090   -4.4560 C.3     1  UNL1        0.4170
     23  F         19.9460  -21.0430   -5.2200 F       1  UNL1       -0.1660
     24  F         18.3480  -19.7340   -4.5490 F       1  UNL1       -0.1660
     25  F         19.2350  -21.1650   -3.1700 F       1  UNL1       -0.1660
     26  C         22.8390  -21.7390  -11.9650 C.2     1  UNL1        0.0160
     27  C         23.8960  -21.7870  -11.0460 C.2     1  UNL1        0.0610
     28  C         25.2180  -21.7260  -11.4910 C.2     1  UNL1        0.1590
     29  F         26.2080  -21.7720  -10.5880 F       1  UNL1       -0.2030
     30  C         25.5120  -21.6160  -12.8420 C.2     1  UNL1        0.1930
     31  F         26.7870  -21.5570  -13.2540 F       1  UNL1       -0.2000
     32  C         24.4750  -21.5670  -13.7580 C.2     1  UNL1        0.1590
     33  F         24.7390  -21.4610  -15.0680 F       1  UNL1       -0.2030
     34  C         23.1490  -21.6280  -13.3320 C.2     1  UNL1        0.0610
@<TRIPOS>BOND
     1    33    32    1
     2    32    34    1
     3    32    30    2
     4    34    26    2
     5    31    30    1
     6    30    28    1
     7    10     5    1
     8     5     6   ar
     9     5     4   ar
    10    26     6    1
    11    26    27    1
    12     6     7   ar
    13     3     4    2
    14     3     2    1
    15    28    27    2
    16    28    29    1
    17     4     8   ar
    18     2     1    2
    19     7     8   ar
    20     8     9    2
    21     1     9    1
    22     1    11    1
    23    13    11    2
    24    11    12    2
    25    11    14    1
    26    15    14    1
    27    14    16    1
    28    16    21    2
    29    16    17    1
    30    21    20    1
    31    17    18    2
    32    23    22    1
    33    20    22    1
    34    20    19    2
    35    24    22    1
    36    22    25    1
    37    18    19    1
