@<TRIPOS>MOLECULE
56691_out_ligand_01.pdbqt
 34 37 0 0 0
SMALL
GASTEIGER

@<TRIPOS>ATOM
      1  C         18.3880  -24.8150   -7.2800 C.3     1  UNL1        0.0500
      2  C         19.1300  -24.0360   -8.3310 C.2     1  UNL1       -0.0390
      3  C         20.5100  -24.2680   -8.4710 C.2     1  UNL1        0.0090
      4  C         21.2650  -23.5900   -9.4340 C.2     1  UNL1        0.0170
      5  C         20.6450  -22.6760  -10.2890 C.2     1  UNL1        0.0330
      6  C         19.2750  -22.4310  -10.1670 C.2     1  UNL1        0.0420
      7  C         18.5180  -23.1060   -9.1940 C.2     1  UNL1        0.0860
      8  C         21.4210  -21.9260  -11.3140 C.2     1  UNL1        0.2560
      9  O         20.8680  -21.0030  -11.8960 O.2     1  UNL1       -0.2670
     10  N         22.7080  -22.3900  -11.5130 N.am    1  UNL1       -0.3230
     11  H         22.9660  -23.2460  -11.0370 H       1  UNL1        0.1690
     12  C         23.6940  -21.8480  -12.3640 C.2     1  UNL1        0.0370
     13  C         24.9430  -21.4040  -11.9260 C.2     1  UNL1        0.0320
     14  C         25.8730  -20.8860  -12.8330 C.2     1  UNL1        0.0420
     15  C         25.5550  -20.8040  -14.1840 C.2     1  UNL1        0.1020
     16  C         24.3190  -21.2650  -14.6350 C.2     1  UNL1        0.1040
     17  O         26.5020  -20.2600  -15.0110 O.2     1  UNL1       -0.3460
     18  C         23.3880  -21.7750  -13.7300 C.2     1  UNL1        0.0690
     19  O         23.9400  -21.2390  -15.9540 O.2     1  UNL1       -0.3460
     20  C         25.0640  -21.0190  -16.8130 C.3     1  UNL1        0.2020
     21  C         25.9400  -19.8990  -16.2770 C.3     1  UNL1        0.2020
     22  S         16.7610  -22.7620   -9.1490 S.O2    1  UNL1        0.2630
     23  O         16.4000  -22.1060  -10.3880 O.2     1  UNL1       -0.2000
     24  O         16.0740  -23.9710   -8.7430 O.2     1  UNL1       -0.2000
     25  N         16.6060  -21.6770   -7.8680 N.pl3   1  UNL1       -0.2800
     26  H         16.1980  -20.7890   -8.1460 H       1  UNL1        0.1790
     27  C         16.4180  -22.1480   -6.5330 C.2     1  UNL1        0.0490
     28  C         15.1910  -22.7180   -6.1850 C.2     1  UNL1        0.0310
     29  C         14.9540  -23.1410   -4.8810 C.2     1  UNL1        0.0030
     30  C         15.9460  -23.0000   -3.9180 C.2     1  UNL1        0.0070
     31  C         17.1910  -22.4430   -4.2450 C.2     1  UNL1       -0.0540
     32  C         18.2200  -22.3260   -3.1540 C.3     1  UNL1        0.0490
     33  C         17.4470  -22.0300   -5.5750 C.2     1  UNL1       -0.0290
     34  C         18.7730  -21.4100   -5.9360 C.3     1  UNL1        0.0510
@<TRIPOS>BOND
     1    20    21    1
     2    20    19    1
     3    21    17    1
     4    19    16    1
     5    17    15    1
     6    16    15    2
     7    16    18    1
     8    15    14    1
     9    18    12    2
    10    14    13    2
    11    12    13    1
    12    12    10    1
    13     9     8    2
    14    10     8   am
    15    10    11    1
    16     8     5    1
    17    23    22    2
    18     5     6    2
    19     5     4    1
    20     6     7    1
    21     4     3    2
    22     7    22    1
    23     7     2    2
    24    22    24    2
    25    22    25    1
    26     3     2    1
    27     2     1    1
    28    26    25    1
    29    25    27    1
    30    27    28    2
    31    27    33    1
    32    28    29    1
    33    34    33    1
    34    33    31    2
    35    29    30    2
    36    31    30    1
    37    31    32    1
