@<TRIPOS>MOLECULE
56703_out_ligand_01.pdbqt
 36 38 0 0 0
SMALL
GASTEIGER

@<TRIPOS>ATOM
      1  C         17.9850  -24.8560   -7.2070 C.3     1  UNL1        0.0500
      2  C         18.8990  -24.1930   -8.1980 C.2     1  UNL1       -0.0390
      3  C         20.2400  -24.6180   -8.2410 C.2     1  UNL1        0.0090
      4  C         21.1540  -24.0530   -9.1360 C.2     1  UNL1        0.0170
      5  C         20.7430  -23.0440  -10.0100 C.2     1  UNL1        0.0330
      6  C         19.4080  -22.6320  -10.0070 C.2     1  UNL1        0.0420
      7  C         18.4890  -23.1920   -9.1000 C.2     1  UNL1        0.0860
      8  C         21.6840  -22.4000  -10.9730 C.2     1  UNL1        0.2560
      9  O         21.2350  -21.5720  -11.7530 O.2     1  UNL1       -0.2670
     10  N         23.0060  -22.7870  -10.8480 N.am    1  UNL1       -0.3230
     11  H         23.2400  -23.3890  -10.0680 H       1  UNL1        0.1690
     12  C         24.1010  -22.3520  -11.6250 C.2     1  UNL1        0.0360
     13  C         25.0300  -21.3990  -11.2040 C.2     1  UNL1        0.0290
     14  C         26.0880  -21.0220  -12.0360 C.2     1  UNL1        0.0040
     15  C         26.2310  -21.6010  -13.2940 C.2     1  UNL1        0.0250
     16  C         25.3200  -22.5650  -13.7200 C.2     1  UNL1        0.0260
     17  C         24.2450  -22.9200  -12.8980 C.2     1  UNL1        0.0540
     18  N         25.4930  -23.1050  -15.0440 N.pl3   1  UNL1       -0.1810
     19  C         26.8990  -23.4210  -15.3940 C.3     1  UNL1        0.1350
     20  S         24.6350  -22.3280  -16.3040 S.O2    1  UNL1        0.2110
     21  C         25.9430  -21.9180  -17.4430 C.3     1  UNL1        0.1800
     22  O         24.1160  -21.0830  -15.7720 O.2     1  UNL1       -0.2110
     23  O         23.7420  -23.2800  -16.9320 O.2     1  UNL1       -0.2110
     24  S         16.8100  -22.5790   -9.1950 S.O2    1  UNL1        0.2630
     25  O         15.8690  -23.6630   -9.0270 O.2     1  UNL1       -0.2000
     26  O         16.7330  -21.7280  -10.3650 O.2     1  UNL1       -0.2000
     27  N         16.7390  -21.5410   -7.8760 N.pl3   1  UNL1       -0.2800
     28  H         16.4530  -20.5910   -8.1050 H       1  UNL1        0.1790
     29  C         16.4580  -22.0440   -6.5780 C.2     1  UNL1        0.0490
     30  C         15.1770  -22.5280   -6.3060 C.2     1  UNL1        0.0310
     31  C         14.8630  -23.0020   -5.0370 C.2     1  UNL1        0.0030
     32  C         15.8280  -22.9850   -4.0330 C.2     1  UNL1        0.0070
     33  C         17.1150  -22.4840   -4.2820 C.2     1  UNL1       -0.0540
     34  C         18.1150  -22.4750   -3.1550 C.3     1  UNL1        0.0490
     35  C         17.4310  -21.9710   -5.5620 C.2     1  UNL1       -0.0290
     36  C         18.8010  -21.4040   -5.8330 C.3     1  UNL1        0.0510
@<TRIPOS>BOND
     1    21    20    1
     2    23    20    2
     3    20    22    2
     4    20    18    1
     5    19    18    1
     6    18    16    1
     7    16    15    2
     8    16    17    1
     9    15    14    1
    10    17    12    2
    11    14    13    2
    12     9     8    2
    13    12    13    1
    14    12    10    1
    15     8    10   am
    16     8     5    1
    17    10    11    1
    18    26    24    2
    19     5     6    2
    20     5     4    1
    21     6     7    1
    22    24     7    1
    23    24    25    2
    24    24    27    1
    25     4     3    2
    26     7     2    2
    27     3     2    1
    28     2     1    1
    29    28    27    1
    30    27    29    1
    31    29    30    2
    32    29    35    1
    33    30    31    1
    34    36    35    1
    35    35    33    2
    36    31    32    2
    37    33    32    1
    38    33    34    1
