@<TRIPOS>MOLECULE
5670_out_ligand_01.pdbqt
 27 30 0 0 0
SMALL
GASTEIGER

@<TRIPOS>ATOM
      1  C         16.4030  -22.9400   -8.3540 C.2     1  UNL1        0.2560
      2  O         15.3240  -22.9380   -8.9460 O.2     1  UNL1       -0.2670
      3  N         17.6260  -22.8640   -9.0340 N.am    1  UNL1       -0.3430
      4  C         17.5640  -22.6740  -10.4750 C.3     1  UNL1        0.1310
      5  C         18.8140  -21.9690  -10.9940 C.3     1  UNL1        0.0600
      6  C         20.0940  -22.5900  -10.4820 C.2     1  UNL1       -0.0330
      7  C         20.0550  -23.3760   -9.3110 C.2     1  UNL1       -0.0330
      8  C         21.2400  -23.9510   -8.8200 C.2     1  UNL1        0.0090
      9  C         22.4580  -23.7350   -9.4610 C.2     1  UNL1        0.0020
     10  C         22.5060  -22.9410  -10.6030 C.2     1  UNL1        0.0170
     11  C         21.3330  -22.3660  -11.1190 C.2     1  UNL1        0.0380
     12  C         18.7640  -23.6520   -8.5700 C.3     1  UNL1        0.1650
     13  C         16.4460  -23.0220   -6.8970 C.2     1  UNL1        0.0600
     14  C         15.5730  -23.7840   -6.1390 C.2     1  UNL1        0.1080
     15  N         15.8830  -23.6130   -4.8180 N.pl3   1  UNL1       -0.3590
     16  C         15.1880  -24.2510   -3.7220 C.3     1  UNL1        0.1560
     17  C         16.9300  -22.7270   -4.6810 C.2     1  UNL1        0.0450
     18  C         17.5770  -22.2370   -3.5360 C.2     1  UNL1        0.0300
     19  C         17.2880  -22.3200   -5.9710 C.2     1  UNL1        0.0080
     20  C         18.6040  -21.3050   -3.7090 C.2     1  UNL1        0.0020
     21  C         18.9690  -20.8690   -4.9790 C.2     1  UNL1        0.0010
     22  C         18.3180  -21.3640   -6.1130 C.2     1  UNL1        0.0150
     23  C         21.4430  -21.4980  -12.3230 C.2     1  UNL1        0.2490
     24  N         20.6710  -20.3680  -12.3280 N.am    1  UNL1       -0.3660
     25  H         20.2290  -20.0180  -11.4890 H       1  UNL1        0.1590
     26  H         20.8320  -19.7180  -13.0870 H       1  UNL1        0.1590
     27  O         22.1930  -21.7530  -13.2550 O.2     1  UNL1       -0.2680
@<TRIPOS>BOND
     1    27    23    2
     2    26    24    1
     3    24    23   am
     4    24    25    1
     5    23    11    1
     6    11    10    1
     7    11     6    2
     8     5     6    1
     9     5     4    1
    10    10     9    2
    11     6     7    1
    12     4     3    1
    13     9     8    1
    14     7     8    2
    15     7    12    1
    16     3    12    1
    17     3     1   am
    18     2     1    2
    19     1    13    1
    20    13    14    2
    21    13    19    1
    22    14    15    1
    23    22    19    1
    24    22    21    2
    25    19    17    2
    26    21    20    1
    27    15    17    1
    28    15    16    1
    29    17    18    1
    30    20    18    2
