@<TRIPOS>MOLECULE
56708_out_ligand_01.pdbqt
 31 33 0 0 0
SMALL
GASTEIGER

@<TRIPOS>ATOM
      1  C         17.6070  -23.5770   -8.6280 C.2     1  UNL1        0.0860
      2  C         18.9950  -23.8070   -8.6300 C.2     1  UNL1        0.0420
      3  C         19.8010  -23.2350   -9.6190 C.2     1  UNL1        0.0330
      4  C         19.2170  -22.4250  -10.5980 C.2     1  UNL1        0.0170
      5  C         17.8380  -22.2050  -10.6020 C.2     1  UNL1        0.0090
      6  C         17.0100  -22.7690   -9.6160 C.2     1  UNL1       -0.0390
      7  C         15.5330  -22.4930   -9.6820 C.3     1  UNL1        0.0500
      8  S         16.6610  -24.3540   -7.3260 S.O2    1  UNL1        0.2630
      9  O         15.5030  -24.9870   -7.9200 O.2     1  UNL1       -0.2000
     10  O         17.5640  -25.1240   -6.4960 O.2     1  UNL1       -0.2000
     11  N         16.0850  -23.0290   -6.4460 N.pl3   1  UNL1       -0.2810
     12  H         15.1070  -23.1630   -6.1880 H       1  UNL1        0.1790
     13  C         16.9470  -22.4580   -5.4690 C.2     1  UNL1        0.0430
     14  C         16.6810  -22.6590   -4.1150 C.2     1  UNL1        0.0300
     15  C         17.4950  -22.0580   -3.1530 C.2     1  UNL1        0.0030
     16  C         18.5650  -21.2550   -3.5460 C.2     1  UNL1        0.0070
     17  C         18.8480  -21.0610   -4.9070 C.2     1  UNL1       -0.0600
     18  C         19.9870  -20.1810   -5.3370 C.3     1  UNL1        0.0480
     19  C         18.0180  -21.6580   -5.8680 C.2     1  UNL1        0.0370
     20  C         21.2760  -23.4320   -9.6490 C.2     1  UNL1        0.2510
     21  O         21.8050  -24.2040   -8.8570 O.2     1  UNL1       -0.2680
     22  N         21.9730  -22.6910  -10.5760 N.am    1  UNL1       -0.3530
     23  H         21.5050  -21.9850  -11.1290 H       1  UNL1        0.1630
     24  C         23.4130  -22.7620  -10.6880 C.3     1  UNL1        0.1620
     25  C         23.8770  -22.0090  -11.9120 C.2     1  UNL1       -0.0350
     26  C         22.9230  -21.7050  -12.9020 C.2     1  UNL1        0.0090
     27  C         23.2850  -21.0430  -14.0750 C.2     1  UNL1        0.0010
     28  C         24.6150  -20.6830  -14.2810 C.2     1  UNL1        0.0010
     29  C         25.5780  -20.9800  -13.3110 C.2     1  UNL1        0.0070
     30  C         25.2270  -21.6510  -12.1260 C.2     1  UNL1       -0.0540
     31  C         26.3020  -21.9580  -11.1190 C.3     1  UNL1        0.0490
@<TRIPOS>BOND
     1    28    27    2
     2    28    29    1
     3    27    26    1
     4    29    30    2
     5    26    25    2
     6    30    25    1
     7    30    31    1
     8    25    24    1
     9    23    22    1
    10    24    22    1
    11     5     4    2
    12     5     6    1
    13     4     3    1
    14    22    20   am
    15     7     6    1
    16    20     3    1
    17    20    21    2
    18     3     2    2
    19     6     1    2
    20     2     1    1
    21     1     8    1
    22     9     8    2
    23     8    10    2
    24     8    11    1
    25    11    12    1
    26    11    13    1
    27    19    13    2
    28    19    17    1
    29    13    14    1
    30    18    17    1
    31    17    16    2
    32    14    15    2
    33    16    15    1
