@<TRIPOS>MOLECULE
56713_out_ligand_01.pdbqt
 41 44 0 0 0
SMALL
GASTEIGER

@<TRIPOS>ATOM
      1  C         18.6090  -22.2050   -6.1530 C.2     1  UNL1        0.2580
      2  O         19.1880  -21.1810   -5.8060 O.2     1  UNL1       -0.2670
      3  N         19.0720  -23.1560   -7.0470 N.am    1  UNL1       -0.3230
      4  H         18.5620  -24.0300   -7.0910 H       1  UNL1        0.1690
      5  C         20.2750  -23.1200   -7.7830 C.2     1  UNL1        0.0350
      6  C         20.9360  -21.8840   -7.8680 C.2     1  UNL1        0.0310
      7  C         22.1290  -21.7580   -8.5830 C.2     1  UNL1        0.0270
      8  C         22.6630  -22.8770   -9.2280 C.2     1  UNL1        0.0800
      9  C         22.0300  -24.1170   -9.1350 C.2     1  UNL1        0.0270
     10  C         20.8360  -24.2330   -8.4160 C.2     1  UNL1        0.0310
     11  S         24.2000  -22.7400  -10.1130 S.O2    1  UNL1        0.2630
     12  O         25.1190  -23.7020   -9.5410 O.2     1  UNL1       -0.2000
     13  O         24.5400  -21.3370  -10.2040 O.2     1  UNL1       -0.2000
     14  N         23.8040  -23.3250  -11.6440 N.pl3   1  UNL1       -0.2810
     15  H         22.7960  -23.4100  -11.7760 H       1  UNL1        0.1790
     16  C         24.6250  -23.0520  -12.7720 C.2     1  UNL1        0.0450
     17  C         25.3800  -24.0930  -13.3150 C.2     1  UNL1        0.0540
     18  C         26.2040  -23.8500  -14.4140 C.2     1  UNL1        0.0370
     19 CL         27.1210  -25.1380  -15.0900 Cl      1  UNL1       -0.0840
     20  C         26.2860  -22.5790  -14.9760 C.2     1  UNL1        0.0480
     21  C         25.5360  -21.5450  -14.4230 C.2     1  UNL1        0.0370
     22 CL         25.6260  -19.9690  -15.1130 Cl      1  UNL1       -0.0840
     23  C         24.7120  -21.7720  -13.3220 C.2     1  UNL1        0.0540
     24  C         17.3040  -22.5270   -5.5070 C.2     1  UNL1        0.0540
     25  C         17.2660  -23.0240   -4.1930 C.2     1  UNL1        0.0190
     26  C         16.0420  -23.3080   -3.5860 C.2     1  UNL1        0.0010
     27  C         14.8530  -23.1050   -4.2840 C.2     1  UNL1        0.0020
     28  C         14.8820  -22.6310   -5.5960 C.2     1  UNL1        0.0250
     29  C         16.1020  -22.3510   -6.2190 C.2     1  UNL1        0.0380
     30  N         16.0850  -21.8370   -7.5590 N.pl3   1  UNL1       -0.1800
     31  H         15.3990  -21.0800   -7.7040 H       1  UNL1        0.1460
     32  S         16.0190  -22.9450   -8.8390 S.O2    1  UNL1        0.2450
     33  O         14.7660  -22.7790   -9.5490 O.2     1  UNL1       -0.2060
     34  O         16.4110  -24.2330   -8.3070 O.2     1  UNL1       -0.2060
     35  C         17.3260  -22.3910   -9.9110 C.2     1  UNL1        0.0740
     36  C         18.2760  -23.3070  -10.3650 C.2     1  UNL1        0.0250
     37  C         19.3070  -22.8720  -11.1960 C.2     1  UNL1        0.0080
     38  C         19.3950  -21.5270  -11.5770 C.2     1  UNL1       -0.0620
     39  C         20.4880  -21.0740  -12.5000 C.3     1  UNL1        0.0480
     40  C         18.4140  -20.6240  -11.1420 C.2     1  UNL1        0.0080
     41  C         17.3790  -21.0530  -10.3100 C.2     1  UNL1        0.0250
@<TRIPOS>BOND
     1    22    21    1
     2    19    18    1
     3    20    21    2
     4    20    18    1
     5    21    23    1
     6    18    17    2
     7    23    16    2
     8    17    16    1
     9    16    14    1
    10    39    38    1
    11    15    14    1
    12    14    11    1
    13    38    37    2
    14    38    40    1
    15    37    36    1
    16    40    41    2
    17    36    35    2
    18    41    35    1
    19    13    11    2
    20    11    12    2
    21    11     8    1
    22    35    32    1
    23    33    32    2
    24     8     9    2
    25     8     7    1
    26     9    10    1
    27    32    34    2
    28    32    30    1
    29     7     6    2
    30    10     5    2
    31     6     5    1
    32     5     3    1
    33    31    30    1
    34    30    29    1
    35     4     3    1
    36     3     1   am
    37    29    28    1
    38    29    24    2
    39     1     2    2
    40     1    24    1
    41    28    27    2
    42    24    25    1
    43    27    26    1
    44    25    26    2
