@<TRIPOS>MOLECULE
5672_out_ligand_01.pdbqt
 39 42 0 0 0
SMALL
GASTEIGER

@<TRIPOS>ATOM
      1  C         22.3480  -21.5320   -8.4300 C.3     1  UNL1        0.1620
      2  N         23.0910  -21.6900   -9.6600 N.am    1  UNL1       -0.3390
      3  C         22.4750  -21.3960  -10.8500 C.2     1  UNL1        0.3180
      4  N         23.2460  -21.6490  -11.9730 N.am    1  UNL1       -0.3300
      5  O         21.3280  -20.9660  -10.9010 O.2     1  UNL1       -0.2470
      6  C         22.6460  -21.3570  -13.2720 C.3     1  UNL1        0.1320
      7  C         24.3640  -22.5910  -11.9320 C.3     1  UNL1        0.1660
      8  C         23.6910  -21.1680  -14.3670 C.3     1  UNL1        0.0600
      9  C         24.5670  -22.3950  -14.4620 C.2     1  UNL1       -0.0330
     10  C         24.8610  -23.0880  -13.2690 C.2     1  UNL1       -0.0330
     11  C         25.1080  -22.8530  -15.6750 C.2     1  UNL1        0.0380
     12  C         25.6660  -24.2330  -13.3160 C.2     1  UNL1        0.0090
     13  C         26.1860  -24.6880  -14.5250 C.2     1  UNL1        0.0020
     14  C         25.9140  -23.9980  -15.7030 C.2     1  UNL1        0.0170
     15  H         24.0570  -21.4060   -9.6230 H       1  UNL1        0.1640
     16  C         24.8640  -22.1340  -16.9480 C.2     1  UNL1        0.2490
     17  N         23.8610  -22.6350  -17.7300 N.am    1  UNL1       -0.3660
     18  H         23.2120  -23.3360  -17.3900 H       1  UNL1        0.1590
     19  H         23.6020  -22.0910  -18.5420 H       1  UNL1        0.1590
     20  O         25.4960  -21.1410  -17.2680 O.2     1  UNL1       -0.2680
     21  C         21.3490  -22.6480   -8.2700 C.2     1  UNL1       -0.0390
     22  C         21.5490  -23.8720   -8.9340 C.2     1  UNL1        0.0090
     23  C         20.6510  -24.9300   -8.7680 C.2     1  UNL1        0.0020
     24  C         19.5380  -24.7790   -7.9400 C.2     1  UNL1        0.0250
     25  C         19.3250  -23.5600   -7.2940 C.2     1  UNL1        0.0800
     26  C         20.2270  -22.4980   -7.4440 C.2     1  UNL1        0.0340
     27  S         17.9170  -23.3530   -6.2370 S.O2    1  UNL1        0.2590
     28  O         17.4610  -24.6580   -5.8090 O.2     1  UNL1       -0.2010
     29  O         18.2380  -22.3060   -5.2910 O.2     1  UNL1       -0.2010
     30  N         16.7830  -22.7240   -7.2900 N.3     1  UNL1       -0.3110
     31  H         16.0300  -22.2170   -6.8400 H       1  UNL1        0.1720
     32  C         16.5130  -23.4500   -8.5210 C.3     1  UNL1        0.1700
     33  C         17.0160  -22.6760   -9.7130 C.2     1  UNL1       -0.0370
     34  C         17.9620  -23.2390  -10.5840 C.2     1  UNL1        0.0090
     35  C         18.4560  -22.5050  -11.6670 C.2     1  UNL1        0.0040
     36  C         18.0150  -21.2010  -11.8840 C.2     1  UNL1        0.0420
     37  C         17.0890  -20.6400  -11.0160 C.2     1  UNL1        0.1170
     38  F         16.6810  -19.3790  -11.2110 F       1  UNL1       -0.2060
     39  C         16.5890  -21.3610   -9.9350 C.2     1  UNL1        0.0510
@<TRIPOS>BOND
     1    19    17    1
     2    17    18    1
     3    17    16   am
     4    20    16    2
     5    16    11    1
     6    14    11    1
     7    14    13    2
     8    11     9    2
     9    13    12    1
    10     9     8    1
    11     9    10    1
    12     8     6    1
    13    12    10    2
    14     6     4    1
    15    10     7    1
    16     4     7    1
    17     4     3   am
    18    36    35    2
    19    36    37    1
    20    35    34    1
    21    38    37    1
    22    37    39    2
    23     5     3    2
    24     3     2   am
    25    34    33    2
    26    39    33    1
    27    33    32    1
    28     2    15    1
    29     2     1    1
    30    22    23    1
    31    22    21    2
    32    23    24    2
    33    32    30    1
    34     1    21    1
    35    21    26    1
    36    24    25    1
    37    26    25    2
    38    25    27    1
    39    30    31    1
    40    30    27    1
    41    27    28    2
    42    27    29    2
