@<TRIPOS>MOLECULE
56729_out_ligand_01.pdbqt
 40 43 0 0 0
SMALL
GASTEIGER

@<TRIPOS>ATOM
      1  C         22.1290  -22.8410   -9.3740 C.2     1  UNL1        0.2560
      2  O         22.5610  -23.9830   -9.2950 O.2     1  UNL1       -0.2670
      3  N         22.2870  -21.9510  -10.4190 N.am    1  UNL1       -0.3230
      4  H         21.7570  -21.0900  -10.3700 H       1  UNL1        0.1690
      5  C         21.2910  -22.3420   -8.2530 C.2     1  UNL1        0.0330
      6  C         21.7400  -21.3540   -7.3790 C.2     1  UNL1        0.0170
      7  C         20.9200  -20.9320   -6.3270 C.2     1  UNL1        0.0090
      8  C         19.6450  -21.4940   -6.1190 C.2     1  UNL1       -0.0390
      9  C         18.8290  -20.9800   -4.9660 C.3     1  UNL1        0.0500
     10  C         19.2140  -22.5070   -6.9960 C.2     1  UNL1        0.0860
     11  C         20.0320  -22.9180   -8.0620 C.2     1  UNL1        0.0420
     12  S         17.6350  -23.3440   -6.8750 S.O2    1  UNL1        0.2630
     13  O         17.7460  -24.4950   -6.0070 O.2     1  UNL1       -0.2000
     14  O         16.6430  -22.3200   -6.6180 O.2     1  UNL1       -0.2000
     15  N         17.3700  -23.8690   -8.4610 N.pl3   1  UNL1       -0.2810
     16  H         16.6250  -24.5610   -8.5130 H       1  UNL1        0.1790
     17  C         17.4740  -22.9330   -9.5260 C.2     1  UNL1        0.0420
     18  C         16.5290  -21.9200   -9.6770 C.2     1  UNL1        0.0300
     19  C         16.6300  -21.0270  -10.7450 C.2     1  UNL1        0.0020
     20  C         17.6730  -21.1510  -11.6630 C.2     1  UNL1        0.0000
     21  C         18.6180  -22.1640  -11.5110 C.2     1  UNL1        0.0020
     22  C         18.5210  -23.0560  -10.4410 C.2     1  UNL1        0.0300
     23  C         23.0070  -22.1620  -11.6120 C.2     1  UNL1        0.0350
     24  C         22.5140  -21.5490  -12.7740 C.2     1  UNL1        0.0310
     25  C         23.1550  -21.7290  -14.0030 C.2     1  UNL1        0.0270
     26  C         24.2980  -22.5280  -14.0720 C.2     1  UNL1        0.0800
     27  C         24.8200  -23.1130  -12.9180 C.2     1  UNL1        0.0270
     28  C         24.1680  -22.9340  -11.6940 C.2     1  UNL1        0.0310
     29  S         25.1170  -22.7600  -15.6330 S.O2    1  UNL1        0.2630
     30  O         25.3500  -24.1800  -15.7910 O.2     1  UNL1       -0.2000
     31  O         24.4010  -22.0030  -16.6360 O.2     1  UNL1       -0.2000
     32  N         26.6340  -22.0670  -15.3720 N.pl3   1  UNL1       -0.2810
     33  H         27.2050  -22.6180  -14.7340 H       1  UNL1        0.1790
     34  C         26.7700  -20.6520  -15.3450 C.2     1  UNL1        0.0420
     35  C         26.7490  -19.9910  -14.1150 C.2     1  UNL1        0.0320
     36  C         26.8560  -18.5990  -14.0680 C.2     1  UNL1        0.0260
     37  C         26.9850  -17.8730  -15.2510 C.2     1  UNL1        0.0340
     38 CL         27.1200  -16.1600  -15.1940 Cl      1  UNL1       -0.0840
     39  C         27.0090  -18.5300  -16.4810 C.2     1  UNL1        0.0260
     40  C         26.9020  -19.9220  -16.5280 C.2     1  UNL1        0.0320
@<TRIPOS>BOND
     1    31    29    2
     2    40    39    1
     3    40    34    2
     4    39    37    2
     5    30    29    2
     6    29    32    1
     7    29    26    1
     8    32    34    1
     9    32    33    1
    10    34    35    1
    11    37    38    1
    12    37    36    1
    13    35    36    2
    14    26    25    2
    15    26    27    1
    16    25    24    1
    17    27    28    2
    18    24    23    2
    19    28    23    1
    20    20    21    2
    21    20    19    1
    22    23     3    1
    23    21    22    1
    24    19    18    2
    25    22    17    2
    26     3     4    1
    27     3     1   am
    28    18    17    1
    29    17    15    1
    30     1     2    2
    31     1     5    1
    32    16    15    1
    33    15    12    1
    34     5    11    2
    35     5     6    1
    36    11    10    1
    37     6     7    2
    38    10    12    1
    39    10     8    2
    40    12    14    2
    41    12    13    2
    42     7     8    1
    43     8     9    1
