@<TRIPOS>MOLECULE
5673_out_ligand_01.pdbqt
 35 39 0 0 0
SMALL
GASTEIGER

@<TRIPOS>ATOM
      1  C         17.3650  -22.5620   -9.9320 C.2     1  UNL1        0.0770
      2  C         17.0970  -21.4910  -10.7920 C.2     1  UNL1        0.0270
      3  C         18.1100  -20.9440  -11.5870 C.2     1  UNL1        0.0330
      4  C         19.3760  -21.5220  -11.4700 C.ar    1  UNL1        0.0620
      5  N         20.5760  -21.2490  -12.0760 N.ar    1  UNL1       -0.3380
      6  C         21.5280  -22.1260  -11.6020 C.ar    1  UNL1        0.1390
      7  N         20.9800  -22.9410  -10.7170 N.ar    1  UNL1       -0.2280
      8  C         19.6620  -22.5830  -10.6200 C.ar    1  UNL1        0.0870
      9  C         18.6460  -23.1230   -9.8240 C.2     1  UNL1        0.0580
     10  H         20.7310  -20.5200  -12.7550 H       1  UNL1        0.1670
     11  S         16.0660  -23.2430   -8.9320 S.O2    1  UNL1        0.2450
     12  O         15.3970  -22.1390   -8.2830 O.2     1  UNL1       -0.2060
     13  O         15.3520  -24.2200   -9.7290 O.2     1  UNL1       -0.2060
     14  N         16.9740  -24.1380   -7.7930 N.pl3   1  UNL1       -0.1810
     15  H         16.6040  -25.0890   -7.8030 H       1  UNL1        0.1460
     16  C         16.9310  -23.5920   -6.4690 C.2     1  UNL1        0.0230
     17  C         15.9010  -23.9430   -5.5970 C.2     1  UNL1        0.0240
     18  C         15.8400  -23.3640   -4.3300 C.2     1  UNL1        0.0030
     19  C         16.8000  -22.4280   -3.9410 C.2     1  UNL1        0.0160
     20  C         17.8340  -22.0590   -4.8180 C.2     1  UNL1        0.0490
     21  C         17.8810  -22.6420   -6.0930 C.2     1  UNL1        0.0400
     22  C         18.8500  -21.0220   -4.4140 C.3     1  UNL1        0.4170
     23  F         19.3300  -21.2230   -3.1570 F       1  UNL1       -0.1660
     24  F         19.9420  -21.0040   -5.2310 F       1  UNL1       -0.1660
     25  F         18.3580  -19.7520   -4.4320 F       1  UNL1       -0.1660
     26  C         22.9360  -22.1420  -12.0190 C.2     1  UNL1        0.0140
     27  C         23.8880  -22.7600  -11.1730 C.2     1  UNL1        0.0420
     28  C         25.2430  -22.8080  -11.5160 C.2     1  UNL1        0.0710
     29 CL         26.3730  -23.5660  -10.4680 Cl      1  UNL1       -0.0810
     30  C         25.6360  -22.2370  -12.7080 C.2     1  UNL1        0.1260
     31  C         24.7170  -21.6350  -13.5340 C.2     1  UNL1        0.1070
     32  O         26.8970  -22.1790  -13.2190 O.2     1  UNL1       -0.3210
     33  C         23.3720  -21.5710  -13.2250 C.2     1  UNL1        0.0550
     34  O         25.2840  -21.1270  -14.6630 O.2     1  UNL1       -0.3230
     35  C         26.6680  -21.4760  -14.4550 C.3     1  UNL1        0.3520
@<TRIPOS>BOND
     1    34    35    1
     2    34    31    1
     3    35    32    1
     4    31    33    1
     5    31    30    2
     6    33    26    2
     7    32    30    1
     8    10     5    1
     9    30    28    1
    10     5     6   ar
    11     5     4   ar
    12    26     6    1
    13    26    27    1
    14     6     7   ar
    15     3     4    2
    16     3     2    1
    17    28    27    2
    18    28    29    1
    19     4     8   ar
    20     2     1    2
    21     7     8   ar
    22     8     9    2
    23     1     9    1
    24     1    11    1
    25    13    11    2
    26    11    12    2
    27    11    14    1
    28    15    14    1
    29    14    16    1
    30    16    21    2
    31    16    17    1
    32    21    20    1
    33    17    18    2
    34    24    22    1
    35    20    22    1
    36    20    19    2
    37    25    22    1
    38    22    23    1
    39    18    19    1
