@<TRIPOS>MOLECULE
56730_out_ligand_01.pdbqt
 36 39 0 0 0
SMALL
GASTEIGER

@<TRIPOS>ATOM
      1  C         19.0670  -21.5840  -10.9300 C.2     1  UNL1        0.0340
      2  C         17.7980  -21.2710  -11.4280 C.2     1  UNL1        0.0190
      3  C         16.6600  -21.7960  -10.8090 C.2     1  UNL1        0.0260
      4  C         16.7740  -22.6310   -9.6880 C.2     1  UNL1        0.0570
      5 CL         15.2940  -23.1900   -9.0000 Cl      1  UNL1       -0.0830
      6  C         18.0420  -22.9340   -9.1870 C.2     1  UNL1        0.0970
      7  C         19.1880  -22.4090   -9.8050 C.2     1  UNL1        0.0430
      8  C         20.3020  -21.0210  -11.5420 C.2     1  UNL1        0.2560
      9  N         21.3040  -21.9480  -11.7500 N.am    1  UNL1       -0.3160
     10  H         21.1750  -22.8800  -11.3690 H       1  UNL1        0.1690
     11  O         20.3130  -19.8190  -11.7690 O.2     1  UNL1       -0.2670
     12  C         22.5420  -21.7400  -12.3440 C.ar    1  UNL1        0.0940
     13  C         23.7880  -21.8220  -11.7270 C.ar    1  UNL1        0.0800
     14  C         24.8450  -21.5350  -12.6810 C.ar    1  UNL1       -0.0260
     15  C         24.3440  -21.2970  -13.9460 C.ar    1  UNL1       -0.0080
     16  C         26.3260  -21.5210  -12.4130 C.3     1  UNL1        0.0410
     17  S         22.6550  -21.3770  -14.0000 S.2     1  UNL1       -0.0750
     18  C         25.1570  -20.9700  -15.1590 C.3     1  UNL1        0.0470
     19  C         26.6290  -21.3400  -14.9330 C.3     1  UNL1        0.0050
     20  C         27.1200  -20.8710  -13.5580 C.3     1  UNL1        0.0050
     21  C         24.0130  -22.1530  -10.3140 C.2     1  UNL1        0.2960
     22  O         24.6170  -23.1510   -9.9400 O.2     1  UNL1       -0.2590
     23  O         23.4740  -21.2370   -9.4460 O.3     1  UNL1       -0.3220
     24  C         22.6210  -21.8130   -8.4530 C.3     1  UNL1        0.2130
     25  S         18.2600  -24.0050   -7.7890 S.O2    1  UNL1        0.2470
     26  O         17.0490  -24.7800   -7.6410 O.2     1  UNL1       -0.2050
     27  O         19.5500  -24.6470   -7.9270 O.2     1  UNL1       -0.2050
     28  N         18.4390  -22.8780   -6.5200 N.pl3   1  UNL1       -0.1810
     29  H         19.2800  -23.1440   -6.0040 H       1  UNL1        0.1460
     30  C         17.3130  -22.8300   -5.6310 C.2     1  UNL1        0.0230
     31  C         17.4540  -23.2730   -4.3170 C.2     1  UNL1        0.0240
     32  C         16.3740  -23.1920   -3.4390 C.2     1  UNL1        0.0020
     33  C         15.1620  -22.6520   -3.8700 C.2     1  UNL1        0.0070
     34  C         15.0220  -22.1720   -5.1800 C.2     1  UNL1       -0.0600
     35  C         13.7130  -21.6060   -5.6460 C.3     1  UNL1        0.0480
     36  C         16.1070  -22.2700   -6.0620 C.2     1  UNL1        0.0310
@<TRIPOS>BOND
     1    18    19    1
     2    18    15    1
     3    19    20    1
     4    17    15   ar
     5    17    12   ar
     6    15    14   ar
     7    20    16    1
     8    14    16    1
     9    14    13   ar
    10    12     9    1
    11    12    13   ar
    12    11     8    2
    13     9     8   am
    14     9    10    1
    15    13    21    1
    16     8     1    1
    17     2     1    2
    18     2     3    1
    19     1     7    1
    20     3     4    2
    21    21    22    2
    22    21    23    1
    23     7     6    2
    24     4     6    1
    25     4     5    1
    26    23    24    1
    27     6    25    1
    28    27    25    2
    29    25    26    2
    30    25    28    1
    31    28    29    1
    32    28    30    1
    33    36    30    2
    34    36    34    1
    35    35    34    1
    36    30    31    1
    37    34    33    2
    38    31    32    2
    39    33    32    1
