@<TRIPOS>MOLECULE
56736_out_ligand_01.pdbqt
 43 46 0 0 0
SMALL
GASTEIGER

@<TRIPOS>ATOM
      1  N         21.1950  -22.3090   -7.9030 N.am    1  UNL1       -0.3230
      2  C         20.9340  -21.3960   -6.8980 C.2     1  UNL1        0.2560
      3  O         21.6600  -20.4920   -6.5060 O.2     1  UNL1       -0.2670
      4  H         20.5310  -23.0640   -8.0190 H       1  UNL1        0.1690
      5  C         19.6240  -21.5860   -6.2190 C.2     1  UNL1        0.0330
      6  C         19.3600  -21.0200   -4.9710 C.2     1  UNL1        0.0170
      7  C         18.1180  -21.2210   -4.3650 C.2     1  UNL1        0.0090
      8  C         17.1180  -21.9960   -4.9830 C.2     1  UNL1       -0.0390
      9  C         15.8060  -22.1530   -4.2670 C.3     1  UNL1        0.0500
     10  C         17.4030  -22.5730   -6.2360 C.2     1  UNL1        0.0860
     11  C         18.6540  -22.3690   -6.8470 C.2     1  UNL1        0.0420
     12  S         16.2340  -23.5580   -7.1640 S.O2    1  UNL1        0.2630
     13  O         15.2190  -22.6470   -7.6540 O.2     1  UNL1       -0.2000
     14  O         15.8500  -24.7310   -6.4120 O.2     1  UNL1       -0.2000
     15  N         17.1330  -24.0120   -8.5150 N.pl3   1  UNL1       -0.2800
     16  H         17.8570  -24.6950   -8.2920 H       1  UNL1        0.1790
     17  C         17.4150  -23.0390   -9.5130 C.2     1  UNL1        0.0490
     18  C         16.4200  -22.0950   -9.7840 C.2     1  UNL1        0.0310
     19  C         16.6370  -21.1020  -10.7320 C.2     1  UNL1        0.0030
     20  C         17.8530  -21.0440  -11.4080 C.2     1  UNL1        0.0070
     21  C         18.8650  -21.9830  -11.1480 C.2     1  UNL1       -0.0540
     22  C         20.1670  -21.8720  -11.8970 C.3     1  UNL1        0.0490
     23  C         18.6450  -23.0070  -10.1960 C.2     1  UNL1       -0.0290
     24  C         19.7390  -24.0030   -9.9000 C.3     1  UNL1        0.0510
     25  C         22.3480  -22.3820   -8.7140 C.2     1  UNL1        0.0350
     26  C         22.8220  -21.3230   -9.4930 C.2     1  UNL1        0.0310
     27  C         23.9790  -21.4720  -10.2670 C.2     1  UNL1        0.0270
     28  C         24.6540  -22.6940  -10.2720 C.2     1  UNL1        0.0800
     29  C         24.1990  -23.7570   -9.4920 C.2     1  UNL1        0.0270
     30  C         23.0460  -23.5980   -8.7190 C.2     1  UNL1        0.0310
     31  S         26.1240  -22.8800  -11.2570 S.O2    1  UNL1        0.2630
     32  O         26.5320  -21.5570  -11.6800 O.2     1  UNL1       -0.2000
     33  O         27.0370  -23.7520  -10.5460 O.2     1  UNL1       -0.2000
     34  N         25.5600  -23.6650  -12.6400 N.pl3   1  UNL1       -0.2810
     35  H         25.9350  -24.6090  -12.7230 H       1  UNL1        0.1790
     36  C         25.3650  -22.9190  -13.8360 C.2     1  UNL1        0.0430
     37  C         24.3120  -22.0190  -13.9570 C.2     1  UNL1        0.0300
     38  C         24.1620  -21.2800  -15.1300 C.2     1  UNL1        0.0090
     39  C         25.0620  -21.4330  -16.1970 C.2     1  UNL1       -0.0560
     40  C         24.8610  -20.6250  -17.4510 C.3     1  UNL1        0.0490
     41  C         26.1280  -22.3470  -16.0760 C.2     1  UNL1       -0.0540
     42  C         26.2670  -23.0850  -14.8890 C.2     1  UNL1        0.0370
     43  C         27.1210  -22.5490  -17.1890 C.3     1  UNL1        0.0490
@<TRIPOS>BOND
     1    40    39    1
     2    43    41    1
     3    39    41    2
     4    39    38    1
     5    41    42    1
     6    38    37    2
     7    42    36    2
     8    37    36    1
     9    36    34    1
    10    35    34    1
    11    34    31    1
    12    22    21    1
    13    32    31    2
    14    20    21    2
    15    20    19    1
    16    31    33    2
    17    31    28    1
    18    21    23    1
    19    19    18    2
    20    28    27    2
    21    28    29    1
    22    27    26    1
    23    23    24    1
    24    23    17    2
    25    18    17    1
    26    17    15    1
    27    26    25    2
    28    29    30    2
    29    30    25    1
    30    25     1    1
    31    15    16    1
    32    15    12    1
    33     4     1    1
    34     1     2   am
    35    13    12    2
    36    12    14    2
    37    12    10    1
    38     2     3    2
    39     2     5    1
    40    11    10    1
    41    11     5    2
    42    10     8    2
    43     5     6    1
    44     8     7    1
    45     8     9    1
    46     6     7    2
