@<TRIPOS>MOLECULE
56745_out_ligand_01.pdbqt
 35 37 0 0 0
SMALL
GASTEIGER

@<TRIPOS>ATOM
      1  C         19.6480  -22.8420  -10.0590 C.2     1  UNL1        0.0340
      2  C         18.9670  -22.0440  -10.9790 C.2     1  UNL1        0.0190
      3  C         17.5830  -21.8760  -10.8610 C.2     1  UNL1        0.0260
      4  C         16.8590  -22.5000   -9.8320 C.2     1  UNL1        0.0570
      5 CL         15.1660  -22.1770   -9.8220 Cl      1  UNL1       -0.0830
      6  C         17.5370  -23.3030   -8.9140 C.2     1  UNL1        0.1020
      7  C         18.9290  -23.4860   -9.0430 C.2     1  UNL1        0.0440
      8  C         21.1200  -23.0650  -10.1370 C.2     1  UNL1        0.2560
      9  N         21.7940  -22.2350  -11.0160 N.am    1  UNL1       -0.3220
     10  H         21.2550  -21.4900  -11.4310 H       1  UNL1        0.1690
     11  O         21.6070  -23.9080   -9.3950 O.2     1  UNL1       -0.2670
     12  C         23.1770  -22.2570  -11.3330 C.2     1  UNL1        0.0420
     13  C         24.1370  -22.6870  -10.4040 C.2     1  UNL1        0.0300
     14  C         25.4930  -22.7390  -10.7300 C.2     1  UNL1        0.0030
     15  C         25.9110  -22.3870  -12.0050 C.2     1  UNL1        0.0180
     16  C         24.9680  -21.9750  -12.9550 C.2     1  UNL1        0.0470
     17  C         23.5960  -21.8630  -12.6280 C.2     1  UNL1       -0.0190
     18  C         22.6110  -21.3310  -13.6400 C.3     1  UNL1        0.0520
     19  C         25.5070  -21.6640  -14.2960 C.2     1  UNL1        0.2930
     20  O         25.8410  -20.5480  -14.6540 O.2     1  UNL1       -0.2590
     21  O         25.6300  -22.8160  -14.9990 O.3     1  UNL1       -0.3230
     22  C         24.8330  -22.8520  -16.1830 C.3     1  UNL1        0.2130
     23  S         16.7440  -24.1840   -7.5880 S.O2    1  UNL1        0.2650
     24  O         15.6560  -24.9880   -8.0950 O.2     1  UNL1       -0.2000
     25  O         17.7970  -24.8080   -6.8110 O.2     1  UNL1       -0.2000
     26  N         16.1490  -22.9520   -6.6030 N.pl3   1  UNL1       -0.2800
     27  H         15.1400  -22.9970   -6.4780 H       1  UNL1        0.1790
     28  C         16.9470  -22.3960   -5.5640 C.2     1  UNL1        0.0490
     29  C         18.0240  -21.5710   -5.8980 C.2     1  UNL1        0.0370
     30  C         18.8430  -21.0200   -4.9050 C.2     1  UNL1       -0.0600
     31  C         20.0220  -20.1680   -5.2800 C.3     1  UNL1        0.0480
     32  C         18.5840  -21.3270   -3.5680 C.2     1  UNL1        0.0070
     33  C         17.5000  -22.1380   -3.2270 C.2     1  UNL1        0.0090
     34  C         16.6590  -22.6710   -4.2170 C.2     1  UNL1       -0.0350
     35  C         15.5010  -23.5350   -3.7980 C.3     1  UNL1        0.0500
@<TRIPOS>BOND
     1    22    21    1
     2    21    19    1
     3    20    19    2
     4    19    16    1
     5    18    17    1
     6    16    17    1
     7    16    15    2
     8    17    12    2
     9    15    14    1
    10    10     9    1
    11    12     9    1
    12    12    13    1
    13     9     8   am
    14     2     3    1
    15     2     1    2
    16     3     4    2
    17    14    13    2
    18     8     1    1
    19     8    11    2
    20     1     7    1
    21     4     5    1
    22     4     6    1
    23     7     6    2
    24     6    23    1
    25    24    23    2
    26    23    25    2
    27    23    26    1
    28    26    27    1
    29    26    28    1
    30    29    28    2
    31    29    30    1
    32    28    34    1
    33    31    30    1
    34    30    32    2
    35    34    35    1
    36    34    33    2
    37    32    33    1
