@<TRIPOS>MOLECULE
56744_out_ligand_01.pdbqt
 42 45 0 0 0
SMALL
GASTEIGER

@<TRIPOS>ATOM
      1  C         20.9730  -21.4310   -6.9510 C.2     1  UNL1        0.2560
      2  O         21.7060  -20.5500   -6.5190 O.2     1  UNL1       -0.2670
      3  N         21.2650  -22.3300   -7.9610 N.am    1  UNL1       -0.3230
      4  H         20.5820  -23.0510   -8.1560 H       1  UNL1        0.1690
      5  C         19.6300  -21.5890   -6.3160 C.2     1  UNL1        0.0340
      6  C         18.6430  -22.2900   -7.0210 C.2     1  UNL1        0.0440
      7  C         17.3620  -22.4650   -6.4690 C.2     1  UNL1        0.1020
      8  C         17.0710  -21.9540   -5.2040 C.2     1  UNL1        0.0570
      9  C         18.0680  -21.2730   -4.4930 C.2     1  UNL1        0.0260
     10 CL         15.5320  -22.0790   -4.4350 Cl      1  UNL1       -0.0830
     11  C         19.3430  -21.0950   -5.0400 C.2     1  UNL1        0.0190
     12  S         16.1670  -23.3770   -7.4080 S.O2    1  UNL1        0.2650
     13  O         15.1010  -22.4680   -7.7770 O.2     1  UNL1       -0.2000
     14  O         15.8570  -24.5930   -6.6850 O.2     1  UNL1       -0.2000
     15  N         16.9850  -23.7760   -8.8240 N.pl3   1  UNL1       -0.2800
     16  H         16.7340  -24.7070   -9.1500 H       1  UNL1        0.1790
     17  C         17.4320  -22.7930   -9.7640 C.2     1  UNL1        0.0490
     18  C         16.6080  -21.7120  -10.0960 C.2     1  UNL1        0.0310
     19  C         17.0190  -20.7550  -11.0180 C.2     1  UNL1        0.0030
     20  C         18.2740  -20.8560  -11.6080 C.2     1  UNL1        0.0070
     21  C         19.1420  -21.9040  -11.2690 C.2     1  UNL1       -0.0540
     22  C         20.4990  -21.9440  -11.9270 C.3     1  UNL1        0.0490
     23  C         18.7380  -22.8690  -10.3080 C.2     1  UNL1       -0.0290
     24  C         19.6790  -23.9860   -9.9280 C.3     1  UNL1        0.0510
     25  C         22.4480  -22.3950   -8.7270 C.2     1  UNL1        0.0350
     26  C         22.9720  -21.3200   -9.4510 C.2     1  UNL1        0.0310
     27  C         24.1490  -21.4670  -10.1920 C.2     1  UNL1        0.0270
     28  C         24.8010  -22.7010  -10.2200 C.2     1  UNL1        0.0800
     29  C         24.2980  -23.7830   -9.4960 C.2     1  UNL1        0.0270
     30  C         23.1260  -23.6240   -8.7510 C.2     1  UNL1        0.0310
     31  S         26.2780  -22.8820  -11.1840 S.O2    1  UNL1        0.2630
     32  O         27.1200  -23.8850  -10.5700 O.2     1  UNL1       -0.2000
     33  O         26.7760  -21.5490  -11.4570 O.2     1  UNL1       -0.2000
     34  N         25.6880  -23.4750  -12.6550 N.pl3   1  UNL1       -0.2810
     35  H         25.0640  -24.2700  -12.5020 H       1  UNL1        0.1790
     36  C         25.3430  -22.5380  -13.6650 C.2     1  UNL1        0.0440
     37  C         24.0940  -21.9170  -13.6310 C.2     1  UNL1        0.0300
     38  C         23.7310  -21.0240  -14.6410 C.2     1  UNL1        0.0040
     39  C         24.6140  -20.7630  -15.6880 C.2     1  UNL1        0.0240
     40  C         25.8580  -21.3970  -15.7210 C.2     1  UNL1        0.0360
     41 CL         26.9440  -21.0760  -17.0190 Cl      1  UNL1       -0.0840
     42  C         26.2280  -22.2890  -14.7120 C.2     1  UNL1        0.0540
@<TRIPOS>BOND
     1    41    40    1
     2    40    39    2
     3    40    42    1
     4    39    38    1
     5    42    36    2
     6    38    37    2
     7    36    37    1
     8    36    34    1
     9    34    35    1
    10    34    31    1
    11    22    21    1
    12    20    21    2
    13    20    19    1
    14    33    31    2
    15    21    23    1
    16    31    32    2
    17    31    28    1
    18    19    18    2
    19    23    24    1
    20    23    17    2
    21    28    27    2
    22    28    29    1
    23    27    26    1
    24    18    17    1
    25    17    15    1
    26    29    30    2
    27    26    25    2
    28    16    15    1
    29    15    12    1
    30    30    25    1
    31    25     3    1
    32     4     3    1
    33     3     1   am
    34    13    12    2
    35    12    14    2
    36    12     7    1
    37     6     7    1
    38     6     5    2
    39     1     2    2
    40     1     5    1
    41     7     8    2
    42     5    11    1
    43     8     9    1
    44     8    10    1
    45    11     9    2
