@<TRIPOS>MOLECULE
56740_out_ligand_01.pdbqt
 33 36 0 0 0
SMALL
GASTEIGER

@<TRIPOS>ATOM
      1  C         18.7710  -22.9900   -9.3740 C.2     1  UNL1        0.0860
      2  C         19.4810  -22.3030  -10.3740 C.2     1  UNL1        0.0420
      3  C         20.8410  -22.5470  -10.5680 C.2     1  UNL1        0.0330
      4  C         21.4980  -23.4860   -9.7690 C.2     1  UNL1        0.0170
      5  C         20.7970  -24.1610   -8.7660 C.2     1  UNL1        0.0090
      6  C         19.4250  -23.9300   -8.5520 C.2     1  UNL1       -0.0390
      7  C         18.7470  -24.6850   -7.4430 C.3     1  UNL1        0.0500
      8  S         17.0360  -22.5850   -9.1880 S.O2    1  UNL1        0.2630
      9  O         16.3150  -23.8130   -8.9250 O.2     1  UNL1       -0.2000
     10  O         16.6420  -21.7400  -10.2970 O.2     1  UNL1       -0.2000
     11  N         17.0090  -21.6070   -7.8130 N.pl3   1  UNL1       -0.2800
     12  H         17.5600  -20.7620   -7.9230 H       1  UNL1        0.1790
     13  C         16.8920  -22.1880   -6.5150 C.2     1  UNL1        0.0490
     14  C         17.9260  -22.0320   -5.5760 C.2     1  UNL1       -0.0350
     15  C         17.7980  -22.6480   -4.3210 C.2     1  UNL1        0.0090
     16  C         19.1740  -21.2520   -5.8740 C.3     1  UNL1        0.0500
     17  C         16.6630  -23.3950   -4.0010 C.2     1  UNL1        0.0070
     18  C         15.6300  -23.5410   -4.9290 C.2     1  UNL1       -0.0600
     19  C         14.3940  -24.3190   -4.5850 C.3     1  UNL1        0.0480
     20  C         15.7440  -22.9120   -6.1750 C.2     1  UNL1        0.0370
     21  C         21.5500  -21.8170  -11.6550 C.2     1  UNL1        0.2560
     22  O         20.9460  -20.9340  -12.2480 O.2     1  UNL1       -0.2670
     23  N         22.8610  -22.2110  -11.8560 N.am    1  UNL1       -0.3230
     24  H         23.2510  -22.8640  -11.1880 H       1  UNL1        0.1690
     25  C         23.7560  -21.7320  -12.8380 C.2     1  UNL1        0.0370
     26  C         25.0630  -21.4120  -12.4050 C.2     1  UNL1        0.0320
     27  C         26.0270  -20.9360  -13.3020 C.2     1  UNL1        0.0420
     28  C         25.6570  -20.7940  -14.6190 C.2     1  UNL1        0.1050
     29  C         24.3890  -21.1070  -15.0480 C.2     1  UNL1        0.1070
     30  O         26.4540  -20.3490  -15.6260 O.2     1  UNL1       -0.3230
     31  C         23.4190  -21.5780  -14.1860 C.2     1  UNL1        0.0690
     32  O         24.2320  -20.9000  -16.3840 O.2     1  UNL1       -0.3230
     33  C         25.5410  -20.4150  -16.7420 C.3     1  UNL1        0.3520
@<TRIPOS>BOND
     1    33    32    1
     2    33    30    1
     3    32    29    1
     4    30    28    1
     5    29    28    2
     6    29    31    1
     7    28    27    1
     8    31    25    2
     9    27    26    2
    10    25    26    1
    11    25    23    1
    12    22    21    2
    13    23    21   am
    14    23    24    1
    15    21     3    1
    16     3     2    1
    17     3     4    2
    18     2     1    2
    19    10     8    2
    20     4     5    1
    21     1     8    1
    22     1     6    1
    23     8     9    2
    24     8    11    1
    25     5     6    2
    26     6     7    1
    27    12    11    1
    28    11    13    1
    29    13    20    2
    30    13    14    1
    31    20    18    1
    32    16    14    1
    33    14    15    2
    34    18    19    1
    35    18    17    2
    36    15    17    1
