@<TRIPOS>MOLECULE
5674_out_ligand_01.pdbqt
 36 39 0 0 0
SMALL
GASTEIGER

@<TRIPOS>ATOM
      1  C         18.6480  -22.1730  -10.4410 C.2     1  UNL1        0.0720
      2  C         19.9110  -22.4740   -9.9110 C.2     1  UNL1        0.0450
      3  C         21.0650  -22.0000  -10.5470 C.2     1  UNL1        0.0810
      4  C         20.9770  -21.2050  -11.6920 C.2     1  UNL1        0.0280
      5  C         19.7200  -20.8930  -12.2120 C.2     1  UNL1        0.0450
      6  C         18.5700  -21.3770  -11.5880 C.2     1  UNL1        0.1320
      7  F         17.3820  -21.0570  -12.1290 F       1  UNL1       -0.2050
      8  C         17.4500  -22.7350   -9.7590 C.2     1  UNL1        0.2550
      9  O         16.3310  -22.3890  -10.1250 O.2     1  UNL1       -0.2680
     10  N         17.6610  -23.6280   -8.7330 N.am    1  UNL1       -0.3520
     11  H         18.6060  -23.9380   -8.5370 H       1  UNL1        0.1630
     12  C         16.5720  -24.3380   -8.1000 C.3     1  UNL1        0.1630
     13  C         16.2910  -23.7000   -6.7660 C.2     1  UNL1       -0.0140
     14  C         15.1290  -23.9380   -6.1330 C.2     1  UNL1        0.1010
     15  N         14.8200  -23.3750   -4.9260 N.am    1  UNL1       -0.3320
     16  C         15.6430  -22.5190   -4.2330 C.2     1  UNL1        0.2560
     17  H         13.9350  -23.5870   -4.4810 H       1  UNL1        0.1680
     18  O         15.3150  -22.0430   -3.1530 O.2     1  UNL1       -0.2670
     19  C         16.9460  -22.2070   -4.8740 C.2     1  UNL1        0.0430
     20  C         17.8330  -21.3400   -4.2210 C.2     1  UNL1        0.0180
     21  C         17.2640  -22.7820   -6.1210 C.2     1  UNL1       -0.0110
     22  C         19.0570  -21.0310   -4.8080 C.2     1  UNL1        0.0010
     23  C         19.3900  -21.5870   -6.0410 C.2     1  UNL1        0.0010
     24  C         18.5030  -22.4530   -6.6920 C.2     1  UNL1        0.0130
     25  S         22.6580  -22.4300   -9.8790 S.O2    1  UNL1        0.2630
     26  O         22.4290  -23.4010   -8.8310 O.2     1  UNL1       -0.2000
     27  O         23.3820  -21.2030   -9.6280 O.2     1  UNL1       -0.2000
     28  N         23.3940  -23.2580  -11.1500 N.pl3   1  UNL1       -0.2810
     29  H         22.7300  -23.8210  -11.6820 H       1  UNL1        0.1790
     30  C         24.4980  -22.6820  -11.8390 C.2     1  UNL1        0.0450
     31  C         25.7710  -22.8020  -11.2710 C.2     1  UNL1        0.0300
     32  C         26.8860  -22.2710  -11.9250 C.2     1  UNL1        0.0050
     33  C         26.7260  -21.6140  -13.1440 C.2     1  UNL1        0.0420
     34  C         25.4540  -21.4900  -13.6920 C.2     1  UNL1        0.1180
     35  F         25.3030  -20.8540  -14.8620 F       1  UNL1       -0.2060
     36  C         24.3360  -22.0150  -13.0510 C.2     1  UNL1        0.0720
@<TRIPOS>BOND
     1    35    34    1
     2    34    33    2
     3    34    36    1
     4    33    32    1
     5    36    30    2
     6     5     4    2
     7     5     6    1
     8     7     6    1
     9    32    31    2
    10    30    31    1
    11    30    28    1
    12     4     3    1
    13    29    28    1
    14     6     1    2
    15    28    25    1
    16     3     2    2
    17     3    25    1
    18     1     2    1
    19     1     8    1
    20     9     8    2
    21    25    27    2
    22    25    26    2
    23     8    10   am
    24    10    11    1
    25    10    12    1
    26    12    13    1
    27    13    14    2
    28    13    21    1
    29    24    21    1
    30    24    23    2
    31    14    15    1
    32    21    19    2
    33    23    22    1
    34    15    17    1
    35    15    16   am
    36    19    16    1
    37    19    20    1
    38    22    20    2
    39    16    18    2
