@<TRIPOS>MOLECULE
56757_out_ligand_01.pdbqt
 33 36 0 0 0
SMALL
GASTEIGER

@<TRIPOS>ATOM
      1  C         18.1150  -22.9200   -9.1800 C.2     1  UNL1        0.0810
      2  C         19.2550  -22.3970   -9.8090 C.2     1  UNL1        0.0420
      3  C         19.1200  -21.5320  -10.8990 C.2     1  UNL1        0.0330
      4  C         17.8470  -21.2000  -11.3720 C.2     1  UNL1        0.0170
      5  C         16.7130  -21.7200  -10.7430 C.2     1  UNL1        0.0090
      6  C         16.8250  -22.5900   -9.6440 C.2     1  UNL1       -0.0390
      7  C         15.5610  -23.1010   -9.0090 C.3     1  UNL1        0.0500
      8  C         20.3510  -21.0180  -11.5580 C.2     1  UNL1        0.2560
      9  O         20.4200  -19.8170  -11.7810 O.2     1  UNL1       -0.2670
     10  N         21.2840  -21.9880  -11.8760 N.am    1  UNL1       -0.3230
     11  H         21.0100  -22.9520  -11.7330 H       1  UNL1        0.1690
     12  C         22.5510  -21.7950  -12.4660 C.2     1  UNL1        0.0370
     13  C         23.6720  -21.9940  -11.6460 C.2     1  UNL1        0.0320
     14  C         24.9650  -21.8260  -12.1490 C.2     1  UNL1        0.0420
     15  C         25.1460  -21.4580  -13.4780 C.2     1  UNL1        0.1020
     16  C         24.0370  -21.2270  -14.2930 C.2     1  UNL1        0.1040
     17  O         26.4410  -21.3360  -13.9120 O.2     1  UNL1       -0.3460
     18  C         22.7430  -21.4080  -13.7940 C.2     1  UNL1        0.0690
     19  O         24.1410  -20.8270  -15.6030 O.2     1  UNL1       -0.3460
     20  C         25.4580  -20.3560  -15.9050 C.3     1  UNL1        0.2020
     21  C         26.5070  -21.3010  -15.3440 C.3     1  UNL1        0.2020
     22  S         18.3690  -24.0000   -7.7760 S.O2    1  UNL1        0.2460
     23  O         19.6350  -24.6750   -7.9580 O.2     1  UNL1       -0.2060
     24  O         17.1430  -24.7400   -7.5570 O.2     1  UNL1       -0.2060
     25  N         18.4740  -22.8530   -6.5180 N.pl3   1  UNL1       -0.1810
     26  H         18.5510  -21.9310   -6.9540 H       1  UNL1        0.1460
     27  C         17.3630  -22.8870   -5.6100 C.2     1  UNL1        0.0230
     28  C         17.5030  -23.4780   -4.3550 C.2     1  UNL1        0.0240
     29  C         16.4260  -23.4790   -3.4670 C.2     1  UNL1        0.0020
     30  C         15.2210  -22.8750   -3.8270 C.2     1  UNL1        0.0070
     31  C         15.0860  -22.2480   -5.0720 C.2     1  UNL1       -0.0600
     32  C         13.7900  -21.6050   -5.4690 C.3     1  UNL1        0.0480
     33  C         16.1650  -22.2630   -5.9640 C.2     1  UNL1        0.0310
@<TRIPOS>BOND
     1    20    19    1
     2    20    21    1
     3    19    16    1
     4    21    17    1
     5    16    18    1
     6    16    15    2
     7    17    15    1
     8    18    12    2
     9    15    14    1
    10    12    10    1
    11    12    13    1
    12    14    13    2
    13    10    11    1
    14    10     8   am
    15     9     8    2
    16     8     3    1
    17     4     3    2
    18     4     5    1
    19     3     2    1
    20     5     6    2
    21     2     1    2
    22     6     1    1
    23     6     7    1
    24     1    22    1
    25    23    22    2
    26    22    24    2
    27    22    25    1
    28    26    25    1
    29    25    27    1
    30    33    27    2
    31    33    31    1
    32    27    28    1
    33    32    31    1
    34    31    30    2
    35    28    29    2
    36    30    29    1
