@<TRIPOS>MOLECULE
56753_out_ligand_01.pdbqt
 31 33 0 0 0
SMALL
GASTEIGER

@<TRIPOS>ATOM
      1  C         17.6140  -23.2630   -8.9360 C.2     1  UNL1        0.1020
      2  C         19.0130  -23.3560   -9.0640 C.2     1  UNL1        0.0440
      3  C         19.6780  -22.7070  -10.1090 C.2     1  UNL1        0.0340
      4  C         18.9450  -21.9710  -11.0440 C.2     1  UNL1        0.0190
      5  C         17.5570  -21.8790  -10.9150 C.2     1  UNL1        0.0260
      6  C         16.8820  -22.5170   -9.8620 C.2     1  UNL1        0.0570
      7 CL         15.1660  -22.3400   -9.8630 Cl      1  UNL1       -0.0830
      8  S         16.8830  -24.0770   -7.5390 S.O2    1  UNL1        0.2650
      9  O         17.8800  -24.8010   -6.7850 O.2     1  UNL1       -0.2000
     10  O         15.7180  -24.7840   -8.0350 O.2     1  UNL1       -0.2000
     11  N         16.2660  -22.7970   -6.6310 N.pl3   1  UNL1       -0.2800
     12  H         15.2530  -22.8540   -6.5380 H       1  UNL1        0.1790
     13  C         17.0050  -22.3170   -5.5160 C.2     1  UNL1        0.0480
     14  C         18.1020  -21.4880   -5.7770 C.2     1  UNL1        0.0300
     15  C         18.8820  -21.0040   -4.7280 C.2     1  UNL1        0.0020
     16  C         18.5680  -21.3480   -3.4170 C.2     1  UNL1        0.0010
     17  C         17.4680  -22.1660   -3.1530 C.2     1  UNL1        0.0090
     18  C         16.6610  -22.6490   -4.1970 C.2     1  UNL1       -0.0350
     19  C         15.5060  -23.5470   -3.8550 C.3     1  UNL1        0.0500
     20  C         21.1540  -22.8560  -10.2190 C.2     1  UNL1        0.2560
     21  O         21.6900  -23.7360   -9.5580 O.2     1  UNL1       -0.2670
     22  N         21.7720  -21.9440  -11.0550 N.am    1  UNL1       -0.3230
     23  H         21.1950  -21.2010  -11.4310 H       1  UNL1        0.1690
     24  C         23.1450  -21.8740  -11.3730 C.2     1  UNL1        0.0380
     25  C         24.1500  -21.5940  -10.4390 C.2     1  UNL1        0.0320
     26  C         25.4940  -21.5470  -10.8300 C.2     1  UNL1        0.0480
     27  C         25.8340  -21.7840  -12.1550 C.2     1  UNL1        0.1540
     28  F         27.1210  -21.7410  -12.5260 F       1  UNL1       -0.2030
     29  C         24.8450  -22.0670  -13.0860 C.2     1  UNL1        0.1570
     30  F         25.1690  -22.3010  -14.3660 F       1  UNL1       -0.2030
     31  C         23.5060  -22.1150  -12.7060 C.2     1  UNL1        0.0750
@<TRIPOS>BOND
     1    30    29    1
     2    29    31    1
     3    29    27    2
     4    31    24    2
     5    28    27    1
     6    27    26    1
     7    23    22    1
     8    24    22    1
     9    24    25    1
    10    22    20   am
    11     4     5    2
    12     4     3    1
    13     5     6    1
    14    26    25    2
    15    20     3    1
    16    20    21    2
    17     3     2    2
    18     7     6    1
    19     6     1    2
    20     2     1    1
    21     1     8    1
    22    10     8    2
    23     8     9    2
    24     8    11    1
    25    11    12    1
    26    11    13    1
    27    14    13    2
    28    14    15    1
    29    13    18    1
    30    15    16    2
    31    18    19    1
    32    18    17    2
    33    16    17    1
