@<TRIPOS>MOLECULE
56759_out_ligand_01.pdbqt
 32 34 0 0 0
SMALL
GASTEIGER

@<TRIPOS>ATOM
      1  C         17.5470  -23.4650   -8.7150 C.2     1  UNL1        0.0860
      2  C         18.9430  -23.6130   -8.7680 C.2     1  UNL1        0.0420
      3  C         19.6770  -22.9640   -9.7630 C.2     1  UNL1        0.0330
      4  C         19.0220  -22.1770  -10.7140 C.2     1  UNL1        0.0170
      5  C         17.6340  -22.0290  -10.6590 C.2     1  UNL1        0.0090
      6  C         16.8730  -22.6730   -9.6670 C.2     1  UNL1       -0.0390
      7  C         15.3840  -22.4630   -9.6670 C.3     1  UNL1        0.0500
      8  C         21.1500  -23.1590   -9.8080 C.2     1  UNL1        0.2560
      9  O         21.6570  -23.9340   -9.0070 O.2     1  UNL1       -0.2670
     10  N         21.8050  -22.3970  -10.7580 N.am    1  UNL1       -0.3230
     11  H         21.2520  -21.6980  -11.2390 H       1  UNL1        0.1690
     12  C         23.1830  -22.4070  -11.0560 C.2     1  UNL1        0.0370
     13  C         23.9900  -21.4920  -10.3610 C.2     1  UNL1        0.0290
     14  C         25.3670  -21.4270  -10.5880 C.2     1  UNL1        0.0050
     15  C         25.9580  -22.2740  -11.5230 C.2     1  UNL1        0.0360
     16  C         25.1560  -23.1820  -12.2250 C.2     1  UNL1        0.1050
     17  C         23.7720  -23.2530  -11.9980 C.2     1  UNL1        0.0650
     18  N         25.7760  -24.0660  -13.2210 N.pl3   1  UNL1       -0.1160
     19  O         25.3060  -24.0540  -14.3680 O.2     1  UNL1       -0.5320
     20  O         26.7230  -24.7770  -12.8580 O.2     1  UNL1       -0.5320
     21  S         16.6870  -24.2930   -7.3840 S.O2    1  UNL1        0.2630
     22  O         17.6800  -24.9210   -6.5370 O.2     1  UNL1       -0.2000
     23  O         15.6090  -25.0800   -7.9430 O.2     1  UNL1       -0.2000
     24  N         16.0420  -23.0070   -6.4940 N.pl3   1  UNL1       -0.2810
     25  H         15.5350  -22.3720   -7.1100 H       1  UNL1        0.1790
     26  C         16.8700  -22.4150   -5.5000 C.2     1  UNL1        0.0430
     27  C         16.6250  -22.6730   -4.1540 C.2     1  UNL1        0.0300
     28  C         17.4620  -22.1310   -3.1810 C.2     1  UNL1        0.0030
     29  C         18.5470  -21.3370   -3.5560 C.2     1  UNL1        0.0070
     30  C         18.8130  -21.0910   -4.9090 C.2     1  UNL1       -0.0600
     31  C         19.9730  -20.2280   -5.3110 C.3     1  UNL1        0.0480
     32  C         17.9600  -21.6300   -5.8800 C.2     1  UNL1        0.0370
@<TRIPOS>BOND
     1    19    18    2
     2    18    20    2
     3    18    16    1
     4    16    17    1
     5    16    15    2
     6    17    12    2
     7    15    14    1
     8    11    10    1
     9    12    10    1
    10    12    13    1
    11    10     8   am
    12     4     5    2
    13     4     3    1
    14     5     6    1
    15    14    13    2
    16     8     3    1
    17     8     9    2
    18     3     2    2
    19     7     6    1
    20     6     1    2
    21     2     1    1
    22     1    21    1
    23    23    21    2
    24    21    22    2
    25    21    24    1
    26    25    24    1
    27    24    26    1
    28    32    26    2
    29    32    30    1
    30    26    27    1
    31    31    30    1
    32    30    29    2
    33    27    28    2
    34    29    28    1
