@<TRIPOS>MOLECULE
56752_out_ligand_01.pdbqt
 34 36 0 0 0
SMALL
GASTEIGER

@<TRIPOS>ATOM
      1  C         22.3020  -22.1820  -11.1640 C.2     1  UNL1        0.0860
      2  C         21.6120  -22.6650  -10.0400 C.2     1  UNL1        0.0420
      3  C         20.2270  -22.5240   -9.9480 C.2     1  UNL1        0.0330
      4  C         19.5220  -21.8970  -10.9790 C.2     1  UNL1        0.0170
      5  C         20.2050  -21.4270  -12.1050 C.2     1  UNL1        0.0090
      6  C         21.6030  -21.5560  -12.2160 C.2     1  UNL1       -0.0390
      7  C         22.2580  -21.0550  -13.4730 C.3     1  UNL1        0.0500
      8  C         19.5330  -23.0360   -8.7350 C.2     1  UNL1        0.2560
      9  O         19.7960  -24.1650   -8.3450 O.2     1  UNL1       -0.2670
     10  N         18.5820  -22.1730   -8.2200 N.am    1  UNL1       -0.3220
     11  H         18.2350  -21.4930   -8.8810 H       1  UNL1        0.1690
     12  C         17.7560  -22.4290   -7.0950 C.2     1  UNL1        0.0470
     13  C         18.0590  -21.9210   -5.8100 C.2     1  UNL1       -0.0350
     14  C         19.2310  -21.0260   -5.5010 C.3     1  UNL1        0.0500
     15  C         17.2000  -22.2130   -4.7350 C.2     1  UNL1        0.0090
     16  C         16.0270  -22.9290   -4.9310 C.2     1  UNL1        0.0010
     17  C         15.6940  -23.3760   -6.2050 C.2     1  UNL1        0.0100
     18  C         16.5460  -23.1540   -7.3040 C.2     1  UNL1       -0.0270
     19  C         16.1520  -23.7050   -8.6760 C.3     1  UNL1        0.0130
     20  C         15.2360  -24.9360   -8.6420 C.3     1  UNL1        0.0150
     21  C         15.5110  -22.6020   -9.5210 C.3     1  UNL1        0.0150
     22  S         24.0740  -22.4370  -11.2020 S.O2    1  UNL1        0.2630
     23  O         24.6910  -21.2450  -11.7450 O.2     1  UNL1       -0.2000
     24  O         24.4850  -22.9380   -9.9070 O.2     1  UNL1       -0.2000
     25  N         24.2700  -23.7090  -12.2870 N.pl3   1  UNL1       -0.2800
     26  H         23.4790  -24.3480  -12.2810 H       1  UNL1        0.1790
     27  C         25.0270  -23.5630  -13.4910 C.2     1  UNL1        0.0490
     28  C         26.3960  -23.8850  -13.4970 C.2     1  UNL1       -0.0350
     29  C         27.1200  -23.7590  -14.6940 C.2     1  UNL1        0.0090
     30  C         27.1140  -24.3710  -12.2690 C.3     1  UNL1        0.0500
     31  C         26.5010  -23.3140  -15.8630 C.2     1  UNL1        0.0070
     32  C         25.1480  -22.9710  -15.8550 C.2     1  UNL1       -0.0600
     33  C         24.4700  -22.4670  -17.0960 C.3     1  UNL1        0.0480
     34  C         24.4290  -23.0680  -14.6570 C.2     1  UNL1        0.0370
@<TRIPOS>BOND
     1    33    32    1
     2    31    32    2
     3    31    29    1
     4    32    34    1
     5    29    28    2
     6    34    27    2
     7    28    27    1
     8    28    30    1
     9    27    25    1
    10     7     6    1
    11    25    26    1
    12    25    22    1
    13     6     5    1
    14     6     1    2
    15     5     4    2
    16    23    22    2
    17    22     1    1
    18    22    24    2
    19     1     2    1
    20     4     3    1
    21     2     3    2
    22     3     8    1
    23    21    19    1
    24    11    10    1
    25     8     9    2
    26     8    10   am
    27    19    20    1
    28    19    18    1
    29    10    12    1
    30    18    12    2
    31    18    17    1
    32    12    13    1
    33    17    16    2
    34    13    14    1
    35    13    15    2
    36    16    15    1
