@<TRIPOS>MOLECULE
56760_out_ligand_01.pdbqt
 45 48 0 0 0
SMALL
GASTEIGER

@<TRIPOS>ATOM
      1  C         20.8830  -21.4180   -6.9070 C.2     1  UNL1        0.2560
      2  O         21.6400  -20.5720   -6.4510 O.2     1  UNL1       -0.2670
      3  N         21.1270  -22.2870   -7.9540 N.am    1  UNL1       -0.3230
      4  H         20.4380  -23.0070   -8.1260 H       1  UNL1        0.1690
      5  C         22.2850  -22.3510   -8.7570 C.2     1  UNL1        0.0350
      6  C         22.7630  -21.2820   -9.5240 C.2     1  UNL1        0.0310
      7  C         23.9240  -21.4220  -10.2920 C.2     1  UNL1        0.0270
      8  C         24.6140  -22.6340  -10.2880 C.2     1  UNL1        0.0800
      9  C         24.1410  -23.7150   -9.5440 C.2     1  UNL1        0.0270
     10  C         22.9800  -23.5680   -8.7800 C.2     1  UNL1        0.0310
     11  S         26.0900  -22.8040  -11.2550 S.O2    1  UNL1        0.2630
     12  O         27.1200  -23.3350  -10.3870 O.2     1  UNL1       -0.2000
     13  O         26.3000  -21.5860  -12.0090 O.2     1  UNL1       -0.2000
     14  N         25.6870  -24.0520  -12.3260 N.pl3   1  UNL1       -0.2810
     15  H         26.2100  -24.9010  -12.1060 H       1  UNL1        0.1790
     16  C         25.4910  -23.7190  -13.6910 C.2     1  UNL1        0.0430
     17  C         25.1660  -24.7230  -14.5970 C.2     1  UNL1        0.0320
     18  C         24.9390  -24.3980  -15.9350 C.2     1  UNL1        0.0270
     19  C         25.0270  -23.0690  -16.3630 C.2     1  UNL1        0.0490
     20 CL         24.7320  -22.7500  -18.0320 Cl      1  UNL1       -0.0830
     21  C         25.3420  -22.0480  -15.4550 C.2     1  UNL1        0.0710
     22  C         25.5750  -22.3920  -14.1100 C.2     1  UNL1        0.0480
     23  C         25.4300  -20.6100  -15.8870 C.3     1  UNL1        0.4190
     24  F         26.6170  -20.2990  -16.4750 F       1  UNL1       -0.1660
     25  F         24.4750  -20.2690  -16.8000 F       1  UNL1       -0.1660
     26  F         25.2670  -19.7370  -14.8560 F       1  UNL1       -0.1660
     27  C         19.5560  -21.5770   -6.2560 C.2     1  UNL1        0.0340
     28  C         18.5430  -22.2370   -6.9610 C.2     1  UNL1        0.0440
     29  C         17.2790  -22.4480   -6.3780 C.2     1  UNL1        0.1020
     30  C         17.0270  -21.9800   -5.0880 C.2     1  UNL1        0.0570
     31  C         18.0530  -21.3250   -4.3840 C.2     1  UNL1        0.0260
     32 CL         15.5400  -22.1510   -4.2330 Cl      1  UNL1       -0.0830
     33  C         19.3130  -21.1290   -4.9570 C.2     1  UNL1        0.0190
     34  S         16.0800  -23.2800   -7.3930 S.O2    1  UNL1        0.2650
     35  O         15.1890  -22.2540   -7.9000 O.2     1  UNL1       -0.2000
     36  O         15.5330  -24.4240   -6.7030 O.2     1  UNL1       -0.2000
     37  N         16.9800  -23.7850   -8.7240 N.pl3   1  UNL1       -0.2800
     38  H         16.7670  -24.7380   -9.0120 H       1  UNL1        0.1790
     39  C         17.4250  -22.8540   -9.7050 C.2     1  UNL1        0.0480
     40  C         16.5850  -21.8070  -10.0950 C.2     1  UNL1        0.0300
     41  C         16.9950  -20.8980  -11.0680 C.2     1  UNL1        0.0020
     42  C         18.2510  -21.0250  -11.6520 C.2     1  UNL1        0.0010
     43  C         19.1010  -22.0580  -11.2550 C.2     1  UNL1        0.0090
     44  C         18.7050  -22.9800  -10.2730 C.2     1  UNL1       -0.0350
     45  C         19.6600  -24.0700   -9.8730 C.3     1  UNL1        0.0500
@<TRIPOS>BOND
     1    20    19    1
     2    25    23    1
     3    24    23    1
     4    19    18    2
     5    19    21    1
     6    18    17    1
     7    23    21    1
     8    23    26    1
     9    21    22    2
    10    17    16    2
    11    22    16    1
    12    16    14    1
    13    14    15    1
    14    14    11    1
    15    13    11    2
    16    42    43    2
    17    42    41    1
    18    11    12    2
    19    11     8    1
    20    43    44    1
    21    41    40    2
    22     7     8    2
    23     7     6    1
    24     8     9    1
    25    44    45    1
    26    44    39    2
    27    40    39    1
    28    39    37    1
    29     9    10    2
    30     6     5    2
    31    38    37    1
    32    10     5    1
    33     5     3    1
    34    37    34    1
    35     4     3    1
    36     3     1   am
    37    35    34    2
    38    34    36    2
    39    34    29    1
    40    28    29    1
    41    28    27    2
    42     1     2    2
    43     1    27    1
    44    29    30    2
    45    27    33    1
    46    30    31    1
    47    30    32    1
    48    33    31    2
