@<TRIPOS>MOLECULE
56761_out_ligand_01.pdbqt
 34 36 0 0 0
SMALL
GASTEIGER

@<TRIPOS>ATOM
      1  C         17.0990  -23.0630   -9.0400 C.2     1  UNL1        0.0860
      2  C         18.4860  -23.2540   -9.1640 C.2     1  UNL1        0.0420
      3  C         19.1900  -22.6700  -10.2190 C.2     1  UNL1        0.0330
      4  C         18.5070  -21.9030  -11.1660 C.2     1  UNL1        0.0170
      5  C         17.1280  -21.7090  -11.0410 C.2     1  UNL1        0.0090
      6  C         16.4000  -22.2810   -9.9810 C.2     1  UNL1       -0.0390
      7  C         14.9210  -22.0220   -9.9230 C.3     1  UNL1        0.0500
      8  C         20.6540  -22.9170  -10.3230 C.2     1  UNL1        0.2560
      9  O         21.1190  -23.8920   -9.7470 O.2     1  UNL1       -0.2670
     10  N         21.3520  -21.9780  -11.0550 N.am    1  UNL1       -0.3210
     11  H         20.8450  -21.1580  -11.3730 H       1  UNL1        0.1690
     12  C         22.7380  -21.9560  -11.3460 C.2     1  UNL1        0.0570
     13  C         23.2560  -22.1730  -12.6280 C.2     1  UNL1        0.0470
     14  C         24.6430  -22.1410  -12.8650 C.2     1  UNL1        0.0500
     15  C         25.5150  -21.8720  -11.8000 C.2     1  UNL1        0.0180
     16  C         25.0130  -21.6510  -10.5180 C.2     1  UNL1        0.0270
     17  C         23.6350  -21.6920  -10.2940 C.2     1  UNL1        0.0600
     18 CL         23.0620  -21.4020   -8.6860 Cl      1  UNL1       -0.0820
     19  C         25.1770  -22.3540  -14.2630 C.3     1  UNL1        0.4170
     20  F         25.5170  -23.6470  -14.5190 F       1  UNL1       -0.1660
     21  F         24.2730  -22.0030  -15.2180 F       1  UNL1       -0.1660
     22  F         26.2960  -21.6190  -14.5220 F       1  UNL1       -0.1660
     23  S         16.3230  -23.8440   -7.6310 S.O2    1  UNL1        0.2630
     24  O         15.5580  -22.8180   -6.9500 O.2     1  UNL1       -0.2000
     25  O         15.6870  -25.0820   -8.0170 O.2     1  UNL1       -0.2000
     26  N         17.6430  -24.1760   -6.6310 N.pl3   1  UNL1       -0.2810
     27  H         18.4310  -24.5430   -7.1640 H       1  UNL1        0.1790
     28  C         17.9270  -23.2750   -5.5720 C.2     1  UNL1        0.0430
     29  C         17.5550  -23.6170   -4.2730 C.2     1  UNL1        0.0300
     30  C         17.7990  -22.7270   -3.2280 C.2     1  UNL1        0.0030
     31  C         18.4150  -21.5010   -3.4840 C.2     1  UNL1        0.0070
     32  C         18.8020  -21.1570   -4.7860 C.2     1  UNL1       -0.0600
     33  C         19.4260  -19.8220   -5.0660 C.3     1  UNL1        0.0480
     34  C         18.5410  -22.0510   -5.8320 C.2     1  UNL1        0.0370
@<TRIPOS>BOND
     1    21    19    1
     2    22    19    1
     3    20    19    1
     4    19    14    1
     5    14    13    1
     6    14    15    2
     7    13    12    2
     8    15    16    1
     9    11    10    1
    10    12    10    1
    11    12    17    1
    12     4     5    2
    13     4     3    1
    14    10     8   am
    15     5     6    1
    16    16    17    2
    17     8     3    1
    18     8     9    2
    19    17    18    1
    20     3     2    2
    21     6     7    1
    22     6     1    2
    23     2     1    1
    24     1    23    1
    25    25    23    2
    26    23    24    2
    27    23    26    1
    28    27    26    1
    29    26    28    1
    30    34    28    2
    31    34    32    1
    32    28    29    1
    33    33    32    1
    34    32    31    2
    35    29    30    2
    36    31    30    1
