@<TRIPOS>MOLECULE
56768_out_ligand_01.pdbqt
 32 34 0 0 0
SMALL
GASTEIGER

@<TRIPOS>ATOM
      1  C         17.5930  -23.6090   -8.5280 C.2     1  UNL1        0.0810
      2  C         18.9690  -23.8870   -8.4840 C.2     1  UNL1        0.0420
      3  C         19.8350  -23.3300   -9.4300 C.2     1  UNL1        0.0330
      4  C         19.3140  -22.5340  -10.4540 C.2     1  UNL1        0.0170
      5  C         17.9430  -22.2650  -10.5030 C.2     1  UNL1        0.0090
      6  C         17.0630  -22.7790   -9.5360 C.2     1  UNL1       -0.0390
      7  C         15.6040  -22.4380   -9.6530 C.3     1  UNL1        0.0500
      8  C         21.2910  -23.6290   -9.3160 C.2     1  UNL1        0.2510
      9  O         21.6610  -24.7160   -8.8880 O.2     1  UNL1       -0.2680
     10  N         22.1620  -22.6270   -9.6790 N.am    1  UNL1       -0.3530
     11  H         21.8170  -21.7740  -10.0900 H       1  UNL1        0.1630
     12  C         23.5850  -22.8700   -9.7390 C.3     1  UNL1        0.1630
     13  C         24.1230  -22.6470  -11.1300 C.2     1  UNL1       -0.0190
     14  C         23.2760  -22.0870  -12.1040 C.2     1  UNL1        0.0120
     15  C         23.7330  -21.8660  -13.4050 C.2     1  UNL1        0.0240
     16  C         25.0370  -22.2090  -13.7490 C.2     1  UNL1        0.0350
     17 CL         25.5980  -21.9370  -15.3520 Cl      1  UNL1       -0.0840
     18  C         25.8890  -22.7760  -12.8060 C.2     1  UNL1        0.0480
     19  C         25.4320  -22.9970  -11.5030 C.2     1  UNL1        0.0430
     20 CL         26.5250  -23.7380  -10.3870 Cl      1  UNL1       -0.0840
     21  S         16.5620  -24.3600   -7.2700 S.O2    1  UNL1        0.2460
     22  O         17.4290  -25.0100   -6.3100 O.2     1  UNL1       -0.2060
     23  O         15.4880  -25.0720   -7.9230 O.2     1  UNL1       -0.2060
     24  N         15.9680  -22.9580   -6.4950 N.pl3   1  UNL1       -0.1810
     25  H         15.8280  -22.2620   -7.2310 H       1  UNL1        0.1460
     26  C         16.8540  -22.4320   -5.4980 C.2     1  UNL1        0.0230
     27  C         16.5990  -22.6410   -4.1420 C.2     1  UNL1        0.0240
     28  C         17.4570  -22.0950   -3.1880 C.2     1  UNL1        0.0020
     29  C         18.5570  -21.3330   -3.5870 C.2     1  UNL1        0.0070
     30  C         18.8050  -21.1040   -4.9470 C.2     1  UNL1       -0.0600
     31  C         20.0100  -20.3200   -5.3800 C.3     1  UNL1        0.0480
     32  C         17.9450  -21.6620   -5.9010 C.2     1  UNL1        0.0310
@<TRIPOS>BOND
     1    17    16    1
     2    16    15    2
     3    16    18    1
     4    15    14    1
     5    18    19    2
     6    14    13    2
     7    19    13    1
     8    19    20    1
     9    13    12    1
    10     5     4    2
    11     5     6    1
    12     4     3    1
    13    11    10    1
    14    12    10    1
    15    10     8   am
    16     7     6    1
    17     6     1    2
    18     3     8    1
    19     3     2    2
    20     8     9    2
    21     1     2    1
    22     1    21    1
    23    23    21    2
    24    21    24    1
    25    21    22    2
    26    25    24    1
    27    24    26    1
    28    32    26    2
    29    32    30    1
    30    26    27    1
    31    31    30    1
    32    30    29    2
    33    27    28    2
    34    29    28    1
