@<TRIPOS>MOLECULE
56765_out_ligand_01.pdbqt
 34 36 0 0 0
SMALL
GASTEIGER

@<TRIPOS>ATOM
      1  C         17.4710  -23.2470   -8.8570 C.2     1  UNL1        0.0860
      2  C         18.8770  -23.1890   -8.8860 C.2     1  UNL1        0.0420
      3  C         19.5370  -22.4380   -9.8620 C.2     1  UNL1        0.0330
      4  C         18.7970  -21.7420  -10.8190 C.2     1  UNL1        0.0170
      5  C         17.4000  -21.7860  -10.7830 C.2     1  UNL1        0.0090
      6  C         16.7110  -22.5340   -9.8070 C.2     1  UNL1       -0.0390
      7  C         15.2080  -22.4930   -9.8280 C.3     1  UNL1        0.0500
      8  C         21.0240  -22.4370   -9.8660 C.2     1  UNL1        0.2560
      9  O         21.5940  -22.4150   -8.7820 O.2     1  UNL1       -0.2670
     10  N         21.5970  -22.4280  -11.1250 N.am    1  UNL1       -0.3220
     11  H         20.9520  -22.3310  -11.8990 H       1  UNL1        0.1690
     12  C         22.9770  -22.4070  -11.4510 C.2     1  UNL1        0.0430
     13  C         23.9420  -22.9960  -10.6160 C.2     1  UNL1        0.0300
     14  C         25.3070  -22.9490  -10.9230 C.2     1  UNL1        0.0050
     15  C         25.7340  -22.3000  -12.0730 C.2     1  UNL1        0.0370
     16  C         24.7790  -21.7200  -12.9150 C.2     1  UNL1        0.1110
     17  C         23.3900  -21.7780  -12.6510 C.2     1  UNL1       -0.0020
     18  C         22.3790  -21.1850  -13.6020 C.3     1  UNL1        0.0530
     19  N         25.2890  -21.0290  -14.0900 N.pl3   1  UNL1       -0.1150
     20  O         25.4470  -21.7030  -15.1140 O.2     1  UNL1       -0.5320
     21  O         25.5350  -19.8200  -13.9720 O.2     1  UNL1       -0.5320
     22  S         16.7620  -24.2110   -7.5250 S.O2    1  UNL1        0.2630
     23  O         17.8020  -24.9680   -6.8630 O.2     1  UNL1       -0.2000
     24  O         15.6070  -24.8920   -8.0770 O.2     1  UNL1       -0.2000
     25  N         16.1500  -23.0430   -6.4800 N.pl3   1  UNL1       -0.2800
     26  H         15.3920  -22.4790   -6.8830 H       1  UNL1        0.1790
     27  C         16.9660  -22.4640   -5.4690 C.2     1  UNL1        0.0490
     28  C         16.7340  -22.7260   -4.1100 C.2     1  UNL1       -0.0350
     29  C         17.5550  -22.0970   -3.1530 C.2     1  UNL1        0.0090
     30  C         15.6180  -23.6150   -3.6300 C.3     1  UNL1        0.0500
     31  C         18.6000  -21.2560   -3.5430 C.2     1  UNL1        0.0070
     32  C         18.8370  -21.0070   -4.8960 C.2     1  UNL1       -0.0600
     33  C         19.9850  -20.1420   -5.3260 C.3     1  UNL1        0.0480
     34  C         18.0180  -21.6250   -5.8540 C.2     1  UNL1        0.0370
@<TRIPOS>BOND
     1    20    19    2
     2    19    21    2
     3    19    16    1
     4    18    17    1
     5    16    17    1
     6    16    15    2
     7    17    12    2
     8    15    14    1
     9    11    10    1
    10    12    10    1
    11    12    13    1
    12    10     8   am
    13    14    13    2
    14     4     5    2
    15     4     3    1
    16     5     6    1
    17     8     3    1
    18     8     9    2
    19     3     2    2
    20     7     6    1
    21     6     1    2
    22     2     1    1
    23     1    22    1
    24    24    22    2
    25    22    23    2
    26    22    25    1
    27    26    25    1
    28    25    27    1
    29    34    27    2
    30    34    32    1
    31    27    28    1
    32    33    32    1
    33    32    31    2
    34    28    30    1
    35    28    29    2
    36    31    29    1
