@<TRIPOS>MOLECULE
56774_out_ligand_01.pdbqt
 45 49 0 0 0
SMALL
GASTEIGER

@<TRIPOS>ATOM
      1  C         22.7030  -22.9090   -9.9750 C.2     1  UNL1        0.2560
      2  O         22.9440  -23.5820   -8.9820 O.2     1  UNL1       -0.2670
      3  N         21.4630  -22.5250  -10.4530 N.am    1  UNL1       -0.3230
      4  H         21.4450  -22.0380  -11.3390 H       1  UNL1        0.1690
      5  C         20.2020  -22.8620   -9.9150 C.2     1  UNL1        0.0350
      6  C         19.0780  -22.2630  -10.5030 C.2     1  UNL1        0.0310
      7  C         17.7900  -22.5680  -10.0550 C.2     1  UNL1        0.0270
      8  C         17.6240  -23.4690   -9.0030 C.2     1  UNL1        0.0800
      9  C         18.7310  -24.0710   -8.4060 C.2     1  UNL1        0.0270
     10  C         20.0180  -23.7600   -8.8600 C.2     1  UNL1        0.0310
     11  S         15.9890  -23.9060   -8.4670 S.O2    1  UNL1        0.2630
     12  O         15.1140  -23.9120   -9.6200 O.2     1  UNL1       -0.2000
     13  O         16.1080  -25.0770   -7.6220 O.2     1  UNL1       -0.2000
     14  N         15.5760  -22.6350   -7.4360 N.pl3   1  UNL1       -0.2800
     15  H         15.8660  -21.7360   -7.8160 H       1  UNL1        0.1790
     16  C         15.7210  -22.8270   -6.0280 C.2     1  UNL1        0.0530
     17  C         14.7470  -23.6020   -5.3930 C.2     1  UNL1        0.0310
     18  C         14.8250  -23.8370   -4.0240 C.2     1  UNL1        0.0030
     19  C         15.8790  -23.2990   -3.2900 C.2     1  UNL1        0.0120
     20  C         16.8710  -22.5200   -3.9090 C.2     1  UNL1       -0.0240
     21  C         17.9280  -21.9880   -3.1530 C.2     1  UNL1        0.0120
     22  C         16.8030  -22.2710   -5.3020 C.2     1  UNL1        0.0010
     23  C         18.9230  -21.2180   -3.7540 C.2     1  UNL1        0.0010
     24  C         18.8710  -20.9660   -5.1180 C.2     1  UNL1        0.0010
     25  C         17.8240  -21.4820   -5.8840 C.2     1  UNL1        0.0140
     26  C         23.8470  -22.4740  -10.8190 C.2     1  UNL1        0.0330
     27  C         24.2020  -23.2690  -11.9130 C.2     1  UNL1        0.0420
     28  C         25.2690  -22.8940  -12.7440 C.2     1  UNL1        0.0860
     29  C         25.9980  -21.7170  -12.4810 C.2     1  UNL1       -0.0390
     30  C         25.6260  -20.9340  -11.3720 C.2     1  UNL1        0.0090
     31  C         27.1210  -21.2180  -13.3470 C.3     1  UNL1        0.0500
     32  C         24.5660  -21.3100  -10.5420 C.2     1  UNL1        0.0170
     33  S         25.6020  -23.9370  -14.1600 S.O2    1  UNL1        0.2630
     34  O         27.0230  -23.8870  -14.4360 O.2     1  UNL1       -0.2000
     35  O         24.9530  -25.2110  -13.9330 O.2     1  UNL1       -0.2000
     36  N         24.7660  -23.1930  -15.4130 N.pl3   1  UNL1       -0.2800
     37  H         23.7620  -23.3260  -15.3440 H       1  UNL1        0.1790
     38  C         25.2660  -22.0420  -16.0960 C.2     1  UNL1        0.0480
     39  C         26.2540  -22.1580  -17.0780 C.2     1  UNL1        0.0310
     40  C         26.7410  -21.0280  -17.7410 C.2     1  UNL1        0.0090
     41  C         26.2290  -19.7630  -17.4480 C.2     1  UNL1       -0.0610
     42  C         26.7380  -18.5390  -18.1520 C.3     1  UNL1        0.0480
     43  C         25.2090  -19.6490  -16.4940 C.2     1  UNL1        0.0150
     44  C         24.7120  -20.7780  -15.8180 C.2     1  UNL1       -0.0340
     45  C         23.6200  -20.5810  -14.8030 C.3     1  UNL1        0.0500
@<TRIPOS>BOND
     1    42    41    1
     2    40    41    2
     3    40    39    1
     4    41    43    1
     5    39    38    2
     6    43    44    2
     7    38    44    1
     8    38    36    1
     9    44    45    1
    10    36    37    1
    11    36    33    1
    12    34    33    2
    13    33    35    2
    14    33    28    1
    15    31    29    1
    16    28    29    2
    17    28    27    1
    18    29    30    1
    19    27    26    2
    20    30    32    2
    21     4     3    1
    22    26    32    1
    23    26     1    1
    24     6     7    1
    25     6     5    2
    26     3     1   am
    27     3     5    1
    28     7     8    2
    29     1     2    2
    30     5    10    1
    31    12    11    2
    32     8    11    1
    33     8     9    1
    34    10     9    2
    35    11    13    2
    36    11    14    1
    37    15    14    1
    38    14    16    1
    39    16    17    2
    40    16    22    1
    41    25    22    1
    42    25    24    2
    43    17    18    1
    44    22    20    2
    45    24    23    1
    46    18    19    2
    47    20    19    1
    48    20    21    1
    49    23    21    2
