@<TRIPOS>MOLECULE
56781_out_ligand_01.pdbqt
 43 46 0 0 0
SMALL
GASTEIGER

@<TRIPOS>ATOM
      1  N         21.2360  -22.2930   -7.9690 N.am    1  UNL1       -0.3230
      2  C         21.0030  -21.4400   -6.9070 C.2     1  UNL1        0.2560
      3  O         21.7330  -20.5470   -6.4970 O.2     1  UNL1       -0.2670
      4  H         20.4710  -22.8870   -8.2620 H       1  UNL1        0.1690
      5  C         19.6880  -21.6250   -6.2320 C.2     1  UNL1        0.0340
      6  C         19.4090  -21.0350   -4.9960 C.2     1  UNL1        0.0190
      7  C         18.1540  -21.2210   -4.4070 C.2     1  UNL1        0.0260
      8  C         17.1680  -21.9860   -5.0450 C.2     1  UNL1        0.0570
      9 CL         15.6550  -22.1280   -4.2270 Cl      1  UNL1       -0.0830
     10  C         17.4450  -22.5590   -6.2880 C.2     1  UNL1        0.1020
     11  C         18.7050  -22.3790   -6.8810 C.2     1  UNL1        0.0440
     12  S         16.2480  -23.5440   -7.1500 S.O2    1  UNL1        0.2650
     13  O         15.1110  -22.6980   -7.4420 O.2     1  UNL1       -0.2000
     14  O         16.0570  -24.7710   -6.4040 O.2     1  UNL1       -0.2000
     15  N         16.9860  -23.9070   -8.6180 N.pl3   1  UNL1       -0.2800
     16  H         16.7010  -24.8260   -8.9490 H       1  UNL1        0.1790
     17  C         17.3420  -22.9060   -9.5800 C.2     1  UNL1        0.0490
     18  C         16.4740  -21.8460   -9.8630 C.2     1  UNL1        0.0310
     19  C         16.8070  -20.8820  -10.8110 C.2     1  UNL1        0.0030
     20  C         18.0270  -20.9530  -11.4710 C.2     1  UNL1        0.0070
     21  C         18.9430  -21.9730  -11.1760 C.2     1  UNL1       -0.0540
     22  C         20.2580  -21.9810  -11.9110 C.3     1  UNL1        0.0490
     23  C         18.6210  -22.9410  -10.1900 C.2     1  UNL1       -0.0290
     24  C         19.6170  -24.0190   -9.8380 C.3     1  UNL1        0.0510
     25  C         22.3940  -22.3500   -8.7730 C.2     1  UNL1        0.0350
     26  C         22.8920  -21.2650   -9.5000 C.2     1  UNL1        0.0310
     27  C         24.0420  -21.4000  -10.2840 C.2     1  UNL1        0.0270
     28  C         24.6890  -22.6340  -10.3570 C.2     1  UNL1        0.0800
     29  C         24.2240  -23.7200   -9.6120 C.2     1  UNL1        0.0270
     30  C         23.0780  -23.5740   -8.8250 C.2     1  UNL1        0.0310
     31  S         26.1480  -22.8120  -11.3620 S.O2    1  UNL1        0.2630
     32  O         26.9340  -23.8890  -10.7940 O.2     1  UNL1       -0.2000
     33  O         26.7200  -21.4980  -11.5570 O.2     1  UNL1       -0.2000
     34  N         25.5490  -23.4030  -12.8250 N.pl3   1  UNL1       -0.2800
     35  H         24.6930  -23.9390  -12.7060 H       1  UNL1        0.1790
     36  C         25.7110  -22.6420  -14.0200 C.2     1  UNL1        0.0480
     37  C         26.8930  -22.7620  -14.7530 C.2     1  UNL1        0.0310
     38  C         27.0960  -21.9940  -15.9010 C.2     1  UNL1        0.0090
     39  C         26.1200  -21.0880  -16.3230 C.2     1  UNL1       -0.0610
     40  C         26.3220  -20.2770  -17.5690 C.3     1  UNL1        0.0480
     41  C         24.9240  -20.9890  -15.6000 C.2     1  UNL1        0.0150
     42  C         24.7060  -21.7580  -14.4440 C.2     1  UNL1       -0.0340
     43  C         23.4050  -21.6110  -13.7060 C.3     1  UNL1        0.0500
@<TRIPOS>BOND
     1    40    39    1
     2    39    38    2
     3    39    41    1
     4    38    37    1
     5    41    42    2
     6    37    36    2
     7    42    36    1
     8    42    43    1
     9    36    34    1
    10    34    35    1
    11    34    31    1
    12    22    21    1
    13    33    31    2
    14    20    21    2
    15    20    19    1
    16    31    32    2
    17    31    28    1
    18    21    23    1
    19    19    18    2
    20    28    27    2
    21    28    29    1
    22    27    26    1
    23    23    24    1
    24    23    17    2
    25    18    17    1
    26    29    30    2
    27    17    15    1
    28    26    25    2
    29    16    15    1
    30    30    25    1
    31    25     1    1
    32    15    12    1
    33     4     1    1
    34     1     2   am
    35    13    12    2
    36    12    14    2
    37    12    10    1
    38     2     3    2
    39     2     5    1
    40    11    10    1
    41    11     5    2
    42    10     8    2
    43     5     6    1
    44     8     7    1
    45     8     9    1
    46     6     7    2
