@<TRIPOS>MOLECULE
56780_out_ligand_01.pdbqt
 31 33 0 0 0
SMALL
GASTEIGER

@<TRIPOS>ATOM
      1  C         17.4610  -23.2130   -8.9760 C.2     1  UNL1        0.0860
      2  C         18.8580  -23.3350   -9.0860 C.2     1  UNL1        0.0420
      3  C         19.5480  -22.6990  -10.1190 C.2     1  UNL1        0.0330
      4  C         18.8450  -21.9320  -11.0500 C.2     1  UNL1        0.0170
      5  C         17.4600  -21.7850  -10.9240 C.2     1  UNL1        0.0090
      6  C         16.7460  -22.4130   -9.8860 C.2     1  UNL1       -0.0390
      7  C         15.2610  -22.1860   -9.8210 C.3     1  UNL1        0.0500
      8  S         16.7130  -24.1070   -7.6160 S.O2    1  UNL1        0.2630
      9  O         15.5350  -24.7600   -8.1510 O.2     1  UNL1       -0.2000
     10  O         17.7170  -24.8730   -6.9120 O.2     1  UNL1       -0.2000
     11  N         16.1460  -22.8780   -6.6110 N.pl3   1  UNL1       -0.2800
     12  H         15.5210  -22.2350   -7.0930 H       1  UNL1        0.1790
     13  C         16.9430  -22.3770   -5.5380 C.2     1  UNL1        0.0480
     14  C         18.0610  -21.5830   -5.8080 C.2     1  UNL1        0.0300
     15  C         18.8440  -21.0790   -4.7700 C.2     1  UNL1        0.0020
     16  C         18.5210  -21.3790   -3.4510 C.2     1  UNL1        0.0010
     17  C         17.4240  -22.1940   -3.1720 C.2     1  UNL1        0.0090
     18  C         16.6260  -22.7090   -4.2080 C.2     1  UNL1       -0.0350
     19  C         15.4740  -23.6090   -3.8540 C.3     1  UNL1        0.0500
     20  C         21.0170  -22.9060  -10.2220 C.2     1  UNL1        0.2560
     21  O         21.5210  -23.7840   -9.5330 O.2     1  UNL1       -0.2670
     22  N         21.6690  -22.0420  -11.0830 N.am    1  UNL1       -0.3230
     23  H         21.1200  -21.2870  -11.4740 H       1  UNL1        0.1690
     24  C         23.0430  -22.0350  -11.4030 C.2     1  UNL1        0.0360
     25  C         23.9140  -21.4720  -10.4570 C.2     1  UNL1        0.0320
     26  C         25.2890  -21.4190  -10.6970 C.2     1  UNL1        0.0460
     27  C         25.7980  -21.9250  -11.8870 C.2     1  UNL1        0.1380
     28  F         27.1210  -21.8630  -12.0990 F       1  UNL1       -0.2040
     29  C         24.9470  -22.4830  -12.8360 C.2     1  UNL1        0.0740
     30 CL         25.5770  -23.1050  -14.3130 Cl      1  UNL1       -0.0810
     31  C         23.5710  -22.5380  -12.5970 C.2     1  UNL1        0.0560
@<TRIPOS>BOND
     1    30    29    1
     2    29    31    1
     3    29    27    2
     4    31    24    2
     5    28    27    1
     6    27    26    1
     7    23    22    1
     8    24    22    1
     9    24    25    1
    10    22    20   am
    11     4     5    2
    12     4     3    1
    13     5     6    1
    14    26    25    2
    15    20     3    1
    16    20    21    2
    17     3     2    2
    18     6     7    1
    19     6     1    2
    20     2     1    1
    21     1     8    1
    22     9     8    2
    23     8    10    2
    24     8    11    1
    25    12    11    1
    26    11    13    1
    27    14    13    2
    28    14    15    1
    29    13    18    1
    30    15    16    2
    31    18    19    1
    32    18    17    2
    33    16    17    1
