@<TRIPOS>MOLECULE
56786_out_ligand_01.pdbqt
 32 34 0 0 0
SMALL
GASTEIGER

@<TRIPOS>ATOM
      1  C         17.2740  -23.2990   -8.8030 C.2     1  UNL1        0.0810
      2  C         18.6620  -23.3860   -8.9980 C.2     1  UNL1        0.0420
      3  C         19.2740  -22.6690  -10.0320 C.2     1  UNL1        0.0330
      4  C         18.4910  -21.8990  -10.8960 C.2     1  UNL1        0.0170
      5  C         17.1090  -21.8180  -10.7040 C.2     1  UNL1        0.0090
      6  C         16.4790  -22.5010   -9.6490 C.2     1  UNL1       -0.0390
      7  C         14.9860  -22.3810   -9.5170 C.3     1  UNL1        0.0500
      8  S         16.5630  -24.2570   -7.4650 S.O2    1  UNL1        0.2460
      9  O         15.5100  -25.0760   -8.0230 O.2     1  UNL1       -0.2060
     10  O         17.6530  -24.8320   -6.7060 O.2     1  UNL1       -0.2060
     11  N         15.9110  -23.0020   -6.5050 N.pl3   1  UNL1       -0.1810
     12  H         15.6100  -22.2580   -7.1340 H       1  UNL1        0.1460
     13  C         16.8020  -22.5070   -5.4890 C.2     1  UNL1        0.0290
     14  C         16.6050  -22.8070   -4.1300 C.2     1  UNL1       -0.0400
     15  C         17.5010  -22.2740   -3.1900 C.2     1  UNL1        0.0090
     16  C         15.4740  -23.6710   -3.6470 C.3     1  UNL1        0.0500
     17  C         18.5620  -21.4580   -3.5890 C.2     1  UNL1        0.0070
     18  C         18.7430  -21.1440   -4.9390 C.2     1  UNL1       -0.0600
     19  C         19.8920  -20.2820   -5.3700 C.3     1  UNL1        0.0480
     20  C         17.8640  -21.6850   -5.8820 C.2     1  UNL1        0.0310
     21  C         20.7530  -22.7800  -10.2000 C.2     1  UNL1        0.2560
     22  O         21.3520  -23.5960   -9.5100 O.2     1  UNL1       -0.2670
     23  N         21.3060  -21.8950  -11.1070 N.am    1  UNL1       -0.3230
     24  H         20.6950  -21.1930  -11.4990 H       1  UNL1        0.1690
     25  C         22.6610  -21.8000  -11.4910 C.2     1  UNL1        0.0350
     26  C         23.7250  -21.7580  -10.5920 C.2     1  UNL1        0.0310
     27  C         25.0410  -21.6670  -11.0570 C.2     1  UNL1        0.0220
     28  C         25.3060  -21.6220  -12.4280 C.2     1  UNL1        0.0170
     29 BR         27.1210  -21.4970  -12.9700 Br      1  UNL1       -0.0510
     30  C         24.2540  -21.6690  -13.3530 C.2     1  UNL1       -0.0430
     31  C         24.4870  -21.6250  -14.8380 C.3     1  UNL1        0.0490
     32  C         22.9360  -21.7580  -12.8670 C.2     1  UNL1        0.0370
@<TRIPOS>BOND
     1    31    30    1
     2    30    32    1
     3    30    28    2
     4    29    28    1
     5    32    25    2
     6    28    27    1
     7    24    23    1
     8    25    23    1
     9    25    26    1
    10    23    21   am
    11    27    26    2
    12     4     5    2
    13     4     3    1
    14     5     6    1
    15    21     3    1
    16    21    22    2
    17     3     2    2
    18     6     7    1
    19     6     1    2
    20     2     1    1
    21     1     8    1
    22     9     8    2
    23     8    10    2
    24     8    11    1
    25    12    11    1
    26    11    13    1
    27    20    13    2
    28    20    18    1
    29    13    14    1
    30    19    18    1
    31    18    17    2
    32    14    16    1
    33    14    15    2
    34    17    15    1
