@<TRIPOS>MOLECULE
56796_out_ligand_01.pdbqt
 40 43 0 0 0
SMALL
GASTEIGER

@<TRIPOS>ATOM
      1  O         19.4840  -21.0490   -5.7750 O.2     1  UNL1       -0.2670
      2  C         18.8900  -22.0600   -6.1320 C.2     1  UNL1        0.2580
      3  N         19.3020  -23.0040   -7.0520 N.am    1  UNL1       -0.3230
      4  H         18.7500  -23.8520   -7.1060 H       1  UNL1        0.1690
      5  C         20.5410  -23.0420   -7.7250 C.2     1  UNL1        0.0350
      6  C         20.9780  -24.1280   -8.4860 C.2     1  UNL1        0.0310
      7  C         22.1790  -24.0590   -9.1970 C.2     1  UNL1        0.0270
      8  C         22.9430  -22.8920   -9.1480 C.2     1  UNL1        0.0750
      9  C         22.5560  -21.8240   -8.3380 C.2     1  UNL1        0.0270
     10  C         21.3520  -21.9020   -7.6340 C.2     1  UNL1        0.0310
     11  S         24.4020  -22.7490  -10.1530 S.O2    1  UNL1        0.2450
     12  O         25.4120  -23.6300   -9.6120 O.2     1  UNL1       -0.2060
     13  O         24.6590  -21.3390  -10.3490 O.2     1  UNL1       -0.2060
     14  N         23.8930  -23.3530  -11.6540 N.pl3   1  UNL1       -0.1800
     15  H         24.2660  -24.2930  -11.8050 H       1  UNL1        0.1460
     16  C         23.9420  -22.4780  -12.7940 C.2     1  UNL1        0.0460
     17  C         22.8510  -21.6510  -13.0730 C.2     1  UNL1        0.0260
     18  C         22.9110  -20.7480  -14.1350 C.2     1  UNL1        0.0040
     19  C         24.0580  -20.6730  -14.9240 C.2     1  UNL1        0.0260
     20  C         25.1490  -21.5090  -14.6640 C.2     1  UNL1        0.0570
     21 CL         26.5280  -21.3690  -15.6940 Cl      1  UNL1       -0.0820
     22  C         25.0940  -22.4200  -13.6010 C.2     1  UNL1        0.0770
     23 CL         26.4220  -23.4850  -13.2560 Cl      1  UNL1       -0.0810
     24  C         17.6100  -22.3790   -5.4560 C.2     1  UNL1        0.0540
     25  C         17.6000  -22.7930   -4.1180 C.2     1  UNL1        0.0190
     26  C         16.3850  -23.0770   -3.4920 C.2     1  UNL1        0.0010
     27  C         15.1870  -22.9480   -4.1970 C.2     1  UNL1        0.0020
     28  C         15.1970  -22.5420   -5.5340 C.2     1  UNL1        0.0250
     29  C         16.4070  -22.2720   -6.1740 C.2     1  UNL1        0.0380
     30  N         16.3790  -21.7860   -7.5220 N.pl3   1  UNL1       -0.1800
     31  H         15.6280  -21.1040   -7.7010 H       1  UNL1        0.1460
     32  S         16.3050  -22.9720   -8.7420 S.O2    1  UNL1        0.2450
     33  O         16.9060  -24.1940   -8.2480 O.2     1  UNL1       -0.2060
     34  O         14.9540  -22.9500   -9.2620 O.2     1  UNL1       -0.2060
     35  C         17.3580  -22.2820   -9.9940 C.2     1  UNL1        0.0740
     36  C         16.9740  -21.1010  -10.6340 C.2     1  UNL1        0.0250
     37  C         17.7960  -20.5580  -11.6180 C.2     1  UNL1        0.0020
     38  C         18.9900  -21.1970  -11.9630 C.2     1  UNL1        0.0000
     39  C         19.3610  -22.3820  -11.3280 C.2     1  UNL1        0.0020
     40  C         18.5440  -22.9320  -10.3410 C.2     1  UNL1        0.0250
@<TRIPOS>BOND
     1    21    20    1
     2    19    20    2
     3    19    18    1
     4    20    22    1
     5    18    17    2
     6    22    23    1
     7    22    16    2
     8    17    16    1
     9    16    14    1
    10    38    37    2
    11    38    39    1
    12    15    14    1
    13    14    11    1
    14    37    36    1
    15    39    40    2
    16    36    35    2
    17    13    11    2
    18    40    35    1
    19    11    12    2
    20    11     8    1
    21    35    32    1
    22    34    32    2
    23     7     8    2
    24     7     6    1
    25     8     9    1
    26    32    33    2
    27    32    30    1
    28     6     5    2
    29     9    10    2
    30     5    10    1
    31     5     3    1
    32    31    30    1
    33    30    29    1
    34     4     3    1
    35     3     2   am
    36    29    28    1
    37    29    24    2
    38     2     1    2
    39     2    24    1
    40    28    27    2
    41    24    25    1
    42    27    26    1
    43    25    26    2
