@<TRIPOS>MOLECULE
56798_out_ligand_01.pdbqt
 32 35 0 0 0
SMALL
GASTEIGER

@<TRIPOS>ATOM
      1  C         19.7420  -22.0760   -6.8130 C.2     1  UNL1        0.2560
      2  O         19.8480  -21.1010   -6.0800 O.2     1  UNL1       -0.2670
      3  N         18.6820  -22.9570   -6.8900 N.am    1  UNL1       -0.3220
      4  H         18.8160  -23.7950   -7.4470 H       1  UNL1        0.1690
      5  C         20.8800  -22.4190   -7.7060 C.2     1  UNL1        0.0320
      6  C         20.9290  -23.6440   -8.3800 C.2     1  UNL1        0.0170
      7  C         22.0250  -23.9480   -9.1920 C.2     1  UNL1        0.0090
      8  C         23.0760  -23.0300   -9.3410 C.2     1  UNL1       -0.0490
      9  C         23.0060  -21.7950   -8.6760 C.2     1  UNL1        0.0090
     10  C         21.9090  -21.4870   -7.8690 C.2     1  UNL1        0.0170
     11  C         24.2820  -23.3690  -10.1850 C.3     1  UNL1        0.1170
     12  S         25.0150  -21.8630  -10.9120 S.3     1  UNL1       -0.1250
     13  C         24.8960  -22.2930  -12.6350 C.2     1  UNL1        0.0000
     14  C         24.2570  -21.4390  -13.5370 C.2     1  UNL1        0.0190
     15  C         24.1710  -21.7840  -14.8910 C.2     1  UNL1        0.0080
     16  C         24.7250  -22.9840  -15.3570 C.2     1  UNL1       -0.0620
     17  C         24.6040  -23.3720  -16.8030 C.3     1  UNL1        0.0480
     18  C         25.3430  -23.8470  -14.4440 C.2     1  UNL1        0.0080
     19  C         25.4300  -23.5020  -13.0910 C.2     1  UNL1        0.0190
     20  C         17.4420  -22.8970   -6.2120 C.2     1  UNL1        0.0520
     21  C         17.2940  -22.2890   -4.9610 C.2     1  UNL1        0.0310
     22  C         16.0510  -22.2560   -4.3240 C.2     1  UNL1        0.0020
     23  C         14.9390  -22.8330   -4.9280 C.2     1  UNL1        0.0020
     24  C         15.0660  -23.4400   -6.1760 C.2     1  UNL1        0.0210
     25  C         16.3070  -23.4690   -6.8300 C.2     1  UNL1        0.0320
     26  S         16.3690  -24.2900   -8.4290 S.3     1  UNL1       -0.0880
     27  C         16.9440  -23.0110   -9.5350 C.2     1  UNL1        0.0050
     28  C         16.2020  -21.8590   -9.8180 C.2     1  UNL1        0.0190
     29  C         16.7070  -20.8910  -10.6910 C.2     1  UNL1        0.0010
     30  C         17.9490  -21.0700  -11.2930 C.2     1  UNL1        0.0000
     31  C         18.6890  -22.2190  -11.0300 C.2     1  UNL1        0.0010
     32  C         18.1880  -23.1840  -10.1530 C.2     1  UNL1        0.0190
@<TRIPOS>BOND
     1    17    16    1
     2    16    15    2
     3    16    18    1
     4    15    14    1
     5    18    19    2
     6    14    13    2
     7    19    13    1
     8    13    12    1
     9    30    31    2
    10    30    29    1
    11    31    32    1
    12    12    11    1
    13    29    28    2
    14    11     8    1
    15    32    27    2
    16    28    27    1
    17    27    26    1
    18     8     7    2
    19     8     9    1
    20     7     6    1
    21     9    10    2
    22    26    25    1
    23     6     5    2
    24    10     5    1
    25     5     1    1
    26     4     3    1
    27     3     1   am
    28     3    20    1
    29    25    20    2
    30    25    24    1
    31     1     2    2
    32    20    21    1
    33    24    23    2
    34    21    22    2
    35    23    22    1
