@<TRIPOS>MOLECULE
56800_out_ligand_01.pdbqt
 32 34 0 0 0
SMALL
GASTEIGER

@<TRIPOS>ATOM
      1  C         20.7320  -22.3550  -10.7770 C.2     1  UNL1        0.0330
      2  C         20.3520  -21.3810  -11.7040 C.2     1  UNL1        0.0170
      3  C         19.0230  -20.9520  -11.7600 C.2     1  UNL1        0.0090
      4  C         18.0470  -21.4960  -10.9070 C.2     1  UNL1       -0.0390
      5  C         16.6380  -20.9780  -11.0140 C.3     1  UNL1        0.0500
      6  C         18.4410  -22.4850   -9.9840 C.2     1  UNL1        0.0810
      7  C         19.7760  -22.9140   -9.9240 C.2     1  UNL1        0.0420
      8  S         17.2800  -23.2290   -8.8420 S.O2    1  UNL1        0.2460
      9  O         16.1170  -23.6360   -9.6050 O.2     1  UNL1       -0.2060
     10  O         18.0090  -24.1700   -8.0210 O.2     1  UNL1       -0.2060
     11  N         16.8270  -21.8650   -7.9260 N.pl3   1  UNL1       -0.1810
     12  H         15.9940  -21.4500   -8.3390 H       1  UNL1        0.1460
     13  C         16.6800  -22.1210   -6.5190 C.2     1  UNL1        0.0290
     14  C         15.4220  -22.5530   -6.0870 C.2     1  UNL1        0.0250
     15  C         15.1760  -22.7710   -4.7360 C.2     1  UNL1        0.0020
     16  C         16.1810  -22.5300   -3.8060 C.2     1  UNL1        0.0070
     17  C         17.4440  -22.0670   -4.2130 C.2     1  UNL1       -0.0540
     18  C         18.4800  -21.7890   -3.1530 C.3     1  UNL1        0.0490
     19  C         17.7150  -21.8800   -5.5910 C.2     1  UNL1       -0.0340
     20  C         19.0640  -21.3640   -6.0220 C.3     1  UNL1        0.0500
     21  C         22.1340  -22.8530  -10.6990 C.2     1  UNL1        0.2560
     22  N         23.0030  -22.2830  -11.6090 N.am    1  UNL1       -0.3230
     23  H         22.6470  -21.5170  -12.1670 H       1  UNL1        0.1690
     24  O         22.3980  -23.6840   -9.8400 O.2     1  UNL1       -0.2670
     25  C         24.3670  -22.5940  -11.8030 C.2     1  UNL1        0.0360
     26  C         25.2830  -22.0110  -10.9170 C.2     1  UNL1        0.0290
     27  C         26.6520  -22.2550  -11.0450 C.2     1  UNL1        0.0040
     28  C         27.1180  -23.0850  -12.0620 C.2     1  UNL1        0.0180
     29  C         26.2160  -23.6790  -12.9490 C.2     1  UNL1        0.0020
     30  C         24.8440  -23.4230  -12.8220 C.2     1  UNL1        0.0480
     31  S         26.8010  -24.7350  -14.2630 S.3     1  UNL1       -0.1340
     32  C         25.4000  -24.5810  -15.4010 C.3     1  UNL1        0.0950
@<TRIPOS>BOND
     1    32    31    1
     2    31    29    1
     3    29    30    1
     4    29    28    2
     5    30    25    2
     6    23    22    1
     7    28    27    1
     8    25    22    1
     9    25    26    1
    10     3     2    1
    11     3     4    2
    12     2     1    2
    13    22    21   am
    14    27    26    2
    15     5     4    1
    16     4     6    1
    17     1    21    1
    18     1     7    1
    19    21    24    2
    20     6     7    2
    21     6     8    1
    22     9     8    2
    23     8    10    2
    24     8    11    1
    25    12    11    1
    26    11    13    1
    27    13    14    2
    28    13    19    1
    29    14    15    1
    30    20    19    1
    31    19    17    2
    32    15    16    2
    33    17    16    1
    34    17    18    1
