@<TRIPOS>MOLECULE
56801_out_ligand_01.pdbqt
 30 32 0 0 0
SMALL
GASTEIGER

@<TRIPOS>ATOM
      1  C         17.6000  -23.3880   -8.8370 C.2     1  UNL1        0.0860
      2  C         19.0000  -23.5030   -8.8850 C.2     1  UNL1        0.0420
      3  C         19.7290  -22.8830   -9.9000 C.2     1  UNL1        0.0330
      4  C         19.0640  -22.1370  -10.8750 C.2     1  UNL1        0.0170
      5  C         17.6750  -21.9970  -10.8120 C.2     1  UNL1        0.0090
      6  C         16.9190  -22.6100   -9.7940 C.2     1  UNL1       -0.0390
      7  C         15.4320  -22.3900   -9.7960 C.3     1  UNL1        0.0500
      8  S         16.7980  -24.2610   -7.4950 S.O2    1  UNL1        0.2630
      9  O         15.6440  -24.9250   -8.0670 O.2     1  UNL1       -0.2000
     10  O         17.7740  -25.0150   -6.7400 O.2     1  UNL1       -0.2000
     11  N         16.1890  -23.0170   -6.5310 N.pl3   1  UNL1       -0.2800
     12  H         15.5250  -22.4290   -7.0280 H       1  UNL1        0.1790
     13  C         16.9880  -22.4260   -5.5070 C.2     1  UNL1        0.0490
     14  C         16.7190  -22.7000   -4.1540 C.2     1  UNL1       -0.0350
     15  C         17.5190  -22.0990   -3.1710 C.2     1  UNL1        0.0090
     16  C         15.6190  -23.6300   -3.7230 C.3     1  UNL1        0.0500
     17  C         18.5710  -21.2500   -3.5200 C.2     1  UNL1        0.0070
     18  C         18.8490  -20.9880   -4.8620 C.2     1  UNL1       -0.0600
     19  C         20.0100  -20.1230   -5.2490 C.3     1  UNL1        0.0480
     20  C         18.0630  -21.5980   -5.8480 C.2     1  UNL1        0.0370
     21  C         21.2030  -23.0840   -9.9360 C.2     1  UNL1        0.2560
     22  O         21.6910  -23.9060   -9.1710 O.2     1  UNL1       -0.2670
     23  N         21.8830  -22.2810  -10.8300 N.am    1  UNL1       -0.3220
     24  H         21.3540  -21.5630  -11.3070 H       1  UNL1        0.1690
     25  C         23.2710  -22.2970  -11.0830 C.2     1  UNL1        0.0520
     26  C         23.7410  -23.1620  -12.0750 C.2     1  UNL1        0.0320
     27  C         25.1020  -23.2230  -12.3610 C.2     1  UNL1        0.0210
     28  C         25.9630  -22.4140  -11.6390 C.2     1  UNL1        0.1160
     29  N         25.5530  -21.5690  -10.6710 N.2     1  UNL1       -0.2710
     30  C         24.2190  -21.5270  -10.4150 C.2     1  UNL1        0.1450
@<TRIPOS>BOND
     1    27    26    1
     2    27    28    2
     3    26    25    2
     4    28    29    1
     5    24    23    1
     6    25    23    1
     7    25    30    1
     8     4     5    2
     9     4     3    1
    10    23    21   am
    11     5     6    1
    12    29    30    2
    13    21     3    1
    14    21    22    2
    15     3     2    2
    16     7     6    1
    17     6     1    2
    18     2     1    1
    19     1     8    1
    20     9     8    2
    21     8    10    2
    22     8    11    1
    23    12    11    1
    24    11    13    1
    25    20    13    2
    26    20    18    1
    27    13    14    1
    28    19    18    1
    29    18    17    2
    30    14    16    1
    31    14    15    2
    32    17    15    1
