@<TRIPOS>MOLECULE
56802_out_ligand_01.pdbqt
 43 46 0 0 0
SMALL
GASTEIGER

@<TRIPOS>ATOM
      1  C         20.9560  -21.4080   -6.8940 C.2     1  UNL1        0.2560
      2  O         21.7050  -20.5430   -6.4580 O.2     1  UNL1       -0.2670
      3  N         21.2140  -22.3050   -7.9150 N.am    1  UNL1       -0.3230
      4  H         20.5370  -23.0430   -8.0620 H       1  UNL1        0.1690
      5  C         19.6240  -21.5590   -6.2510 C.2     1  UNL1        0.0340
      6  C         18.6410  -22.3070   -6.9080 C.2     1  UNL1        0.0440
      7  C         17.3750  -22.4980   -6.3240 C.2     1  UNL1        0.1020
      8  C         17.0950  -21.9390   -5.0750 C.2     1  UNL1        0.0570
      9  C         18.0920  -21.2000   -4.4170 C.2     1  UNL1        0.0260
     10 CL         15.6120  -22.1170   -4.2140 Cl      1  UNL1       -0.0830
     11  C         19.3500  -21.0110   -4.9950 C.2     1  UNL1        0.0190
     12  S         16.1900  -23.4220   -7.2680 S.O2    1  UNL1        0.2650
     13  O         15.2160  -22.4660   -7.7610 O.2     1  UNL1       -0.2000
     14  O         15.7320  -24.5770   -6.5320 O.2     1  UNL1       -0.2000
     15  N         17.0700  -23.8940   -8.6270 N.pl3   1  UNL1       -0.2800
     16  H         17.7600  -24.6100   -8.4070 H       1  UNL1        0.1790
     17  C         17.4120  -22.9200   -9.6050 C.2     1  UNL1        0.0490
     18  C         16.4460  -21.9560   -9.9010 C.2     1  UNL1        0.0310
     19  C         16.7150  -20.9560  -10.8300 C.2     1  UNL1        0.0030
     20  C         17.9550  -20.9160  -11.4600 C.2     1  UNL1        0.0070
     21  C         18.9380  -21.8790  -11.1780 C.2     1  UNL1       -0.0540
     22  C         20.2630  -21.7880  -11.8880 C.3     1  UNL1        0.0490
     23  C         18.6600  -22.9150  -10.2550 C.2     1  UNL1       -0.0290
     24  C         19.7130  -23.9530   -9.9540 C.3     1  UNL1        0.0510
     25  C         22.3730  -22.3710   -8.7180 C.2     1  UNL1        0.0350
     26  C         22.8650  -21.2950   -9.4640 C.2     1  UNL1        0.0310
     27  C         24.0200  -21.4360  -10.2390 C.2     1  UNL1        0.0270
     28  C         24.6940  -22.6580  -10.2590 C.2     1  UNL1        0.0800
     29  C         24.2010  -23.7490   -9.5410 C.2     1  UNL1        0.0270
     30  C         23.0450  -23.5990   -8.7710 C.2     1  UNL1        0.0310
     31  S         26.1670  -22.8320  -11.2410 S.O2    1  UNL1        0.2630
     32  O         26.6400  -21.5050  -11.5680 O.2     1  UNL1       -0.2000
     33  O         27.0240  -23.7920  -10.5780 O.2     1  UNL1       -0.2000
     34  N         25.6040  -23.5860  -12.6500 N.pl3   1  UNL1       -0.2790
     35  H         24.9200  -24.3100  -12.4200 H       1  UNL1        0.1790
     36  C         25.2900  -22.7680  -13.7870 C.2     1  UNL1        0.0660
     37  C         24.3350  -21.7550  -13.6600 C.2     1  UNL1        0.0320
     38  C         23.9860  -20.9740  -14.7600 C.2     1  UNL1        0.0040
     39  C         24.5940  -21.2010  -15.9940 C.2     1  UNL1        0.0260
     40  C         25.5590  -22.2030  -16.1310 C.2     1  UNL1        0.0580
     41 CL         26.2700  -22.4170  -17.6930 Cl      1  UNL1       -0.0820
     42  C         25.9160  -22.9900  -15.0280 C.2     1  UNL1        0.0830
     43 CL         27.1210  -24.2330  -15.1570 Cl      1  UNL1       -0.0800
@<TRIPOS>BOND
     1    41    40    1
     2    40    39    2
     3    40    42    1
     4    39    38    1
     5    43    42    1
     6    42    36    2
     7    38    37    2
     8    36    37    1
     9    36    34    1
    10    34    35    1
    11    34    31    1
    12    22    21    1
    13    32    31    2
    14    20    21    2
    15    20    19    1
    16    31    33    2
    17    31    28    1
    18    21    23    1
    19    19    18    2
    20    28    27    2
    21    28    29    1
    22    23    24    1
    23    23    17    2
    24    27    26    1
    25    18    17    1
    26    17    15    1
    27    29    30    2
    28    26    25    2
    29    30    25    1
    30    25     3    1
    31    15    16    1
    32    15    12    1
    33     4     3    1
    34     3     1   am
    35    13    12    2
    36    12    14    2
    37    12     7    1
    38     6     7    1
    39     6     5    2
    40     1     2    2
    41     1     5    1
    42     7     8    2
    43     5    11    1
    44     8     9    1
    45     8    10    1
    46    11     9    2
