@<TRIPOS>MOLECULE
56812_out_ligand_01.pdbqt
 33 35 0 0 0
SMALL
GASTEIGER

@<TRIPOS>ATOM
      1  C         17.6420  -23.4400   -8.7960 C.2     1  UNL1        0.0860
      2  C         19.0370  -23.5940   -8.8620 C.2     1  UNL1        0.0420
      3  C         19.7720  -22.9310   -9.8470 C.2     1  UNL1        0.0330
      4  C         19.1120  -22.1560  -10.8020 C.2     1  UNL1        0.0170
      5  C         17.7220  -22.0210  -10.7520 C.2     1  UNL1        0.0090
      6  C         16.9650  -22.6480   -9.7440 C.2     1  UNL1       -0.0390
      7  C         15.4720  -22.4660   -9.7690 C.3     1  UNL1        0.0500
      8  S         16.7920  -24.3050   -7.4770 S.O2    1  UNL1        0.2630
      9  O         17.7740  -25.0550   -6.7240 O.2     1  UNL1       -0.2000
     10  O         15.6370  -24.9750   -8.0360 O.2     1  UNL1       -0.2000
     11  N         16.1970  -23.0480   -6.5230 N.pl3   1  UNL1       -0.2800
     12  H         15.5350  -22.4570   -7.0190 H       1  UNL1        0.1790
     13  C         17.0010  -22.4700   -5.4940 C.2     1  UNL1        0.0490
     14  C         16.7500  -22.7740   -4.1450 C.2     1  UNL1       -0.0350
     15  C         17.5380  -22.1630   -3.1570 C.2     1  UNL1        0.0090
     16  C         15.6600  -23.7160   -3.7210 C.3     1  UNL1        0.0500
     17  C         18.5630  -21.2790   -3.5000 C.2     1  UNL1        0.0070
     18  C         18.8220  -20.9870   -4.8400 C.2     1  UNL1       -0.0600
     19  C         19.9400  -20.0660   -5.2270 C.3     1  UNL1        0.0480
     20  C         18.0460  -21.6020   -5.8310 C.2     1  UNL1        0.0370
     21  C         21.2520  -23.0980   -9.8650 C.2     1  UNL1        0.2560
     22  O         21.7610  -23.8500   -9.0460 O.2     1  UNL1       -0.2670
     23  N         21.9080  -22.3310  -10.8130 N.am    1  UNL1       -0.3230
     24  H         21.3460  -21.6640  -11.3250 H       1  UNL1        0.1690
     25  C         23.2940  -22.3060  -11.0790 C.2     1  UNL1        0.0370
     26  C         24.2110  -21.5280  -10.3670 C.2     1  UNL1        0.0290
     27  C         25.5750  -21.5580  -10.6830 C.2     1  UNL1        0.0050
     28  C         26.0410  -22.3690  -11.7150 C.2     1  UNL1        0.0360
     29  C         25.1280  -23.1520  -12.4280 C.2     1  UNL1        0.1050
     30  C         23.7600  -23.1260  -12.1140 C.2     1  UNL1        0.0650
     31  N         25.6030  -24.0140  -13.5170 N.pl3   1  UNL1       -0.1160
     32  O         26.3520  -24.9550  -13.2180 O.2     1  UNL1       -0.5320
     33  O         25.2290  -23.7510  -14.6680 O.2     1  UNL1       -0.5320
@<TRIPOS>BOND
     1    33    31    2
     2    31    32    2
     3    31    29    1
     4    29    30    1
     5    29    28    2
     6    30    25    2
     7    28    27    1
     8    24    23    1
     9    25    23    1
    10    25    26    1
    11    23    21   am
    12     4     5    2
    13     4     3    1
    14     5     6    1
    15    27    26    2
    16    21     3    1
    17    21    22    2
    18     3     2    2
    19     7     6    1
    20     6     1    2
    21     2     1    1
    22     1     8    1
    23    10     8    2
    24     8     9    2
    25     8    11    1
    26    12    11    1
    27    11    13    1
    28    20    13    2
    29    20    18    1
    30    13    14    1
    31    19    18    1
    32    18    17    2
    33    14    16    1
    34    14    15    2
    35    17    15    1
