@<TRIPOS>MOLECULE
56819_out_ligand_01.pdbqt
 43 46 0 0 0
SMALL
GASTEIGER

@<TRIPOS>ATOM
      1  N         22.6720  -22.0170  -10.4050 N.am    1  UNL1       -0.3230
      2  C         22.7690  -22.6730   -9.1900 C.2     1  UNL1        0.2560
      3  O         23.5260  -23.5940   -8.9090 O.2     1  UNL1       -0.2670
      4  H         22.0800  -21.1980  -10.4380 H       1  UNL1        0.1690
      5  C         21.8620  -22.1580   -8.1260 C.2     1  UNL1        0.0330
      6  C         22.2350  -21.1070   -7.2850 C.2     1  UNL1        0.0170
      7  C         21.3510  -20.6480   -6.3050 C.2     1  UNL1        0.0090
      8  C         20.0690  -21.2090   -6.1580 C.2     1  UNL1       -0.0390
      9  C         19.1850  -20.6740   -5.0650 C.3     1  UNL1        0.0500
     10  C         19.6960  -22.2560   -7.0230 C.2     1  UNL1        0.0860
     11  C         20.5930  -22.7290   -7.9970 C.2     1  UNL1        0.0420
     12  S         18.0990  -23.0630   -6.9310 S.O2    1  UNL1        0.2630
     13  O         18.2110  -24.1780   -6.0160 O.2     1  UNL1       -0.2000
     14  O         17.0880  -22.0480   -6.7150 O.2     1  UNL1       -0.2000
     15  N         17.8640  -23.6410   -8.4980 N.pl3   1  UNL1       -0.2800
     16  H         17.3760  -24.5320   -8.5170 H       1  UNL1        0.1790
     17  C         17.6860  -22.7360   -9.5870 C.2     1  UNL1        0.0490
     18  C         18.8020  -22.1940  -10.2360 C.2     1  UNL1        0.0370
     19  C         18.6540  -21.2550  -11.2640 C.2     1  UNL1       -0.0600
     20  C         19.8640  -20.6800  -11.9380 C.3     1  UNL1        0.0480
     21  C         17.3690  -20.8980  -11.6730 C.2     1  UNL1        0.0070
     22  C         16.2500  -21.4580  -11.0540 C.2     1  UNL1        0.0090
     23  C         16.3920  -22.3860  -10.0110 C.2     1  UNL1       -0.0350
     24  C         15.1540  -22.9470   -9.3700 C.3     1  UNL1        0.0500
     25  C         23.3860  -22.3000  -11.5890 C.2     1  UNL1        0.0350
     26  C         24.3820  -23.2760  -11.6860 C.2     1  UNL1        0.0310
     27  C         25.0490  -23.4950  -12.8960 C.2     1  UNL1        0.0270
     28  C         24.7070  -22.7430  -14.0190 C.2     1  UNL1        0.0800
     29  C         23.7180  -21.7610  -13.9400 C.2     1  UNL1        0.0270
     30  C         23.0610  -21.5450  -12.7260 C.2     1  UNL1        0.0310
     31  S         25.5710  -23.0110  -15.5460 S.O2    1  UNL1        0.2630
     32  O         24.8450  -22.2980  -16.5780 O.2     1  UNL1       -0.2000
     33  O         25.8530  -24.4240  -15.6780 O.2     1  UNL1       -0.2000
     34  N         27.0110  -22.1570  -15.3170 N.pl3   1  UNL1       -0.2800
     35  H         27.5580  -22.5580  -14.5580 H       1  UNL1        0.1790
     36  C         26.9800  -20.7380  -15.4350 C.2     1  UNL1        0.0480
     37  C         26.8620  -20.1820  -16.7100 C.2     1  UNL1        0.0310
     38  C         26.7830  -18.7980  -16.8710 C.2     1  UNL1        0.0090
     39  C         26.8020  -17.9580  -15.7550 C.2     1  UNL1       -0.0610
     40  C         26.7370  -16.4680  -15.9160 C.3     1  UNL1        0.0480
     41  C         26.9300  -18.5220  -14.4780 C.2     1  UNL1        0.0150
     42  C         27.0250  -19.9140  -14.3010 C.2     1  UNL1       -0.0340
     43  C         27.1210  -20.4680  -12.9080 C.3     1  UNL1        0.0500
@<TRIPOS>BOND
     1    38    37    1
     2    38    39    2
     3    37    36    2
     4    32    31    2
     5    40    39    1
     6    39    41    1
     7    33    31    2
     8    31    34    1
     9    31    28    1
    10    36    34    1
    11    36    42    1
    12    34    35    1
    13    41    42    2
    14    42    43    1
    15    28    29    2
    16    28    27    1
    17    29    30    1
    18    27    26    2
    19    30    25    2
    20    20    19    1
    21    26    25    1
    22    21    19    2
    23    21    22    1
    24    25     1    1
    25    19    18    1
    26    22    23    2
    27     4     1    1
    28     1     2   am
    29    18    17    2
    30    23    17    1
    31    23    24    1
    32    17    15    1
    33     2     3    2
    34     2     5    1
    35    16    15    1
    36    15    12    1
    37     5    11    2
    38     5     6    1
    39    11    10    1
    40     6     7    2
    41    10    12    1
    42    10     8    2
    43    12    14    2
    44    12    13    2
    45     7     8    1
    46     8     9    1
