@<TRIPOS>MOLECULE
56822_out_ligand_01.pdbqt
 30 33 0 0 0
SMALL
GASTEIGER

@<TRIPOS>ATOM
      1  C         18.6570  -22.3100  -10.1420 C.2     1  UNL1        0.0810
      2  C         19.9530  -22.8200   -9.9730 C.2     1  UNL1        0.0420
      3  C         20.9950  -22.3800  -10.7940 C.2     1  UNL1        0.0330
      4  C         20.7390  -21.4380  -11.7950 C.2     1  UNL1        0.0170
      5  C         19.4490  -20.9280  -11.9600 C.2     1  UNL1        0.0090
      6  C         18.3870  -21.3560  -11.1450 C.2     1  UNL1       -0.0390
      7  C         17.0270  -20.7540  -11.3720 C.3     1  UNL1        0.0500
      8  S         17.3840  -22.9030   -9.0330 S.O2    1  UNL1        0.2460
      9  O         16.6470  -23.9440   -9.7150 O.2     1  UNL1       -0.2060
     10  O         16.7140  -21.7500   -8.4660 O.2     1  UNL1       -0.2060
     11  N         18.3420  -23.5660   -7.7860 N.pl3   1  UNL1       -0.1810
     12  H         19.2810  -23.7020   -8.1690 H       1  UNL1        0.1460
     13  C         18.3960  -22.7520   -6.6050 C.2     1  UNL1        0.0230
     14  C         19.3220  -21.7140   -6.5290 C.2     1  UNL1        0.0240
     15  C         19.4120  -20.9480   -5.3680 C.2     1  UNL1        0.0020
     16  C         18.5840  -21.2300   -4.2800 C.2     1  UNL1        0.0070
     17  C         17.6570  -22.2780   -4.3440 C.2     1  UNL1       -0.0600
     18  C         16.8090  -22.6150   -3.1540 C.3     1  UNL1        0.0480
     19  C         17.5810  -23.0510   -5.5110 C.2     1  UNL1        0.0310
     20  C         22.3470  -22.9630  -10.6010 C.2     1  UNL1        0.2520
     21  O         22.5420  -23.7620   -9.6920 O.2     1  UNL1       -0.2680
     22  N         23.3250  -22.5310  -11.4710 N.am    1  UNL1       -0.3520
     23  H         23.1370  -21.7220  -12.0510 H       1  UNL1        0.1630
     24  C         24.6930  -22.9830  -11.3430 C.3     1  UNL1        0.0890
     25  C         25.6880  -21.8400  -11.0490 C.3     1  UNL1        0.0300
     26  C         26.7360  -21.9960  -12.1660 C.3     1  UNL1       -0.0120
     27  C         26.1180  -21.5270  -13.4930 C.3     1  UNL1        0.0050
     28  C         26.7790  -23.5120  -12.3560 C.3     1  UNL1        0.0110
     29  C         25.1270  -22.6520  -13.8270 C.3     1  UNL1        0.0070
     30  C         25.2770  -23.6130  -12.6320 C.3     1  UNL1        0.0090
@<TRIPOS>BOND
     1    29    27    1
     2    29    30    1
     3    27    26    1
     4    30    28    1
     5    30    24    1
     6    28    26    1
     7    26    25    1
     8    23    22    1
     9     5     4    2
    10     5     6    1
    11     4     3    1
    12    22    24    1
    13    22    20   am
    14     7     6    1
    15    24    25    1
    16     6     1    2
    17     3    20    1
    18     3     2    2
    19    20    21    2
    20     1     2    1
    21     1     8    1
    22     9     8    2
    23     8    10    2
    24     8    11    1
    25    12    11    1
    26    11    13    1
    27    13    14    2
    28    13    19    1
    29    14    15    1
    30    19    17    2
    31    15    16    2
    32    17    16    1
    33    17    18    1
