@<TRIPOS>MOLECULE
56829_out_ligand_01.pdbqt
 32 34 0 0 0
SMALL
GASTEIGER

@<TRIPOS>ATOM
      1  C         26.6710  -22.1720  -14.0780 C.3     1  UNL1        0.1620
      2  C         26.7360  -22.8170  -15.3990 C.1     1  UNL1        0.0630
      3  N         26.8150  -23.3260  -16.4400 N.1     1  UNL1       -0.1970
      4  C         25.2830  -22.1910  -13.4850 C.2     1  UNL1       -0.0450
      5  C         24.9990  -22.9770  -12.3610 C.2     1  UNL1        0.0100
      6  C         23.7160  -22.9890  -11.8010 C.2     1  UNL1        0.0300
      7  C         22.6960  -22.2110  -12.3490 C.2     1  UNL1        0.0350
      8  C         22.9800  -21.4180  -13.4680 C.2     1  UNL1        0.0300
      9  C         24.2610  -21.4030  -14.0300 C.2     1  UNL1        0.0100
     10  N         21.3770  -22.1760  -11.8500 N.am    1  UNL1       -0.3230
     11  C         20.9830  -22.1600  -10.5260 C.2     1  UNL1        0.2560
     12  O         21.7010  -22.1170   -9.5340 O.2     1  UNL1       -0.2670
     13  H         20.6480  -22.0880  -12.5460 H       1  UNL1        0.1690
     14  C         19.5120  -22.1700  -10.3160 C.2     1  UNL1        0.0330
     15  C         18.9890  -22.9170   -9.2570 C.2     1  UNL1        0.0420
     16  C         17.6030  -22.9690   -9.0480 C.2     1  UNL1        0.0810
     17  C         16.7230  -22.2800   -9.9080 C.2     1  UNL1       -0.0390
     18  C         17.2700  -21.5330  -10.9660 C.2     1  UNL1        0.0090
     19  C         15.2270  -22.2780   -9.7360 C.3     1  UNL1        0.0500
     20  C         18.6500  -21.4820  -11.1760 C.2     1  UNL1        0.0170
     21  S         17.0110  -23.9190   -7.6500 S.O2    1  UNL1        0.2460
     22  O         15.9630  -24.7960   -8.1260 O.2     1  UNL1       -0.2060
     23  O         18.1670  -24.4360   -6.9510 O.2     1  UNL1       -0.2060
     24  N         16.2560  -22.6870   -6.7410 N.pl3   1  UNL1       -0.1810
     25  H         15.3150  -23.0000   -6.5070 H       1  UNL1        0.1460
     26  C         16.9880  -22.2690   -5.5760 C.2     1  UNL1        0.0280
     27  C         18.1240  -21.4710   -5.7560 C.2     1  UNL1        0.0250
     28  C         18.8790  -21.0590   -4.6590 C.2     1  UNL1        0.0020
     29  C         18.5040  -21.4460   -3.3760 C.2     1  UNL1        0.0010
     30  C         17.3760  -22.2460   -3.1900 C.2     1  UNL1        0.0080
     31  C         16.6040  -22.6710   -4.2850 C.2     1  UNL1       -0.0400
     32  C         15.4040  -23.5400   -4.0340 C.3     1  UNL1        0.0500
@<TRIPOS>BOND
     1     3     2    3
     2     2     1    1
     3     1     4    1
     4     9     4    2
     5     9     8    1
     6     4     5    1
     7     8     7    2
     8    13    10    1
     9     5     6    2
    10     7    10    1
    11     7     6    1
    12    10    11   am
    13    20    18    1
    14    20    14    2
    15    18    17    2
    16    11    14    1
    17    11    12    2
    18    14    15    1
    19    17    19    1
    20    17    16    1
    21    15    16    2
    22    16    21    1
    23    22    21    2
    24    21    23    2
    25    21    24    1
    26    24    25    1
    27    24    26    1
    28    27    26    2
    29    27    28    1
    30    26    31    1
    31    28    29    2
    32    31    32    1
    33    31    30    2
    34    29    30    1
