@<TRIPOS>MOLECULE
56826_out_ligand_01.pdbqt
 35 37 0 0 0
SMALL
GASTEIGER

@<TRIPOS>ATOM
      1  C         20.5590  -22.1290  -10.9200 C.2     1  UNL1        0.0330
      2  C         20.0910  -21.1500  -11.8010 C.2     1  UNL1        0.0170
      3  C         18.7410  -20.7870  -11.7870 C.2     1  UNL1        0.0090
      4  C         17.8290  -21.4010  -10.9090 C.2     1  UNL1       -0.0390
      5  C         16.3970  -20.9480  -10.9490 C.3     1  UNL1        0.0500
      6  C         18.3120  -22.3970  -10.0350 C.2     1  UNL1        0.0860
      7  C         19.6710  -22.7550  -10.0430 C.2     1  UNL1        0.0420
      8  C         21.9890  -22.5450  -10.9080 C.2     1  UNL1        0.2560
      9  N         22.8100  -21.8040  -11.7390 N.am    1  UNL1       -0.3220
     10  H         22.3790  -21.0040  -12.1780 H       1  UNL1        0.1690
     11  O         22.3120  -23.4650  -10.1680 O.2     1  UNL1       -0.2670
     12  C         24.2050  -21.9520  -11.9480 C.2     1  UNL1        0.0420
     13  C         25.0830  -22.2360  -10.8940 C.2     1  UNL1        0.0300
     14  C         26.4580  -22.3430  -11.1020 C.2     1  UNL1        0.0030
     15  C         26.9830  -22.1380  -12.3710 C.2     1  UNL1        0.0180
     16  C         26.1300  -21.8470  -13.4410 C.2     1  UNL1        0.0470
     17  C         24.7250  -21.8020  -13.2600 C.2     1  UNL1       -0.0190
     18  C         23.8100  -21.6030  -14.4440 C.3     1  UNL1        0.0520
     19  C         26.7970  -21.6050  -14.7430 C.2     1  UNL1        0.2930
     20  O         27.0670  -22.4880  -15.5410 O.2     1  UNL1       -0.2590
     21  O         27.1210  -20.2930  -14.8490 O.3     1  UNL1       -0.3230
     22  C         26.9740  -19.7660  -16.1690 C.3     1  UNL1        0.2130
     23  S         17.2620  -23.2350   -8.8470 S.O2    1  UNL1        0.2630
     24  O         16.1320  -23.7880   -9.5630 O.2     1  UNL1       -0.2000
     25  O         18.0910  -24.0940   -8.0290 O.2     1  UNL1       -0.2000
     26  N         16.7370  -21.9880   -7.8430 N.pl3   1  UNL1       -0.2800
     27  H         16.1090  -21.3380   -8.3070 H       1  UNL1        0.1790
     28  C         16.6070  -22.2060   -6.4400 C.2     1  UNL1        0.0490
     29  C         15.3840  -22.6750   -5.9500 C.2     1  UNL1        0.0310
     30  C         15.1870  -22.8340   -4.5830 C.2     1  UNL1        0.0030
     31  C         16.2100  -22.5230   -3.6960 C.2     1  UNL1        0.0070
     32  C         17.4500  -22.0560   -4.1640 C.2     1  UNL1       -0.0540
     33  C         18.5150  -21.7260   -3.1530 C.3     1  UNL1        0.0490
     34  C         17.6690  -21.9200   -5.5560 C.2     1  UNL1       -0.0290
     35  C         18.9960  -21.4070   -6.0540 C.3     1  UNL1        0.0510
@<TRIPOS>BOND
     1    22    21    1
     2    20    19    2
     3    21    19    1
     4    19    16    1
     5    18    17    1
     6    16    17    1
     7    16    15    2
     8    17    12    2
     9    15    14    1
    10    10     9    1
    11    12     9    1
    12    12    13    1
    13     2     3    1
    14     2     1    2
    15     3     4    2
    16     9     8   am
    17    14    13    2
    18     5     4    1
    19     1     8    1
    20     1     7    1
    21     4     6    1
    22     8    11    2
    23     7     6    2
    24     6    23    1
    25    24    23    2
    26    23    25    2
    27    23    26    1
    28    27    26    1
    29    26    28    1
    30    28    29    2
    31    28    34    1
    32    35    34    1
    33    29    30    1
    34    34    32    2
    35    30    31    2
    36    32    31    1
    37    32    33    1
