@<TRIPOS>MOLECULE
56841_out_ligand_01.pdbqt
 31 33 0 0 0
SMALL
GASTEIGER

@<TRIPOS>ATOM
      1  C         17.5340  -23.2370   -8.9670 C.2     1  UNL1        0.1020
      2  C         18.9260  -23.3670   -9.1330 C.2     1  UNL1        0.0440
      3  C         19.5830  -22.7320  -10.1920 C.2     1  UNL1        0.0340
      4  C         18.8500  -21.9600  -11.0950 C.2     1  UNL1        0.0190
      5  C         17.4660  -21.8460  -10.9400 C.2     1  UNL1        0.0260
      6  C         16.7960  -22.4840   -9.8830 C.2     1  UNL1        0.0570
      7 CL         15.0940  -22.2270   -9.8280 Cl      1  UNL1       -0.0830
      8  S         16.8300  -24.1000   -7.5820 S.O2    1  UNL1        0.2650
      9  O         15.7390  -24.9470   -8.0020 O.2     1  UNL1       -0.2000
     10  O         17.9420  -24.6720   -6.8470 O.2     1  UNL1       -0.2000
     11  N         16.2420  -22.8550   -6.6080 N.pl3   1  UNL1       -0.2800
     12  H         15.2280  -22.8640   -6.5230 H       1  UNL1        0.1790
     13  C         17.0160  -22.3490   -5.5250 C.2     1  UNL1        0.0480
     14  C         18.1050  -21.5100   -5.7820 C.2     1  UNL1        0.0300
     15  C         18.8860  -21.0250   -4.7330 C.2     1  UNL1        0.0020
     16  C         18.5760  -21.3670   -3.4220 C.2     1  UNL1        0.0010
     17  C         17.4790  -22.1860   -3.1560 C.2     1  UNL1        0.0090
     18  C         16.6840  -22.6850   -4.2010 C.2     1  UNL1       -0.0350
     19  C         15.4970  -23.5440   -3.8640 C.3     1  UNL1        0.0500
     20  C         21.0620  -22.8530  -10.2830 C.2     1  UNL1        0.2560
     21  O         21.6160  -23.6360   -9.5220 O.2     1  UNL1       -0.2670
     22  N         21.6540  -22.0700  -11.2560 N.am    1  UNL1       -0.3230
     23  H         21.0350  -21.5740  -11.8860 H       1  UNL1        0.1690
     24  C         23.0330  -21.9570  -11.5350 C.2     1  UNL1        0.0360
     25  C         23.8690  -21.5930  -10.4690 C.2     1  UNL1        0.0320
     26  C         25.2480  -21.4650  -10.6560 C.2     1  UNL1        0.0460
     27  C         25.7950  -21.7020  -11.9120 C.2     1  UNL1        0.1380
     28  F         27.1200  -21.5760  -12.0710 F       1  UNL1       -0.2040
     29  C         24.9780  -22.0670  -12.9780 C.2     1  UNL1        0.0740
     30 CL         25.6560  -22.3680  -14.5330 Cl      1  UNL1       -0.0810
     31  C         23.5980  -22.1950  -12.7920 C.2     1  UNL1        0.0560
@<TRIPOS>BOND
     1    30    29    1
     2    29    31    1
     3    29    27    2
     4    31    24    2
     5    28    27    1
     6    27    26    1
     7    23    22    1
     8    24    22    1
     9    24    25    1
    10    22    20   am
    11     4     5    2
    12     4     3    1
    13     5     6    1
    14    26    25    2
    15    20     3    1
    16    20    21    2
    17     3     2    2
    18     6     7    1
    19     6     1    2
    20     2     1    1
    21     1     8    1
    22     9     8    2
    23     8    10    2
    24     8    11    1
    25    11    12    1
    26    11    13    1
    27    14    13    2
    28    14    15    1
    29    13    18    1
    30    15    16    2
    31    18    19    1
    32    18    17    2
    33    16    17    1
