@<TRIPOS>MOLECULE
56848_out_ligand_01.pdbqt
 33 35 0 0 0
SMALL
GASTEIGER

@<TRIPOS>ATOM
      1  C         19.3850  -22.6990   -9.9700 C.2     1  UNL1        0.0330
      2  C         18.5980  -21.9780  -10.8690 C.2     1  UNL1        0.0170
      3  C         17.2090  -21.9580  -10.7170 C.2     1  UNL1        0.0090
      4  C         16.5810  -22.6400   -9.6580 C.2     1  UNL1       -0.0390
      5  C         15.0820  -22.5730   -9.5620 C.3     1  UNL1        0.0500
      6  C         17.3860  -23.3580   -8.7530 C.2     1  UNL1        0.0810
      7  C         18.7820  -23.3820   -8.9090 C.2     1  UNL1        0.0420
      8  C         20.8690  -22.7310  -10.0800 C.2     1  UNL1        0.2560
      9  N         21.3920  -21.9810  -11.1180 N.am    1  UNL1       -0.3230
     10  H         20.7310  -21.5720  -11.7660 H       1  UNL1        0.1690
     11  O         21.4880  -23.4200   -9.2800 O.2     1  UNL1       -0.2670
     12  C         22.7550  -21.8050  -11.4390 C.2     1  UNL1        0.0360
     13  C         23.7660  -21.6420  -10.4920 C.2     1  UNL1        0.0320
     14  C         25.1010  -21.4670  -10.8860 C.2     1  UNL1        0.0410
     15  C         25.4480  -21.4470  -12.2380 C.2     1  UNL1        0.0900
     16  C         24.4290  -21.6070  -13.1890 C.2     1  UNL1        0.0690
     17  C         23.0970  -21.7830  -12.7950 C.2     1  UNL1        0.0560
     18 CL         24.7690  -21.5900  -14.8870 Cl      1  UNL1       -0.0810
     19  O         26.7220  -21.2800  -12.7130 O.2     1  UNL1       -0.3540
     20  C         27.1170  -19.9680  -13.0920 C.3     1  UNL1        0.2100
     21  S         16.7000  -24.2830   -7.3800 S.O2    1  UNL1        0.2460
     22  O         17.8140  -24.7690   -6.5920 O.2     1  UNL1       -0.2060
     23  O         15.6970  -25.1860   -7.8980 O.2     1  UNL1       -0.2060
     24  N         15.9650  -23.0240   -6.4880 N.pl3   1  UNL1       -0.1810
     25  H         15.6760  -22.3040   -7.1530 H       1  UNL1        0.1460
     26  C         16.8160  -22.4580   -5.4760 C.2     1  UNL1        0.0290
     27  C         17.8830  -21.6400   -5.8700 C.2     1  UNL1        0.0310
     28  C         18.7590  -21.0990   -4.9220 C.2     1  UNL1       -0.0600
     29  C         19.9190  -20.2560   -5.3590 C.3     1  UNL1        0.0480
     30  C         18.5710  -21.4110   -3.5730 C.2     1  UNL1        0.0070
     31  C         17.5140  -22.2320   -3.1770 C.2     1  UNL1        0.0090
     32  C         16.6200  -22.7620   -4.1210 C.2     1  UNL1       -0.0400
     33  C         15.4990  -23.6450   -3.6560 C.3     1  UNL1        0.0500
@<TRIPOS>BOND
     1    18    16    1
     2    16    17    1
     3    16    15    2
     4    20    19    1
     5    17    12    2
     6    19    15    1
     7    15    14    1
     8    10     9    1
     9    12     9    1
    10    12    13    1
    11     9     8   am
    12    14    13    2
    13     2     3    1
    14     2     1    2
    15     3     4    2
    16     8     1    1
    17     8    11    2
    18     1     7    1
    19     4     5    1
    20     4     6    1
    21     7     6    2
    22     6    21    1
    23    23    21    2
    24    21    22    2
    25    21    24    1
    26    25    24    1
    27    24    26    1
    28    27    26    2
    29    27    28    1
    30    26    32    1
    31    29    28    1
    32    28    30    2
    33    32    33    1
    34    32    31    2
    35    30    31    1
