@<TRIPOS>MOLECULE
56842_out_ligand_01.pdbqt
 31 33 0 0 0
SMALL
GASTEIGER

@<TRIPOS>ATOM
      1  C         18.3640  -22.2980  -10.1300 C.2     1  UNL1        0.0810
      2  C         19.6600  -22.8310  -10.0470 C.2     1  UNL1        0.0420
      3  C         20.6850  -22.3170  -10.8480 C.2     1  UNL1        0.0330
      4  C         20.4030  -21.2960  -11.7610 C.2     1  UNL1        0.0170
      5  C         19.1110  -20.7740  -11.8520 C.2     1  UNL1        0.0090
      6  C         18.0730  -21.2540  -11.0320 C.2     1  UNL1       -0.0390
      7  C         16.7030  -20.6570  -11.1960 C.3     1  UNL1        0.0500
      8  S         17.1110  -22.9970   -9.0590 S.O2    1  UNL1        0.2460
      9  O         16.4020  -21.9060   -8.4290 O.2     1  UNL1       -0.2060
     10  O         16.4170  -24.0310   -9.7980 O.2     1  UNL1       -0.2060
     11  N         18.0970  -23.8090   -7.9240 N.pl3   1  UNL1       -0.1810
     12  H         17.7280  -24.7590   -7.8440 H       1  UNL1        0.1460
     13  C         18.1240  -23.1820   -6.6330 C.2     1  UNL1        0.0230
     14  C         18.8340  -21.9950   -6.4630 C.2     1  UNL1        0.0310
     15  C         18.8300  -21.3420   -5.2250 C.2     1  UNL1       -0.0600
     16  C         18.1140  -21.9060   -4.1590 C.2     1  UNL1        0.0130
     17  C         19.6200  -20.0840   -5.0280 C.3     1  UNL1        0.0480
     18  C         17.3900  -23.0940   -4.3250 C.2     1  UNL1       -0.0600
     19  C         16.5780  -23.6540   -3.1960 C.3     1  UNL1        0.0480
     20  C         17.3830  -23.7180   -5.5780 C.2     1  UNL1        0.0310
     21  C         22.0510  -22.8940  -10.7150 C.2     1  UNL1        0.2520
     22  O         22.3230  -23.6120   -9.7610 O.2     1  UNL1       -0.2680
     23  N         22.9600  -22.5330  -11.6920 N.am    1  UNL1       -0.3520
     24  H         22.7320  -21.7450  -12.2830 H       1  UNL1        0.1630
     25  C         24.3690  -22.9220  -11.6100 C.3     1  UNL1        0.0840
     26  C         24.7550  -23.6540  -12.9010 C.3     1  UNL1        0.0250
     27  C         26.2460  -23.8350  -13.1680 C.3     1  UNL1        0.0020
     28  C         27.0710  -24.3160  -11.9780 C.3     1  UNL1        0.0000
     29  C         27.1120  -23.3910  -10.7560 C.3     1  UNL1        0.0000
     30  C         26.7250  -21.9400  -11.0280 C.2     1  UNL1        0.0020
     31  C         25.2340  -21.6910  -11.2990 C.2     1  UNL1        0.0250
@<TRIPOS>BOND
     1    27    26    1
     2    27    28    1
     3    26    25    1
     4    24    23    1
     5    28    29    1
     6     5     4    2
     7     5     6    1
     8     4     3    1
     9    23    25    1
    10    23    21   am
    11    25    31    1
    12    31    30    2
    13     7     6    1
    14     6     1    2
    15    30    29    1
    16     3    21    1
    17     3     2    2
    18    21    22    2
    19     1     2    1
    20     1     8    1
    21    10     8    2
    22     8     9    2
    23     8    11    1
    24    11    12    1
    25    11    13    1
    26    13    14    2
    27    13    20    1
    28    14    15    1
    29    20    18    2
    30    15    17    1
    31    15    16    2
    32    18    16    1
    33    18    19    1
