@<TRIPOS>MOLECULE
56846_out_ligand_01.pdbqt
 41 44 0 0 0
SMALL
GASTEIGER

@<TRIPOS>ATOM
      1  C         21.9460  -23.3880   -9.8890 C.2     1  UNL1        0.2560
      2  O         21.8820  -24.3580   -9.1430 O.2     1  UNL1       -0.2670
      3  N         23.0940  -22.8250  -10.4120 N.am    1  UNL1       -0.3220
      4  H         22.9860  -22.0020  -11.0050 H       1  UNL1        0.1690
      5  C         20.6690  -22.7150  -10.2760 C.2     1  UNL1        0.0330
      6  C         20.5810  -21.8390  -11.3620 C.2     1  UNL1        0.0170
      7  C         19.3570  -21.2460  -11.6900 C.2     1  UNL1        0.0090
      8  C         18.1910  -21.5260  -10.9580 C.2     1  UNL1       -0.0390
      9  C         16.9130  -20.8410  -11.3590 C.3     1  UNL1        0.0500
     10  C         18.2860  -22.4220   -9.8770 C.2     1  UNL1        0.0860
     11  C         19.5170  -23.0090   -9.5390 C.2     1  UNL1        0.0420
     12  S         16.8720  -22.8610   -8.8790 S.O2    1  UNL1        0.2630
     13  O         16.0600  -23.7820   -9.6490 O.2     1  UNL1       -0.2000
     14  O         16.2820  -21.6570   -8.3380 O.2     1  UNL1       -0.2000
     15  N         17.5430  -23.7670   -7.6190 N.pl3   1  UNL1       -0.2800
     16  H         17.5660  -24.7580   -7.8500 H       1  UNL1        0.1790
     17  C         17.2230  -23.4130   -6.2760 C.2     1  UNL1        0.0490
     18  C         16.0750  -23.9760   -5.7120 C.2     1  UNL1        0.0310
     19  C         15.7180  -23.6760   -4.4030 C.2     1  UNL1        0.0030
     20  C         16.5010  -22.8000   -3.6590 C.2     1  UNL1        0.0070
     21  C         17.6560  -22.2170   -4.2080 C.2     1  UNL1       -0.0540
     22  C         18.4520  -21.2690   -3.3500 C.3     1  UNL1        0.0490
     23  C         18.0440  -22.5450   -5.5300 C.2     1  UNL1       -0.0290
     24  C         19.2740  -21.9410   -6.1550 C.3     1  UNL1        0.0510
     25  C         24.4360  -23.2610  -10.2690 C.2     1  UNL1        0.0500
     26  C         24.8550  -24.0640   -9.2020 C.2     1  UNL1        0.0300
     27  C         26.1820  -24.4950   -9.1040 C.2     1  UNL1        0.0020
     28  C         27.1120  -24.1390  -10.0770 C.2     1  UNL1        0.0010
     29  C         26.7200  -23.3340  -11.1440 C.2     1  UNL1        0.0190
     30  C         25.3950  -22.8790  -11.2390 C.2     1  UNL1        0.0580
     31  C         25.0050  -22.0070  -12.3870 C.2     1  UNL1        0.2540
     32  O         23.9200  -21.4310  -12.3760 O.2     1  UNL1       -0.2680
     33  N         25.9380  -21.8550  -13.3890 N.am    1  UNL1       -0.3530
     34  H         26.8870  -22.1610  -13.2330 H       1  UNL1        0.1630
     35  C         25.7180  -20.9560  -14.5010 C.3     1  UNL1        0.1610
     36  C         25.2780  -21.6540  -15.7680 C.2     1  UNL1       -0.0410
     37  C         25.2390  -21.0100  -17.0160 C.2     1  UNL1        0.0090
     38  C         24.7880  -21.6850  -18.1530 C.2     1  UNL1        0.0010
     39  C         24.3510  -23.0060  -18.0550 C.2     1  UNL1        0.0000
     40  C         24.3700  -23.6540  -16.8240 C.2     1  UNL1        0.0010
     41  C         24.8260  -22.9820  -15.6880 C.2     1  UNL1        0.0090
@<TRIPOS>BOND
     1    38    39    2
     2    38    37    1
     3    39    40    1
     4    37    36    2
     5    40    41    2
     6    36    41    1
     7    36    35    1
     8    35    33    1
     9    33    34    1
    10    33    31   am
    11    31    32    2
    12    31    30    1
    13     7     6    1
    14     7     8    2
    15     6     5    2
    16     9     8    1
    17    30    29    1
    18    30    25    2
    19    29    28    2
    20     4     3    1
    21     8    10    1
    22     3    25    1
    23     3     1   am
    24     5     1    1
    25     5    11    1
    26    25    26    1
    27    28    27    1
    28     1     2    2
    29    10    11    2
    30    10    12    1
    31    13    12    2
    32    26    27    2
    33    12    14    2
    34    12    15    1
    35    16    15    1
    36    15    17    1
    37    17    18    2
    38    17    23    1
    39    24    23    1
    40    18    19    1
    41    23    21    2
    42    19    20    2
    43    21    20    1
    44    21    22    1
