@<TRIPOS>MOLECULE
56853_out_ligand_01.pdbqt
 32 34 0 0 0
SMALL
GASTEIGER

@<TRIPOS>ATOM
      1  C         17.4760  -23.0650   -9.0930 C.2     1  UNL1        0.1020
      2  C         18.8720  -23.0380   -9.2490 C.2     1  UNL1        0.0440
      3  C         19.4520  -22.2690  -10.2640 C.2     1  UNL1        0.0340
      4  C         18.6380  -21.5350  -11.1300 C.2     1  UNL1        0.0190
      5  C         17.2490  -21.5600  -10.9670 C.2     1  UNL1        0.0260
      6  C         16.6600  -22.3220   -9.9480 C.2     1  UNL1        0.0570
      7 CL         14.9370  -22.2970   -9.8700 Cl      1  UNL1       -0.0830
      8  S         16.8010  -24.0530   -7.7820 S.O2    1  UNL1        0.2650
      9  O         17.8970  -24.7400   -7.1330 O.2     1  UNL1       -0.2000
     10  O         15.6960  -24.8180   -8.3210 O.2     1  UNL1       -0.2000
     11  N         16.2040  -22.9240   -6.6860 N.pl3   1  UNL1       -0.2800
     12  H         15.2090  -23.0580   -6.5170 H       1  UNL1        0.1790
     13  C         17.0070  -22.3630   -5.6430 C.2     1  UNL1        0.0490
     14  C         16.6560  -22.5910   -4.2990 C.2     1  UNL1       -0.0350
     15  C         17.4630  -22.0540   -3.2810 C.2     1  UNL1        0.0090
     16  C         15.4590  -23.4100   -3.9020 C.3     1  UNL1        0.0500
     17  C         18.5760  -21.2710   -3.5850 C.2     1  UNL1        0.0070
     18  C         18.8870  -20.9830   -4.9120 C.2     1  UNL1       -0.0600
     19  C         20.0870  -20.1470   -5.2560 C.3     1  UNL1        0.0480
     20  C         18.0940  -21.5270   -5.9320 C.2     1  UNL1        0.0370
     21  C         20.9330  -22.2960  -10.4200 C.2     1  UNL1        0.2560
     22  O         21.6130  -22.3610   -9.4040 O.2     1  UNL1       -0.2670
     23  N         21.3800  -22.2150  -11.7260 N.am    1  UNL1       -0.3230
     24  H         20.6860  -22.0380  -12.4410 H       1  UNL1        0.1690
     25  C         22.7170  -22.2570  -12.1740 C.2     1  UNL1        0.0350
     26  C         23.7210  -23.0000  -11.5570 C.2     1  UNL1        0.0310
     27  C         25.0220  -22.9940  -12.0710 C.2     1  UNL1        0.0220
     28  C         25.3300  -22.2450  -13.2080 C.2     1  UNL1        0.0170
     29 BR         27.1210  -22.2940  -13.8360 Br      1  UNL1       -0.0510
     30  C         24.3370  -21.4910  -13.8490 C.2     1  UNL1       -0.0430
     31  C         24.6190  -20.6690  -15.0750 C.3     1  UNL1        0.0490
     32  C         23.0340  -21.5100  -13.3180 C.2     1  UNL1        0.0370
@<TRIPOS>BOND
     1    31    30    1
     2    30    32    1
     3    30    28    2
     4    29    28    1
     5    32    25    2
     6    28    27    1
     7    24    23    1
     8    25    23    1
     9    25    26    1
    10    27    26    2
    11    23    21   am
    12     4     5    2
    13     4     3    1
    14     5     6    1
    15    21     3    1
    16    21    22    2
    17     3     2    2
    18     6     7    1
    19     6     1    2
    20     2     1    1
    21     1     8    1
    22    10     8    2
    23     8     9    2
    24     8    11    1
    25    11    12    1
    26    11    13    1
    27    20    13    2
    28    20    18    1
    29    13    14    1
    30    19    18    1
    31    18    17    2
    32    14    16    1
    33    14    15    2
    34    17    15    1
