@<TRIPOS>MOLECULE
56855_out_ligand_01.pdbqt
 38 41 0 0 0
SMALL
GASTEIGER

@<TRIPOS>ATOM
      1  C         16.7300  -20.7330  -11.4020 C.3     1  UNL1        0.0500
      2  C         18.0870  -21.2910  -11.0770 C.2     1  UNL1       -0.0390
      3  C         19.1750  -20.8720  -11.8650 C.2     1  UNL1        0.0090
      4  C         20.4630  -21.3620  -11.6410 C.2     1  UNL1        0.0170
      5  C         20.6870  -22.2940  -10.6250 C.2     1  UNL1        0.0330
      6  C         19.6240  -22.7220   -9.8280 C.2     1  UNL1        0.0420
      7  C         18.3280  -22.2320  -10.0540 C.2     1  UNL1        0.0860
      8  C         22.0430  -22.8400  -10.3630 C.2     1  UNL1        0.2560
      9  O         22.1860  -23.6360   -9.4440 O.2     1  UNL1       -0.2670
     10  N         23.0100  -22.4070  -11.2470 N.am    1  UNL1       -0.3200
     11  H         22.7080  -21.8560  -12.0420 H       1  UNL1        0.1690
     12  C         24.3790  -22.7580  -11.2680 C.2     1  UNL1        0.0700
     13  C         24.9960  -23.5480  -10.2990 C.2     1  UNL1        0.0560
     14  C         26.3580  -23.8440  -10.4040 C.2     1  UNL1        0.0360
     15 CL         27.1140  -24.8180   -9.2000 Cl      1  UNL1       -0.0840
     16  C         27.1200  -23.3590  -11.4680 C.2     1  UNL1        0.0260
     17  C         26.5170  -22.5660  -12.4410 C.2     1  UNL1        0.0410
     18  C         25.1520  -22.2810  -12.3430 C.2     1  UNL1        0.1020
     19  O         24.5590  -21.4620  -13.2810 O.2     1  UNL1       -0.3090
     20  C         24.7320  -21.8050  -14.6060 C.2     1  UNL1        0.0760
     21  C         24.7420  -23.1180  -15.0820 C.2     1  UNL1        0.0370
     22  C         24.8830  -23.3600  -16.4510 C.2     1  UNL1        0.0030
     23  C         25.0050  -22.2960  -17.3430 C.2     1  UNL1        0.0000
     24  C         24.9770  -20.9850  -16.8710 C.2     1  UNL1        0.0030
     25  C         24.8340  -20.7400  -15.5030 C.2     1  UNL1        0.0370
     26  S         17.0190  -22.8950   -9.0270 S.O2    1  UNL1        0.2630
     27  O         16.2720  -21.7840   -8.4740 O.2     1  UNL1       -0.2000
     28  O         16.3340  -23.9230   -9.7810 O.2     1  UNL1       -0.2000
     29  N         17.8480  -23.6030   -7.7420 N.pl3   1  UNL1       -0.2800
     30  H         18.2390  -24.5120   -7.9710 H       1  UNL1        0.1790
     31  C         17.4670  -23.3210   -6.3950 C.2     1  UNL1        0.0490
     32  C         16.3820  -24.0120   -5.8480 C.2     1  UNL1        0.0310
     33  C         16.0220  -23.8200   -4.5190 C.2     1  UNL1        0.0030
     34  C         16.7430  -22.9330   -3.7280 C.2     1  UNL1        0.0070
     35  C         17.8300  -22.2190   -4.2560 C.2     1  UNL1       -0.0540
     36  C         18.5720  -21.2740   -3.3500 C.3     1  UNL1        0.0490
     37  C         18.1860  -22.3880   -5.6180 C.2     1  UNL1       -0.0290
     38  C         19.3620  -21.6290   -6.1810 C.3     1  UNL1        0.0510
@<TRIPOS>BOND
     1    23    24    2
     2    23    22    1
     3    24    25    1
     4    22    21    2
     5    25    20    2
     6    21    20    1
     7    20    19    1
     8    19    18    1
     9    17    18    1
    10    17    16    2
    11    18    12    2
    12    11    10    1
    13     3     4    1
    14     3     2    2
    15     4     5    2
    16    16    14    1
    17     1     2    1
    18    12    10    1
    19    12    13    1
    20    10     8   am
    21     2     7    1
    22     5     8    1
    23     5     6    1
    24    14    13    2
    25    14    15    1
    26     8     9    2
    27     7     6    2
    28     7    26    1
    29    28    26    2
    30    26    27    2
    31    26    29    1
    32    30    29    1
    33    29    31    1
    34    31    32    2
    35    31    37    1
    36    38    37    1
    37    32    33    1
    38    37    35    2
    39    33    34    2
    40    35    34    1
    41    35    36    1
