@<TRIPOS>MOLECULE
56867_out_ligand_01.pdbqt
 32 34 0 0 0
SMALL
GASTEIGER

@<TRIPOS>ATOM
      1  C         17.6450  -23.5960   -8.5310 C.2     1  UNL1        0.0810
      2  C         19.0220  -23.8560   -8.4690 C.2     1  UNL1        0.0420
      3  C         19.8820  -23.3140   -9.4290 C.2     1  UNL1        0.0330
      4  C         19.3670  -22.5040  -10.4440 C.2     1  UNL1        0.0170
      5  C         17.9950  -22.2490  -10.5060 C.2     1  UNL1        0.0090
      6  C         17.1110  -22.7830   -9.5510 C.2     1  UNL1       -0.0390
      7  C         15.6450  -22.4780   -9.6870 C.3     1  UNL1        0.0500
      8  S         16.6060  -24.3450   -7.2790 S.O2    1  UNL1        0.2460
      9  O         17.4710  -25.0240   -6.3380 O.2     1  UNL1       -0.2060
     10  O         15.5320  -25.0410   -7.9540 O.2     1  UNL1       -0.2060
     11  N         16.0180  -22.9470   -6.4980 N.pl3   1  UNL1       -0.1810
     12  H         15.8080  -22.2480   -7.2110 H       1  UNL1        0.1460
     13  C         16.8800  -22.4280   -5.4700 C.2     1  UNL1        0.0290
     14  C         16.6360  -22.6840   -4.1120 C.2     1  UNL1       -0.0400
     15  C         17.5060  -22.1340   -3.1580 C.2     1  UNL1        0.0090
     16  C         15.4820  -23.5260   -3.6430 C.3     1  UNL1        0.0500
     17  C         18.5880  -21.3390   -3.5460 C.2     1  UNL1        0.0070
     18  C         18.8190  -21.0710   -4.8970 C.2     1  UNL1       -0.0600
     19  C         19.9810  -20.2270   -5.3300 C.3     1  UNL1        0.0480
     20  C         17.9620  -21.6270   -5.8530 C.2     1  UNL1        0.0310
     21  C         21.3380  -23.5920   -9.3130 C.2     1  UNL1        0.2510
     22  O         21.7210  -24.6670   -8.8670 O.2     1  UNL1       -0.2680
     23  N         22.1840  -22.5970   -9.7550 N.am    1  UNL1       -0.3570
     24  H         21.8060  -21.8310  -10.2960 H       1  UNL1        0.1620
     25  C         23.6240  -22.7890   -9.7770 C.3     1  UNL1        0.1270
     26  C         24.3340  -21.7360  -10.6350 C.3     1  UNL1        0.0530
     27  C         24.5320  -22.1860  -12.0660 C.2     1  UNL1       -0.0820
     28  C         23.9240  -21.5650  -13.0950 C.2     1  UNL1       -0.0240
     29  C         24.0950  -21.9670  -14.5320 C.3     1  UNL1        0.0270
     30  C         25.2550  -22.9380  -14.7530 C.3     1  UNL1        0.0040
     31  C         25.2840  -24.0110  -13.6710 C.3     1  UNL1        0.0050
     32  C         25.4200  -23.3900  -12.2790 C.3     1  UNL1        0.0340
@<TRIPOS>BOND
     1    30    29    1
     2    30    31    1
     3    29    28    1
     4    31    32    1
     5    28    27    2
     6    32    27    1
     7    27    26    1
     8    26    25    1
     9     5     4    2
    10     5     6    1
    11     4     3    1
    12    24    23    1
    13    25    23    1
    14    23    21   am
    15     7     6    1
    16     6     1    2
    17     3    21    1
    18     3     2    2
    19    21    22    2
    20     1     2    1
    21     1     8    1
    22    10     8    2
    23     8    11    1
    24     8     9    2
    25    12    11    1
    26    11    13    1
    27    20    13    2
    28    20    18    1
    29    13    14    1
    30    19    18    1
    31    18    17    2
    32    14    16    1
    33    14    15    2
    34    17    15    1
