@<TRIPOS>MOLECULE
56870_out_ligand_01.pdbqt
 42 45 0 0 0
SMALL
GASTEIGER

@<TRIPOS>ATOM
      1  C         22.0120  -23.1220  -10.4020 C.2     1  UNL1        0.2560
      2  O         22.1280  -24.0240   -9.5810 O.2     1  UNL1       -0.2670
      3  N         23.0180  -22.5500  -11.1530 N.am    1  UNL1       -0.3220
      4  H         22.7690  -21.7610  -11.7500 H       1  UNL1        0.1690
      5  C         20.6570  -22.5320  -10.6070 C.2     1  UNL1        0.0330
      6  C         19.6210  -22.9330   -9.7560 C.2     1  UNL1        0.0420
      7  C         18.3250  -22.4080   -9.9060 C.2     1  UNL1        0.0860
      8  C         18.0530  -21.4680  -10.9200 C.2     1  UNL1       -0.0390
      9  C         19.1080  -21.0810  -11.7690 C.2     1  UNL1        0.0090
     10  C         16.7160  -20.8120  -11.1310 C.3     1  UNL1        0.0500
     11  C         20.3940  -21.6120  -11.6230 C.2     1  UNL1        0.0170
     12  S         17.1010  -22.9570   -8.7220 S.O2    1  UNL1        0.2630
     13  O         16.2700  -23.9810   -9.3140 O.2     1  UNL1       -0.2000
     14  O         16.4900  -21.7700   -8.1510 O.2     1  UNL1       -0.2000
     15  N         18.0520  -23.5980   -7.4910 N.pl3   1  UNL1       -0.2800
     16  H         18.9810  -23.8760   -7.8010 H       1  UNL1        0.1790
     17  C         17.9020  -23.1510   -6.1510 C.2     1  UNL1        0.0490
     18  C         18.6770  -22.0820   -5.6780 C.2     1  UNL1       -0.0350
     19  C         18.4890  -21.6520   -4.3570 C.2     1  UNL1        0.0090
     20  C         19.7400  -21.4320   -6.5190 C.3     1  UNL1        0.0500
     21  C         17.5150  -22.2390   -3.5430 C.2     1  UNL1        0.0070
     22  C         16.7020  -23.2620   -4.0380 C.2     1  UNL1       -0.0600
     23  C         15.6690  -23.9130   -3.1650 C.3     1  UNL1        0.0480
     24  C         16.9050  -23.7150   -5.3480 C.2     1  UNL1        0.0370
     25  C         24.3930  -22.8930  -11.1940 C.2     1  UNL1        0.0500
     26  C         25.0750  -23.3720  -10.0680 C.2     1  UNL1        0.0300
     27  C         26.4280  -23.7170  -10.1380 C.2     1  UNL1        0.0020
     28  C         27.1210  -23.6000  -11.3370 C.2     1  UNL1        0.0010
     29  C         26.4650  -23.1260  -12.4710 C.2     1  UNL1        0.0190
     30  C         25.1080  -22.7530  -12.4080 C.2     1  UNL1        0.0580
     31  C         24.4280  -22.2380  -13.6390 C.2     1  UNL1        0.2540
     32  O         23.4000  -21.5730  -13.5440 O.2     1  UNL1       -0.2680
     33  N         25.0340  -22.5150  -14.8440 N.am    1  UNL1       -0.3490
     34  H         25.9790  -22.8770  -14.8570 H       1  UNL1        0.1630
     35  C         24.4850  -22.0540  -16.1120 C.3     1  UNL1        0.1140
     36  C         24.6210  -23.1230  -17.2030 C.3     1  UNL1        0.0370
     37  C         25.1510  -20.7500  -16.5100 C.2     1  UNL1       -0.0360
     38  C         25.9620  -20.0700  -15.5870 C.2     1  UNL1        0.0090
     39  C         26.6030  -18.8820  -15.9430 C.2     1  UNL1        0.0010
     40  C         26.4480  -18.3600  -17.2250 C.2     1  UNL1        0.0000
     41  C         25.6500  -19.0250  -18.1530 C.2     1  UNL1        0.0010
     42  C         25.0090  -20.2130  -17.8010 C.2     1  UNL1        0.0090
@<TRIPOS>BOND
     1    41    42    1
     2    41    40    2
     3    42    37    2
     4    40    39    1
     5    36    35    1
     6    37    35    1
     7    37    38    1
     8    35    33    1
     9    39    38    2
    10    34    33    1
    11    33    31   am
    12    31    32    2
    13    31    30    1
    14    29    30    1
    15    29    28    2
    16    30    25    2
    17     9    11    1
    18     9     8    2
    19     4     3    1
    20    11     5    2
    21    28    27    1
    22    25     3    1
    23    25    26    1
    24     3     1   am
    25    10     8    1
    26     8     7    1
    27     5     1    1
    28     5     6    1
    29     1     2    2
    30    27    26    2
    31     7     6    2
    32     7    12    1
    33    13    12    2
    34    12    14    2
    35    12    15    1
    36    16    15    1
    37    15    17    1
    38    20    18    1
    39    17    18    2
    40    17    24    1
    41    18    19    1
    42    24    22    2
    43    19    21    2
    44    22    21    1
    45    22    23    1
