@<TRIPOS>MOLECULE
56877_out_ligand_01.pdbqt
 42 45 0 0 0
SMALL
GASTEIGER

@<TRIPOS>ATOM
      1  C         20.9300  -21.4880   -6.9210 C.2     1  UNL1        0.2560
      2  O         21.6600  -20.6190   -6.4620 O.2     1  UNL1       -0.2670
      3  N         21.2330  -22.3780   -7.9350 N.am    1  UNL1       -0.3230
      4  H         20.5650  -23.1140   -8.1210 H       1  UNL1        0.1690
      5  C         19.5750  -21.6500   -6.3170 C.2     1  UNL1        0.0340
      6  C         18.5940  -22.3340   -7.0470 C.2     1  UNL1        0.0440
      7  C         17.3010  -22.5170   -6.5190 C.2     1  UNL1        0.1020
      8  C         16.9980  -22.0300   -5.2460 C.2     1  UNL1        0.0570
      9  C         17.9930  -21.3630   -4.5130 C.2     1  UNL1        0.0260
     10 CL         15.4630  -22.1560   -4.4720 Cl      1  UNL1       -0.0830
     11  C         19.2740  -21.1760   -5.0380 C.2     1  UNL1        0.0190
     12  S         16.1390  -23.4200   -7.5160 S.O2    1  UNL1        0.2640
     13  O         15.9650  -24.7160   -6.8900 O.2     1  UNL1       -0.2000
     14  O         14.9830  -22.6050   -7.8040 O.2     1  UNL1       -0.2000
     15  N         17.0170  -23.7320   -8.9070 N.pl3   1  UNL1       -0.2810
     16  H         16.9860  -24.6930   -9.2410 H       1  UNL1        0.1790
     17  C         17.4400  -22.7050   -9.7830 C.2     1  UNL1        0.0430
     18  C         16.5660  -21.7110  -10.2160 C.2     1  UNL1        0.0300
     19  C         17.0000  -20.7600  -11.1390 C.2     1  UNL1        0.0030
     20  C         18.2990  -20.8180  -11.6450 C.2     1  UNL1        0.0070
     21  C         19.1780  -21.8270  -11.2330 C.2     1  UNL1       -0.0600
     22  C         20.5570  -21.9160  -11.8140 C.3     1  UNL1        0.0480
     23  C         18.7280  -22.7870  -10.3150 C.2     1  UNL1        0.0370
     24  C         22.4120  -22.4200   -8.7080 C.2     1  UNL1        0.0350
     25  C         22.9510  -21.3140   -9.3710 C.2     1  UNL1        0.0310
     26  C         24.1150  -21.4390  -10.1360 C.2     1  UNL1        0.0270
     27  C         24.7330  -22.6840  -10.2560 C.2     1  UNL1        0.0800
     28  C         24.2250  -23.7940   -9.5790 C.2     1  UNL1        0.0270
     29  C         23.0640  -23.6580   -8.8130 C.2     1  UNL1        0.0310
     30  S         26.1930  -22.8570  -11.2580 S.O2    1  UNL1        0.2630
     31  O         26.6810  -21.5330  -11.5740 O.2     1  UNL1       -0.2000
     32  O         27.0430  -23.8400  -10.6220 O.2     1  UNL1       -0.2000
     33  N         25.6040  -23.5860  -12.6710 N.pl3   1  UNL1       -0.2790
     34  H         24.9140  -24.3060  -12.4440 H       1  UNL1        0.1790
     35  C         25.2900  -22.7500  -13.7930 C.2     1  UNL1        0.0660
     36  C         24.3260  -21.7480  -13.6520 C.2     1  UNL1        0.0320
     37  C         23.9710  -20.9540  -14.7430 C.2     1  UNL1        0.0040
     38  C         24.5840  -21.1570  -15.9800 C.2     1  UNL1        0.0260
     39  C         25.5530  -22.1530  -16.1310 C.2     1  UNL1        0.0580
     40 CL         26.2620  -22.3450  -17.6960 Cl      1  UNL1       -0.0820
     41  C         25.9140  -22.9530  -15.0390 C.2     1  UNL1        0.0830
     42 CL         27.1200  -24.1940  -15.1870 Cl      1  UNL1       -0.0800
@<TRIPOS>BOND
     1    40    39    1
     2    39    38    2
     3    39    41    1
     4    38    37    1
     5    42    41    1
     6    41    35    2
     7    37    36    2
     8    35    36    1
     9    35    33    1
    10    33    34    1
    11    33    30    1
    12    22    21    1
    13    20    21    2
    14    20    19    1
    15    31    30    2
    16    30    32    2
    17    30    27    1
    18    21    23    1
    19    19    18    2
    20    23    17    2
    21    27    26    2
    22    27    28    1
    23    18    17    1
    24    26    25    1
    25    17    15    1
    26    28    29    2
    27    25    24    2
    28    16    15    1
    29    15    12    1
    30    29    24    1
    31    24     3    1
    32     4     3    1
    33     3     1   am
    34    14    12    2
    35    12    13    2
    36    12     7    1
    37     6     7    1
    38     6     5    2
    39     1     2    2
    40     1     5    1
    41     7     8    2
    42     5    11    1
    43     8     9    1
    44     8    10    1
    45    11     9    2
