@<TRIPOS>MOLECULE
56879_out_ligand_01.pdbqt
 43 46 0 0 0
SMALL
GASTEIGER

@<TRIPOS>ATOM
      1  N         21.4340  -22.6260  -10.3750 N.am    1  UNL1       -0.3230
      2  C         22.6260  -23.2550  -10.0630 C.2     1  UNL1        0.2560
      3  O         22.8220  -24.0470   -9.1510 O.2     1  UNL1       -0.2670
      4  H         21.4750  -21.8690  -11.0430 H       1  UNL1        0.1690
      5  C         23.7810  -22.8650  -10.9180 C.2     1  UNL1        0.0330
      6  C         25.0970  -22.9990  -10.4710 C.2     1  UNL1        0.0170
      7  C         26.1530  -22.5940  -11.2900 C.2     1  UNL1        0.0090
      8  C         25.9240  -22.0510  -12.5680 C.2     1  UNL1       -0.0390
      9  C         27.1200  -21.6130  -13.3670 C.3     1  UNL1        0.0500
     10  C         24.5920  -21.9190  -13.0090 C.2     1  UNL1        0.0860
     11  C         23.5290  -22.3120  -12.1760 C.2     1  UNL1        0.0420
     12  S         24.1450  -21.2210  -14.5940 S.O2    1  UNL1        0.2630
     13  O         23.5370  -22.2820  -15.3730 O.2     1  UNL1       -0.2000
     14  O         23.4410  -19.9700  -14.4050 O.2     1  UNL1       -0.2000
     15  N         25.6430  -20.9580  -15.3040 N.pl3   1  UNL1       -0.2800
     16  H         26.1280  -21.8110  -15.5820 H       1  UNL1        0.1790
     17  C         25.9190  -19.7640  -16.0210 C.2     1  UNL1        0.0490
     18  C         26.3710  -18.6320  -15.3360 C.2     1  UNL1        0.0370
     19  C         26.5880  -17.4260  -16.0130 C.2     1  UNL1       -0.0600
     20  C         27.1150  -16.2320  -15.2760 C.3     1  UNL1        0.0480
     21  C         26.3490  -17.3690  -17.3880 C.2     1  UNL1        0.0070
     22  C         25.8630  -18.4890  -18.0670 C.2     1  UNL1        0.0090
     23  C         25.6160  -19.6910  -17.3880 C.2     1  UNL1       -0.0350
     24  C         25.0800  -20.8690  -18.1520 C.3     1  UNL1        0.0500
     25  C         20.1740  -22.8580   -9.7860 C.2     1  UNL1        0.0350
     26  C         20.0670  -23.9420   -8.9020 C.2     1  UNL1        0.0310
     27  C         18.8550  -24.2330   -8.2700 C.2     1  UNL1        0.0270
     28  C         17.7380  -23.4360   -8.5260 C.2     1  UNL1        0.0800
     29  C         17.8360  -22.3360   -9.3800 C.2     1  UNL1        0.0270
     30  C         19.0500  -22.0560  -10.0140 C.2     1  UNL1        0.0310
     31  S         16.1990  -23.7760   -7.7000 S.O2    1  UNL1        0.2630
     32  O         15.4180  -22.5580   -7.6950 O.2     1  UNL1       -0.2000
     33  O         15.6650  -24.9990   -8.2650 O.2     1  UNL1       -0.2000
     34  N         16.6760  -24.1600   -6.1290 N.pl3   1  UNL1       -0.2800
     35  H         17.0140  -25.1170   -6.0480 H       1  UNL1        0.1790
     36  C         17.2610  -23.1640   -5.2920 C.2     1  UNL1        0.0490
     37  C         16.8560  -23.0350   -3.9530 C.2     1  UNL1       -0.0350
     38  C         17.4700  -22.0580   -3.1550 C.2     1  UNL1        0.0090
     39  C         15.7810  -23.8990   -3.3530 C.3     1  UNL1        0.0500
     40  C         18.4610  -21.2240   -3.6770 C.2     1  UNL1        0.0070
     41  C         18.8500  -21.3390   -5.0140 C.2     1  UNL1       -0.0600
     42  C         19.9300  -20.4610   -5.5730 C.3     1  UNL1        0.0480
     43  C         18.2480  -22.3190   -5.8120 C.2     1  UNL1        0.0370
@<TRIPOS>BOND
     1    24    23    1
     2    22    21    2
     3    22    23    1
     4    21    19    1
     5    23    17    2
     6    17    18    1
     7    17    15    1
     8    19    18    2
     9    19    20    1
    10    16    15    1
    11    13    12    2
    12    15    12    1
    13    12    14    2
    14    12    10    1
    15     9     8    1
    16    10     8    2
    17    10    11    1
    18     8     7    1
    19    11     5    2
    20     7     6    2
    21     4     1    1
    22     5     6    1
    23     5     2    1
    24     1     2   am
    25     1    25    1
    26     2     3    2
    27    30    25    2
    28    30    29    1
    29    25    26    1
    30    29    28    2
    31    26    27    2
    32    28    27    1
    33    28    31    1
    34    33    31    2
    35    31    32    2
    36    31    34    1
    37    34    35    1
    38    34    36    1
    39    43    36    2
    40    43    41    1
    41    42    41    1
    42    36    37    1
    43    41    40    2
    44    37    39    1
    45    37    38    2
    46    40    38    1
