@<TRIPOS>MOLECULE
56873_out_ligand_01.pdbqt
 32 34 0 0 0
SMALL
GASTEIGER

@<TRIPOS>ATOM
      1  C         20.0750  -22.9240  -10.1380 C.2     1  UNL1        0.0330
      2  C         20.8010  -23.7420   -9.2670 C.2     1  UNL1        0.0170
      3  C         20.1550  -24.3740   -8.2030 C.2     1  UNL1        0.0090
      4  C         18.7720  -24.2230   -7.9960 C.2     1  UNL1       -0.0390
      5  C         18.1530  -24.9430   -6.8290 C.3     1  UNL1        0.0500
      6  C         18.0500  -23.3990   -8.8830 C.2     1  UNL1        0.0860
      7  C         18.7020  -22.7540   -9.9480 C.2     1  UNL1        0.0420
      8  S         16.2920  -23.0960   -8.7060 S.O2    1  UNL1        0.2630
      9  O         15.7000  -24.2610   -8.0830 O.2     1  UNL1       -0.2000
     10  O         15.7810  -22.6150   -9.9710 O.2     1  UNL1       -0.2000
     11  N         16.2310  -21.7900   -7.6380 N.pl3   1  UNL1       -0.2800
     12  H         16.7000  -20.9610   -7.9910 H       1  UNL1        0.1790
     13  C         16.2030  -22.0330   -6.2350 C.2     1  UNL1        0.0490
     14  C         15.0120  -22.5080   -5.6780 C.2     1  UNL1        0.0310
     15  C         14.9420  -22.8250   -4.3270 C.2     1  UNL1        0.0030
     16  C         16.0690  -22.6820   -3.5250 C.2     1  UNL1        0.0070
     17  C         17.2780  -22.2130   -4.0640 C.2     1  UNL1       -0.0540
     18  C         18.4730  -22.1020   -3.1530 C.3     1  UNL1        0.0490
     19  C         17.3490  -21.8550   -5.4320 C.2     1  UNL1       -0.0290
     20  C         18.6550  -21.3620   -5.9950 C.3     1  UNL1        0.0510
     21  C         20.7300  -22.2620  -11.2990 C.2     1  UNL1        0.2560
     22  N         22.0860  -22.5110  -11.4140 N.am    1  UNL1       -0.3230
     23  H         22.5280  -23.0040  -10.6480 H       1  UNL1        0.1690
     24  O         20.0430  -21.5550  -12.0260 O.2     1  UNL1       -0.2670
     25  C         22.9470  -22.0850  -12.4460 C.2     1  UNL1        0.0350
     26  C         24.2290  -22.6540  -12.4920 C.2     1  UNL1        0.0370
     27  C         25.1550  -22.3050  -13.4930 C.2     1  UNL1       -0.0430
     28  C         26.5080  -22.9580  -13.4970 C.3     1  UNL1        0.0490
     29  C         24.7680  -21.3730  -14.4650 C.2     1  UNL1        0.0170
     30  C         23.4950  -20.8030  -14.4260 C.2     1  UNL1        0.0220
     31 BR         25.9240  -20.8470  -15.8760 Br      1  UNL1       -0.0510
     32  C         22.5900  -21.1560  -13.4220 C.2     1  UNL1        0.0310
@<TRIPOS>BOND
     1    31    29    1
     2    29    30    2
     3    29    27    1
     4    30    32    1
     5    28    27    1
     6    27    26    2
     7    32    25    2
     8    26    25    1
     9    25    22    1
    10    24    21    2
    11    22    21   am
    12    22    23    1
    13    21     1    1
    14     1     7    2
    15     1     2    1
    16    10     8    2
    17     7     6    1
    18     2     3    2
    19     6     8    1
    20     6     4    2
    21     8     9    2
    22     8    11    1
    23     3     4    1
    24     4     5    1
    25    12    11    1
    26    11    13    1
    27    13    14    2
    28    13    19    1
    29    20    19    1
    30    14    15    1
    31    19    17    2
    32    15    16    2
    33    17    16    1
    34    17    18    1
