@<TRIPOS>MOLECULE
56875_out_ligand_01.pdbqt
 32 34 0 0 0
SMALL
GASTEIGER

@<TRIPOS>ATOM
      1  C         18.3310  -24.8140   -7.1690 C.3     1  UNL1        0.0500
      2  C         19.0160  -24.0290   -8.2540 C.2     1  UNL1       -0.0390
      3  C         20.4040  -24.1850   -8.4140 C.2     1  UNL1        0.0090
      4  C         21.0980  -23.4950   -9.4100 C.2     1  UNL1        0.0170
      5  C         20.4110  -22.6450  -10.2810 C.2     1  UNL1        0.0330
      6  C         19.0300  -22.4730  -10.1390 C.2     1  UNL1        0.0420
      7  C         18.3340  -23.1650   -9.1350 C.2     1  UNL1        0.0810
      8  S         16.5650  -22.9060   -9.0270 S.O2    1  UNL1        0.2460
      9  O         15.9760  -24.1180   -8.5000 O.2     1  UNL1       -0.2060
     10  O         16.1280  -22.3420  -10.2850 O.2     1  UNL1       -0.2060
     11  N         16.5130  -21.6600   -7.8650 N.pl3   1  UNL1       -0.1810
     12  H         15.8140  -20.9720   -8.1430 H       1  UNL1        0.1460
     13  C         16.3460  -22.1040   -6.5080 C.2     1  UNL1        0.0290
     14  C         15.1070  -22.6460   -6.1530 C.2     1  UNL1        0.0250
     15  C         14.8830  -23.0960   -4.8560 C.2     1  UNL1        0.0020
     16  C         15.9010  -23.0130   -3.9120 C.2     1  UNL1        0.0070
     17  C         17.1540  -22.4740   -4.2460 C.2     1  UNL1       -0.0540
     18  C         18.2140  -22.4190   -3.1770 C.3     1  UNL1        0.0490
     19  C         17.3800  -21.9830   -5.5550 C.2     1  UNL1       -0.0340
     20  C         18.7190  -21.4010   -5.9340 C.3     1  UNL1        0.0500
     21  C         21.1180  -21.8750  -11.3390 C.2     1  UNL1        0.2560
     22  O         20.5270  -20.9370  -11.8600 O.2     1  UNL1       -0.2670
     23  N         22.3870  -22.3350  -11.6430 N.am    1  UNL1       -0.3230
     24  H         22.6780  -23.1990  -11.2020 H       1  UNL1        0.1690
     25  C         23.2970  -21.7800  -12.5690 C.2     1  UNL1        0.0360
     26  C         22.9770  -21.4890  -13.8960 C.2     1  UNL1        0.0310
     27  C         23.9350  -20.9330  -14.7530 C.2     1  UNL1        0.0280
     28  C         25.2220  -20.6590  -14.2890 C.2     1  UNL1        0.0550
     29 CL         26.3520  -19.9710  -15.3990 Cl      1  UNL1       -0.0830
     30  C         25.5500  -20.9460  -12.9620 C.2     1  UNL1        0.0580
     31 CL         27.1200  -20.6360  -12.3080 Cl      1  UNL1       -0.0820
     32  C         24.5890  -21.5030  -12.1090 C.2     1  UNL1        0.0550
@<TRIPOS>BOND
     1    29    28    1
     2    27    28    2
     3    27    26    1
     4    28    30    1
     5    26    25    2
     6    30    31    1
     7    30    32    2
     8    25    32    1
     9    25    23    1
    10    22    21    2
    11    23    21   am
    12    23    24    1
    13    21     5    1
    14    10     8    2
    15     5     6    2
    16     5     4    1
    17     6     7    1
    18     4     3    2
    19     7     8    1
    20     7     2    2
    21     8     9    2
    22     8    11    1
    23     3     2    1
    24     2     1    1
    25    12    11    1
    26    11    13    1
    27    13    14    2
    28    13    19    1
    29    14    15    1
    30    20    19    1
    31    19    17    2
    32    15    16    2
    33    17    16    1
    34    17    18    1
