@<TRIPOS>MOLECULE
56878_out_ligand_01.pdbqt
 33 35 0 0 0
SMALL
GASTEIGER

@<TRIPOS>ATOM
      1  C         17.6240  -23.5900   -8.6290 C.2     1  UNL1        0.0860
      2  C         18.9950  -23.8950   -8.6020 C.2     1  UNL1        0.0420
      3  C         19.8780  -23.3170   -9.5200 C.2     1  UNL1        0.0330
      4  C         19.3800  -22.4450  -10.4920 C.2     1  UNL1        0.0170
      5  C         18.0100  -22.1750  -10.5460 C.2     1  UNL1        0.0090
      6  C         17.1090  -22.7350   -9.6200 C.2     1  UNL1       -0.0390
      7  C         15.6540  -22.3830   -9.7510 C.3     1  UNL1        0.0500
      8  S         16.6380  -24.3640   -7.3520 S.O2    1  UNL1        0.2630
      9  O         17.5610  -25.0850   -6.5000 O.2     1  UNL1       -0.2000
     10  O         15.5010  -25.0380   -7.9400 O.2     1  UNL1       -0.2000
     11  N         16.0930  -23.0490   -6.4370 N.pl3   1  UNL1       -0.2800
     12  H         15.0970  -23.1050   -6.2390 H       1  UNL1        0.1790
     13  C         16.9380  -22.4480   -5.4560 C.2     1  UNL1        0.0490
     14  C         16.6880  -22.6450   -4.0890 C.2     1  UNL1       -0.0350
     15  C         17.5510  -22.0560   -3.1530 C.2     1  UNL1        0.0090
     16  C         15.5150  -23.4410   -3.5910 C.3     1  UNL1        0.0500
     17  C         18.6230  -21.2640   -3.5670 C.2     1  UNL1        0.0070
     18  C         18.8420  -21.0280   -4.9220 C.2     1  UNL1       -0.0600
     19  C         19.9920  -20.1750   -5.3710 C.3     1  UNL1        0.0480
     20  C         17.9960  -21.6290   -5.8600 C.2     1  UNL1        0.0370
     21  C         21.3250  -23.6330   -9.3720 C.2     1  UNL1        0.2510
     22  O         21.6580  -24.7090   -8.8860 O.2     1  UNL1       -0.2680
     23  N         22.2310  -22.6940   -9.8090 N.am    1  UNL1       -0.3530
     24  H         21.9240  -21.8900  -10.3310 H       1  UNL1        0.1630
     25  C         23.6570  -22.9530   -9.7770 C.3     1  UNL1        0.1630
     26  C         24.2780  -22.7630  -11.1400 C.2     1  UNL1       -0.0190
     27  C         23.5010  -22.1640  -12.1520 C.2     1  UNL1        0.0120
     28  C         24.0210  -21.9700  -13.4350 C.2     1  UNL1        0.0240
     29  C         25.3190  -22.3800  -13.7230 C.2     1  UNL1        0.0350
     30 CL         25.9520  -22.1630  -15.3120 Cl      1  UNL1       -0.0840
     31  C         26.1120  -22.9620  -12.7370 C.2     1  UNL1        0.0480
     32  C         25.5950  -23.1460  -11.4480 C.2     1  UNL1        0.0430
     33 CL         26.6500  -23.8430  -10.2690 Cl      1  UNL1       -0.0840
@<TRIPOS>BOND
     1    30    29    1
     2    29    28    2
     3    29    31    1
     4    28    27    1
     5    31    32    2
     6    27    26    2
     7    32    26    1
     8    32    33    1
     9    26    25    1
    10     5     4    2
    11     5     6    1
    12     4     3    1
    13    24    23    1
    14    23    25    1
    15    23    21   am
    16     7     6    1
    17     6     1    2
    18     3    21    1
    19     3     2    2
    20    21    22    2
    21     1     2    1
    22     1     8    1
    23    10     8    2
    24     8     9    2
    25     8    11    1
    26    11    12    1
    27    11    13    1
    28    20    13    2
    29    20    18    1
    30    13    14    1
    31    19    18    1
    32    18    17    2
    33    14    16    1
    34    14    15    2
    35    17    15    1
