@<TRIPOS>MOLECULE
56886_out_ligand_01.pdbqt
 38 41 0 0 0
SMALL
GASTEIGER

@<TRIPOS>ATOM
      1  C         17.3070  -23.0650   -8.9250 C.2     1  UNL1        0.0860
      2  C         18.6860  -23.0150   -9.1930 C.2     1  UNL1        0.0420
      3  C         19.1730  -22.2000  -10.2190 C.2     1  UNL1        0.0330
      4  C         18.2780  -21.4600  -11.0000 C.2     1  UNL1        0.0170
      5  C         16.9070  -21.5180  -10.7380 C.2     1  UNL1        0.0090
      6  C         16.3980  -22.3090   -9.6930 C.2     1  UNL1       -0.0390
      7  C         14.9080  -22.3510   -9.4970 C.3     1  UNL1        0.0500
      8  C         20.6390  -22.1800  -10.4880 C.2     1  UNL1        0.2560
      9  O         21.4040  -22.2930   -9.5400 O.2     1  UNL1       -0.2670
     10  N         20.9830  -21.9950  -11.8150 N.am    1  UNL1       -0.3230
     11  H         20.2380  -21.7510  -12.4540 H       1  UNL1        0.1690
     12  C         22.2780  -22.0400  -12.3720 C.2     1  UNL1        0.0350
     13  C         22.5090  -21.2650  -13.5170 C.2     1  UNL1        0.0310
     14  C         23.7580  -21.2720  -14.1460 C.2     1  UNL1        0.0270
     15  C         24.7900  -22.0530  -13.6220 C.2     1  UNL1        0.0790
     16  C         24.5650  -22.8520  -12.5000 C.2     1  UNL1        0.0270
     17  C         23.3140  -22.8340  -11.8720 C.2     1  UNL1        0.0310
     18  S         26.3630  -22.1170  -14.4580 S.O2    1  UNL1        0.2600
     19  O         26.8900  -20.7690  -14.4910 O.2     1  UNL1       -0.2000
     20  O         27.1200  -23.2020  -13.8660 O.2     1  UNL1       -0.2000
     21  N         25.9680  -22.5640  -16.0290 N.3     1  UNL1       -0.3070
     22  C         25.6470  -21.5260  -17.0250 C.3     1  UNL1        0.1350
     23  C         24.9870  -22.3090  -18.1530 C.3     1  UNL1        0.0220
     24  C         24.1980  -23.3600  -17.3970 C.3     1  UNL1        0.0220
     25  C         25.1440  -23.7640  -16.2710 C.3     1  UNL1        0.1350
     26  S         16.7670  -24.1320   -7.5980 S.O2    1  UNL1        0.2630
     27  O         17.9270  -24.7340   -6.9750 O.2     1  UNL1       -0.2000
     28  O         15.6970  -24.9610   -8.1120 O.2     1  UNL1       -0.2000
     29  N         16.0510  -23.0540   -6.5070 N.pl3   1  UNL1       -0.2800
     30  H         15.1320  -23.3900   -6.2240 H       1  UNL1        0.1790
     31  C         16.8730  -22.4610   -5.5040 C.2     1  UNL1        0.0490
     32  C         16.6450  -22.7130   -4.1430 C.2     1  UNL1       -0.0350
     33  C         17.5170  -22.1440   -3.2020 C.2     1  UNL1        0.0090
     34  C         15.5220  -23.5900   -3.6690 C.3     1  UNL1        0.0500
     35  C         18.5850  -21.3420   -3.6090 C.2     1  UNL1        0.0070
     36  C         18.8010  -21.0820   -4.9660 C.2     1  UNL1       -0.0600
     37  C         19.9710  -20.2520   -5.4010 C.3     1  UNL1        0.0480
     38  C         17.9440  -21.6580   -5.9100 C.2     1  UNL1        0.0370
@<TRIPOS>BOND
     1    23    24    1
     2    23    22    1
     3    24    25    1
     4    22    21    1
     5    25    21    1
     6    21    18    1
     7    19    18    2
     8    18    20    2
     9    18    15    1
    10    14    15    2
    11    14    13    1
    12    15    16    1
    13    13    12    2
    14    16    17    2
    15    11    10    1
    16    12    17    1
    17    12    10    1
    18    10     8   am
    19     4     5    2
    20     4     3    1
    21     5     6    1
    22     8     3    1
    23     8     9    2
    24     3     2    2
    25     6     7    1
    26     6     1    2
    27     2     1    1
    28     1    26    1
    29    28    26    2
    30    26    27    2
    31    26    29    1
    32    29    30    1
    33    29    31    1
    34    38    31    2
    35    38    36    1
    36    31    32    1
    37    37    36    1
    38    36    35    2
    39    32    34    1
    40    32    33    2
    41    35    33    1
