@<TRIPOS>MOLECULE
56882_out_ligand_01.pdbqt
 30 32 0 0 0
SMALL
GASTEIGER

@<TRIPOS>ATOM
      1  C         17.0430  -21.0590  -11.2530 C.3     1  UNL1        0.0500
      2  C         18.4040  -21.6140  -10.9360 C.2     1  UNL1       -0.0390
      3  C         19.4920  -21.1760  -11.7120 C.2     1  UNL1        0.0090
      4  C         20.7860  -21.6480  -11.4780 C.2     1  UNL1        0.0170
      5  C         21.0190  -22.5790  -10.4640 C.2     1  UNL1        0.0330
      6  C         19.9450  -23.0570   -9.7070 C.2     1  UNL1        0.0420
      7  C         18.6470  -22.5680   -9.9280 C.2     1  UNL1        0.0860
      8  S         17.3450  -23.2250   -8.8870 S.O2    1  UNL1        0.2630
      9  O         16.2150  -23.5710   -9.7230 O.2     1  UNL1       -0.2000
     10  O         17.9280  -24.2170   -8.0070 O.2     1  UNL1       -0.2000
     11  N         16.8690  -21.8860   -7.9770 N.pl3   1  UNL1       -0.2800
     12  H         17.2700  -21.0150   -8.3100 H       1  UNL1        0.1790
     13  C         16.5740  -22.0390   -6.5890 C.2     1  UNL1        0.0490
     14  C         15.2730  -22.3960   -6.2240 C.2     1  UNL1        0.0310
     15  C         14.9520  -22.6300   -4.8910 C.2     1  UNL1        0.0030
     16  C         15.9350  -22.5150   -3.9140 C.2     1  UNL1        0.0070
     17  C         17.2500  -22.1570   -4.2550 C.2     1  UNL1       -0.0540
     18  C         18.2710  -22.0550   -3.1530 C.3     1  UNL1        0.0490
     19  C         17.5750  -21.8830   -5.6070 C.2     1  UNL1       -0.0290
     20  C         18.9890  -21.5020   -5.9660 C.3     1  UNL1        0.0510
     21  C         22.3830  -23.1020  -10.1740 C.2     1  UNL1        0.2520
     22  O         22.5480  -23.9740   -9.3280 O.2     1  UNL1       -0.2680
     23  N         23.4160  -22.5280  -10.8770 N.am    1  UNL1       -0.3510
     24  H         23.2670  -21.6350  -11.3300 H       1  UNL1        0.1630
     25  C         24.7850  -22.8480  -10.5440 C.3     1  UNL1        0.1870
     26  C         25.6740  -21.8650  -11.2100 C.2     1  UNL1        0.0700
     27  C         26.5770  -21.9560  -12.2480 C.2     1  UNL1        0.0360
     28  C         27.1170  -20.6590  -12.4240 C.2     1  UNL1        0.0270
     29  C         26.5090  -19.8610  -11.4840 C.2     1  UNL1        0.1420
     30  O         25.6290  -20.5810  -10.7440 O.2     1  UNL1       -0.3250
@<TRIPOS>BOND
     1    28    27    1
     2    28    29    2
     3    27    26    2
     4     3     4    1
     5     3     2    2
     6    29    30    1
     7     4     5    2
     8    24    23    1
     9     1     2    1
    10    26    30    1
    11    26    25    1
    12     2     7    1
    13    23    25    1
    14    23    21   am
    15     5    21    1
    16     5     6    1
    17    21    22    2
    18     7     6    2
    19     7     8    1
    20     9     8    2
    21     8    10    2
    22     8    11    1
    23    12    11    1
    24    11    13    1
    25    13    14    2
    26    13    19    1
    27    14    15    1
    28    20    19    1
    29    19    17    2
    30    15    16    2
    31    17    16    1
    32    17    18    1
