@<TRIPOS>MOLECULE
56893_out_ligand_01.pdbqt
 31 33 0 0 0
SMALL
GASTEIGER

@<TRIPOS>ATOM
      1  C         17.4930  -23.4360   -8.6910 C.2     1  UNL1        0.0810
      2  C         18.8920  -23.5370   -8.7490 C.2     1  UNL1        0.0420
      3  C         19.6070  -22.8550   -9.7380 C.2     1  UNL1        0.0330
      4  C         18.9170  -22.1030  -10.6950 C.2     1  UNL1        0.0170
      5  C         17.5250  -22.0060  -10.6380 C.2     1  UNL1        0.0090
      6  C         16.7890  -22.6580   -9.6330 C.2     1  UNL1       -0.0390
      7  C         15.2910  -22.5330   -9.6540 C.3     1  UNL1        0.0500
      8  S         16.6450  -24.3530   -7.4060 S.O2    1  UNL1        0.2460
      9  O         17.6510  -24.9630   -6.5620 O.2     1  UNL1       -0.2060
     10  O         15.6070  -25.1350   -8.0380 O.2     1  UNL1       -0.2060
     11  N         15.9720  -23.0680   -6.5030 N.pl3   1  UNL1       -0.1810
     12  H         15.6810  -22.3480   -7.1630 H       1  UNL1        0.1460
     13  C         16.8430  -22.5320   -5.4890 C.2     1  UNL1        0.0290
     14  C         16.6260  -22.7840   -4.1250 C.2     1  UNL1       -0.0400
     15  C         17.5030  -22.2120   -3.1890 C.2     1  UNL1        0.0090
     16  C         15.4940  -23.6390   -3.6300 C.3     1  UNL1        0.0500
     17  C         18.5650  -21.4030   -3.6010 C.2     1  UNL1        0.0070
     18  C         18.7660  -21.1350   -4.9560 C.2     1  UNL1       -0.0600
     19  C         19.9150  -20.2830   -5.4040 C.3     1  UNL1        0.0480
     20  C         17.9050  -21.7150   -5.8950 C.2     1  UNL1        0.0310
     21  C         21.0920  -22.9900   -9.7660 C.2     1  UNL1        0.2560
     22  O         21.6230  -23.7010   -8.9240 O.2     1  UNL1       -0.2670
     23  N         21.7300  -22.2450  -10.7420 N.am    1  UNL1       -0.3230
     24  H         21.1620  -21.6000  -11.2750 H       1  UNL1        0.1690
     25  C         23.1110  -22.2150  -11.0290 C.2     1  UNL1        0.0350
     26  C         24.0420  -21.4560  -10.3110 C.2     1  UNL1        0.0320
     27  C         25.3980  -21.4880  -10.6550 C.2     1  UNL1        0.0440
     28  C         25.8220  -22.2830  -11.7110 C.2     1  UNL1        0.1160
     29  F         27.1210  -22.3140  -12.0370 F       1  UNL1       -0.2060
     30  C         24.9160  -23.0470  -12.4330 C.2     1  UNL1        0.0440
     31  C         23.5610  -23.0140  -12.0920 C.2     1  UNL1        0.0320
@<TRIPOS>BOND
     1    30    31    1
     2    30    28    2
     3    31    25    2
     4    29    28    1
     5    28    27    1
     6    24    23    1
     7    25    23    1
     8    25    26    1
     9    23    21   am
    10     4     5    2
    11     4     3    1
    12    27    26    2
    13     5     6    1
    14    21     3    1
    15    21    22    2
    16     3     2    2
    17     7     6    1
    18     6     1    2
    19     2     1    1
    20     1     8    1
    21    10     8    2
    22     8     9    2
    23     8    11    1
    24    12    11    1
    25    11    13    1
    26    20    13    2
    27    20    18    1
    28    13    14    1
    29    19    18    1
    30    18    17    2
    31    14    16    1
    32    14    15    2
    33    17    15    1
