@<TRIPOS>MOLECULE
56899_out_ligand_01.pdbqt
 36 38 0 0 0
SMALL
GASTEIGER

@<TRIPOS>ATOM
      1  C         18.3660  -22.3270  -10.2790 C.2     1  UNL1        0.0810
      2  C         19.6690  -22.8390  -10.1770 C.2     1  UNL1        0.0420
      3  C         20.7050  -22.2790  -10.9320 C.2     1  UNL1        0.0330
      4  C         20.4470  -21.1780  -11.7530 C.2     1  UNL1        0.0170
      5  C         19.1510  -20.6640  -11.8480 C.2     1  UNL1        0.0090
      6  C         18.0880  -21.2370  -11.1290 C.2     1  UNL1       -0.0390
      7  C         16.7230  -20.6220  -11.2710 C.3     1  UNL1        0.0500
      8  C         22.0720  -22.8630  -10.8120 C.2     1  UNL1        0.2560
      9  O         22.2650  -23.7150   -9.9510 O.2     1  UNL1       -0.2670
     10  N         22.9860  -22.3970  -11.7420 N.am    1  UNL1       -0.3230
     11  H         22.6340  -21.7850  -12.4670 H       1  UNL1        0.1690
     12  C         24.3510  -22.7430  -11.8460 C.2     1  UNL1        0.0360
     13  C         25.2630  -22.6510  -10.7930 C.2     1  UNL1        0.0290
     14  C         26.6050  -22.9960  -10.9840 C.2     1  UNL1        0.0040
     15  C         27.0470  -23.4420  -12.2290 C.2     1  UNL1        0.0250
     16  C         26.1400  -23.5580  -13.2800 C.2     1  UNL1        0.0260
     17  C         24.8030  -23.1910  -13.0930 C.2     1  UNL1        0.0540
     18  N         26.5320  -23.9660  -14.6040 N.pl3   1  UNL1       -0.1810
     19  C         26.1120  -25.3450  -14.9630 C.3     1  UNL1        0.1350
     20  S         26.2650  -22.8400  -15.8670 S.O2    1  UNL1        0.2110
     21  C         27.1180  -21.3950  -15.2650 C.3     1  UNL1        0.1800
     22  O         24.8500  -22.5470  -15.9590 O.2     1  UNL1       -0.2110
     23  O         26.9900  -23.3180  -17.0270 O.2     1  UNL1       -0.2110
     24  S         17.0950  -23.0900   -9.2760 S.O2    1  UNL1        0.2460
     25  O         16.4320  -22.0510   -8.5160 O.2     1  UNL1       -0.2060
     26  O         16.3500  -24.0040  -10.1120 O.2     1  UNL1       -0.2060
     27  N         18.0550  -23.9340   -8.1490 N.pl3   1  UNL1       -0.1810
     28  H         18.9780  -24.0380   -8.5810 H       1  UNL1        0.1460
     29  C         18.2060  -23.3120   -6.8650 C.2     1  UNL1        0.0230
     30  C         18.9730  -22.1550   -6.7980 C.2     1  UNL1        0.0250
     31  C         19.0880  -21.4640   -5.5910 C.2     1  UNL1        0.0090
     32  C         18.4150  -21.9100   -4.4430 C.2     1  UNL1       -0.0560
     33  C         18.5830  -21.1530   -3.1530 C.3     1  UNL1        0.0490
     34  C         17.6130  -23.0670   -4.5200 C.2     1  UNL1       -0.0540
     35  C         17.5040  -23.7520   -5.7420 C.2     1  UNL1        0.0310
     36  C         16.8770  -23.5940   -3.3170 C.3     1  UNL1        0.0490
@<TRIPOS>BOND
     1    23    20    2
     2    22    20    2
     3    20    21    1
     4    20    18    1
     5    19    18    1
     6    18    16    1
     7    16    17    1
     8    16    15    2
     9    17    12    2
    10    11    10    1
    11    15    14    1
    12     5     4    2
    13     5     6    1
    14    12    10    1
    15    12    13    1
    16     4     3    1
    17    10     8   am
    18     7     6    1
    19     6     1    2
    20    14    13    2
    21     3     8    1
    22     3     2    2
    23     8     9    2
    24     1     2    1
    25     1    24    1
    26    26    24    2
    27    24    25    2
    28    24    27    1
    29    28    27    1
    30    27    29    1
    31    29    30    2
    32    29    35    1
    33    30    31    1
    34    35    34    2
    35    31    32    2
    36    34    32    1
    37    34    36    1
    38    32    33    1
