@<TRIPOS>MOLECULE
56900_out_ligand_01.pdbqt
 34 36 0 0 0
SMALL
GASTEIGER

@<TRIPOS>ATOM
      1  C         20.4980  -22.9550   -7.8100 C.2     1  UNL1        0.0350
      2  C         21.3880  -21.8850   -7.6300 C.2     1  UNL1        0.0310
      3  C         22.6010  -21.8430   -8.3210 C.2     1  UNL1        0.0270
      4  C         22.9240  -22.8780   -9.2010 C.2     1  UNL1        0.0750
      5  C         22.0840  -23.9860   -9.3310 C.2     1  UNL1        0.0270
      6  C         20.8700  -24.0160   -8.6420 C.2     1  UNL1        0.0310
      7  N         19.2570  -22.8790   -7.1460 N.am    1  UNL1       -0.3230
      8  C         18.8840  -21.9380   -6.2050 C.2     1  UNL1        0.2580
      9  O         19.5420  -20.9870   -5.7960 O.2     1  UNL1       -0.2670
     10  H         18.6550  -23.6890   -7.2470 H       1  UNL1        0.1690
     11  C         17.5640  -22.1790   -5.5720 C.2     1  UNL1        0.0540
     12  C         17.4710  -22.4070   -4.1920 C.2     1  UNL1        0.0190
     13  C         16.2240  -22.6330   -3.6090 C.2     1  UNL1        0.0010
     14  C         15.0730  -22.6320   -4.3990 C.2     1  UNL1        0.0020
     15  C         15.1640  -22.4180   -5.7760 C.2     1  UNL1        0.0250
     16  C         16.4090  -22.2090   -6.3720 C.2     1  UNL1        0.0380
     17  N         16.4630  -21.9230   -7.7810 N.pl3   1  UNL1       -0.1850
     18  H         15.7430  -21.2330   -8.0600 H       1  UNL1        0.1460
     19  S         16.3250  -23.2620   -8.8180 S.O2    1  UNL1        0.2100
     20  C         17.5460  -22.8430  -10.0410 C.3     1  UNL1        0.1800
     21  O         15.0240  -23.1660   -9.4450 O.2     1  UNL1       -0.2110
     22  O         16.7440  -24.4660   -8.1330 O.2     1  UNL1       -0.2110
     23  S         24.4050  -22.7720  -10.1800 S.O2    1  UNL1        0.2450
     24  O         25.3670  -23.7090   -9.6400 O.2     1  UNL1       -0.2060
     25  O         24.7290  -21.3700  -10.3310 O.2     1  UNL1       -0.2060
     26  N         23.9000  -23.3070  -11.7090 N.pl3   1  UNL1       -0.1800
     27  H         24.2140  -24.2650  -11.8680 H       1  UNL1        0.1460
     28  C         24.0660  -22.4170  -12.8220 C.2     1  UNL1        0.0440
     29  C         25.2560  -22.4420  -13.5530 C.2     1  UNL1        0.0260
     30  C         25.3930  -21.6470  -14.6940 C.2     1  UNL1        0.0020
     31  C         24.3390  -20.8360  -15.1130 C.2     1  UNL1        0.0020
     32  C         23.1500  -20.8000  -14.3830 C.2     1  UNL1        0.0260
     33  C         23.0180  -21.5760  -13.2310 C.2     1  UNL1        0.0560
     34 CL         21.5420  -21.4890  -12.3360 Cl      1  UNL1       -0.0820
@<TRIPOS>BOND
     1    31    30    2
     2    31    32    1
     3    30    29    1
     4    32    33    2
     5    29    28    2
     6    33    28    1
     7    33    34    1
     8    28    26    1
     9    27    26    1
    10    26    23    1
    11    25    23    2
    12    23    24    2
    13    23     4    1
    14    20    19    1
    15    21    19    2
    16     5     4    2
    17     5     6    1
    18     4     3    1
    19    19    22    2
    20    19    17    1
    21     6     1    2
    22     3     2    2
    23    18    17    1
    24     1     2    1
    25     1     7    1
    26    17    16    1
    27    10     7    1
    28     7     8   am
    29    16    15    1
    30    16    11    2
    31     8     9    2
    32     8    11    1
    33    15    14    2
    34    11    12    1
    35    14    13    1
    36    12    13    2
