@<TRIPOS>MOLECULE
56905_out_ligand_01.pdbqt
 40 43 0 0 0
SMALL
GASTEIGER

@<TRIPOS>ATOM
      1  C         21.2150  -22.1620   -8.9460 C.2     1  UNL1        0.0340
      2  C         22.5670  -21.9740   -8.6260 C.2     1  UNL1        0.0310
      3  C         23.5540  -22.0530   -9.6130 C.2     1  UNL1        0.0270
      4  C         23.1840  -22.3240  -10.9300 C.2     1  UNL1        0.0800
      5  C         21.8390  -22.4870  -11.2690 C.2     1  UNL1        0.0270
      6  C         20.8590  -22.4140  -10.2740 C.2     1  UNL1        0.0310
      7  N         20.2950  -22.0850   -7.8830 N.am    1  UNL1       -0.3250
      8  C         19.5030  -23.0980   -7.3610 C.2     1  UNL1        0.2450
      9  O         19.4490  -24.2490   -7.7860 O.2     1  UNL1       -0.2710
     10  H         20.2370  -21.1780   -7.4150 H       1  UNL1        0.1690
     11  C         18.6540  -22.6400   -6.1630 C.3     1  UNL1        0.1900
     12  C         19.1210  -21.2870   -5.6230 C.3     1  UNL1        0.0430
     13  N         17.1920  -22.5980   -6.4620 N.pl3   1  UNL1       -0.2630
     14  C         16.7290  -22.7580   -7.8080 C.2     1  UNL1        0.0460
     15  C         17.0790  -21.7960   -8.7570 C.2     1  UNL1        0.0370
     16  C         16.6470  -21.9210  -10.0830 C.2     1  UNL1       -0.0590
     17  C         15.8820  -23.0370  -10.4490 C.2     1  UNL1        0.0130
     18  C         17.0460  -20.9030  -11.1110 C.3     1  UNL1        0.0480
     19  C         15.5330  -24.0110   -9.5040 C.2     1  UNL1       -0.0590
     20  C         14.6810  -25.1820   -9.8950 C.3     1  UNL1        0.0480
     21  C         15.9460  -23.8530   -8.1770 C.2     1  UNL1        0.0370
     22  S         16.0970  -22.9180   -5.2180 S.O2    1  UNL1        0.2300
     23  C         14.6340  -22.1350   -5.8620 C.3     1  UNL1        0.1860
     24  O         16.5370  -22.1660   -4.0570 O.2     1  UNL1       -0.2060
     25  O         15.8250  -24.3350   -5.1290 O.2     1  UNL1       -0.2060
     26  S         24.4330  -22.4280  -12.1860 S.O2    1  UNL1        0.2630
     27  O         24.3960  -23.7750  -12.7190 O.2     1  UNL1       -0.2000
     28  O         25.6610  -21.8660  -11.6720 O.2     1  UNL1       -0.2000
     29  N         23.8090  -21.4370  -13.4050 N.pl3   1  UNL1       -0.2800
     30  H         22.9180  -21.7870  -13.7520 H       1  UNL1        0.1790
     31  C         24.7190  -20.8960  -14.3660 C.2     1  UNL1        0.0530
     32  C         25.4130  -19.7350  -14.0130 C.2     1  UNL1        0.0310
     33  C         26.3230  -19.1680  -14.8980 C.2     1  UNL1        0.0030
     34  C         26.5410  -19.7610  -16.1410 C.2     1  UNL1        0.0120
     35  C         25.8580  -20.9300  -16.5150 C.2     1  UNL1       -0.0240
     36  C         26.0910  -21.5150  -17.7700 C.2     1  UNL1        0.0120
     37  C         24.9330  -21.5230  -15.6200 C.2     1  UNL1        0.0010
     38  C         25.4270  -22.6800  -18.1530 C.2     1  UNL1        0.0010
     39  C         24.5240  -23.2780  -17.2840 C.2     1  UNL1        0.0010
     40  C         24.2780  -22.7080  -16.0330 C.2     1  UNL1        0.0140
@<TRIPOS>BOND
     1    38    36    2
     2    38    39    1
     3    36    35    1
     4    39    40    2
     5    35    34    2
     6    35    37    1
     7    34    33    1
     8    40    37    1
     9    37    31    2
    10    33    32    2
    11    31    32    1
    12    31    29    1
    13    30    29    1
    14    29    26    1
    15    27    26    2
    16    26    28    2
    17    26     4    1
    18     5     4    2
    19     5     6    1
    20    18    16    1
    21     4     3    1
    22    17    16    2
    23    17    19    1
    24     6     1    2
    25    16    15    1
    26    20    19    1
    27     3     2    2
    28    19    21    2
    29     1     2    1
    30     1     7    1
    31    15    14    2
    32    21    14    1
    33     7    10    1
    34     7     8   am
    35    14    13    1
    36     9     8    2
    37     8    11    1
    38    13    11    1
    39    13    22    1
    40    11    12    1
    41    23    22    1
    42    22    25    2
    43    22    24    2
