@<TRIPOS>MOLECULE
56909_out_ligand_01.pdbqt
 32 34 0 0 0
SMALL
GASTEIGER

@<TRIPOS>ATOM
      1  C         17.4750  -23.4950   -8.7670 C.2     1  UNL1        0.1020
      2  C         18.8750  -23.6240   -8.8550 C.2     1  UNL1        0.0440
      3  C         19.5900  -22.9560   -9.8530 C.2     1  UNL1        0.0340
      4  C         18.9100  -22.1680  -10.7830 C.2     1  UNL1        0.0190
      5  C         17.5200  -22.0410  -10.6960 C.2     1  UNL1        0.0260
      6  C         16.7940  -22.6960   -9.6880 C.2     1  UNL1        0.0570
      7 CL         15.0860  -22.4700   -9.7390 Cl      1  UNL1       -0.0830
      8  S         16.6770  -24.3400   -7.4260 S.O2    1  UNL1        0.2650
      9  O         17.6280  -25.1160   -6.6670 O.2     1  UNL1       -0.2000
     10  O         15.5120  -24.9980   -7.9870 O.2     1  UNL1       -0.2000
     11  N         16.0600  -23.0790   -6.4920 N.pl3   1  UNL1       -0.2800
     12  H         15.0710  -23.2090   -6.2850 H       1  UNL1        0.1790
     13  C         16.8750  -22.5050   -5.4770 C.2     1  UNL1        0.0490
     14  C         16.6320  -22.7300   -4.1160 C.2     1  UNL1       -0.0350
     15  C         17.5100  -22.1620   -3.1800 C.2     1  UNL1        0.0090
     16  C         15.5120  -23.5980   -3.6170 C.3     1  UNL1        0.0500
     17  C         18.5860  -21.3710   -3.5900 C.2     1  UNL1        0.0070
     18  C         18.8180  -21.1410   -4.9480 C.2     1  UNL1       -0.0600
     19  C         19.9500  -20.2640   -5.3930 C.3     1  UNL1        0.0480
     20  C         17.9460  -21.7040   -5.8870 C.2     1  UNL1        0.0370
     21  C         21.0650  -23.1430   -9.9220 C.2     1  UNL1        0.2560
     22  O         21.5670  -23.9970   -9.2030 O.2     1  UNL1       -0.2670
     23  N         21.7200  -22.2910  -10.7910 N.am    1  UNL1       -0.3230
     24  H         21.1680  -21.5570  -11.2170 H       1  UNL1        0.1690
     25  C         23.1010  -22.2670  -11.0810 C.2     1  UNL1        0.0360
     26  C         24.0350  -21.5110  -10.3650 C.2     1  UNL1        0.0320
     27  C         25.3920  -21.5440  -10.7090 C.2     1  UNL1        0.0460
     28  C         25.8160  -22.3340  -11.7690 C.2     1  UNL1        0.1380
     29  F         27.1210  -22.3530  -12.0820 F       1  UNL1       -0.2040
     30  C         24.9000  -23.0940  -12.4890 C.2     1  UNL1        0.0740
     31 CL         25.4150  -24.0810  -13.8030 Cl      1  UNL1       -0.0810
     32  C         23.5460  -23.0620  -12.1470 C.2     1  UNL1        0.0560
@<TRIPOS>BOND
     1    31    30    1
     2    30    32    1
     3    30    28    2
     4    32    25    2
     5    29    28    1
     6    28    27    1
     7    24    23    1
     8    25    23    1
     9    25    26    1
    10    23    21   am
    11     4     5    2
    12     4     3    1
    13    27    26    2
    14     5     6    1
    15    21     3    1
    16    21    22    2
    17     3     2    2
    18     7     6    1
    19     6     1    2
    20     2     1    1
    21     1     8    1
    22    10     8    2
    23     8     9    2
    24     8    11    1
    25    11    12    1
    26    11    13    1
    27    20    13    2
    28    20    18    1
    29    13    14    1
    30    19    18    1
    31    18    17    2
    32    14    16    1
    33    14    15    2
    34    17    15    1
