@<TRIPOS>MOLECULE
56912_out_ligand_01.pdbqt
 33 35 0 0 0
SMALL
GASTEIGER

@<TRIPOS>ATOM
      1  C         17.7130  -23.1340   -8.9030 C.2     1  UNL1        0.0810
      2  C         19.1150  -23.0580   -8.9440 C.2     1  UNL1        0.0420
      3  C         19.7540  -22.3850   -9.9900 C.2     1  UNL1        0.0330
      4  C         18.9890  -21.7520  -10.9740 C.2     1  UNL1        0.0170
      5  C         17.5950  -21.8220  -10.9300 C.2     1  UNL1        0.0090
      6  C         16.9340  -22.5210   -9.9050 C.2     1  UNL1       -0.0390
      7  C         15.4290  -22.5330   -9.9070 C.3     1  UNL1        0.0500
      8  C         21.2450  -22.3310   -9.9990 C.2     1  UNL1        0.2560
      9  O         21.8210  -22.1690   -8.9320 O.2     1  UNL1       -0.2670
     10  N         21.8280  -22.5240  -11.2400 N.am    1  UNL1       -0.3220
     11  H         21.2020  -22.7940  -11.9840 H       1  UNL1        0.1690
     12  C         23.2060  -22.4590  -11.5690 C.2     1  UNL1        0.0430
     13  C         24.1880  -23.0290  -10.7420 C.2     1  UNL1        0.0300
     14  C         25.5500  -22.9240  -11.0370 C.2     1  UNL1        0.0050
     15  C         25.9600  -22.2250  -12.1620 C.2     1  UNL1        0.0370
     16  C         24.9920  -21.6480  -12.9900 C.2     1  UNL1        0.1110
     17  C         23.6040  -21.7730  -12.7440 C.2     1  UNL1       -0.0020
     18  C         22.5870  -21.1840  -13.6890 C.3     1  UNL1        0.0530
     19  N         25.4850  -20.8760  -14.1230 N.pl3   1  UNL1       -0.1150
     20  O         25.5650  -19.6490  -13.9770 O.2     1  UNL1       -0.5320
     21  O         25.7730  -21.5010  -15.1520 O.2     1  UNL1       -0.5320
     22  S         16.9680  -24.0070   -7.5280 S.O2    1  UNL1        0.2460
     23  O         18.0360  -24.6030   -6.7560 O.2     1  UNL1       -0.2060
     24  O         15.8730  -24.7980   -8.0500 O.2     1  UNL1       -0.2060
     25  N         16.2630  -22.7030   -6.6800 N.pl3   1  UNL1       -0.1810
     26  H         15.3140  -22.9770   -6.4270 H       1  UNL1        0.1460
     27  C         17.0090  -22.2660   -5.5300 C.2     1  UNL1        0.0280
     28  C         18.1280  -21.4530   -5.7370 C.2     1  UNL1        0.0250
     29  C         18.8990  -21.0220   -4.6580 C.2     1  UNL1        0.0020
     30  C         18.5560  -21.4050   -3.3660 C.2     1  UNL1        0.0010
     31  C         17.4450  -22.2220   -3.1530 C.2     1  UNL1        0.0080
     32  C         16.6570  -22.6650   -4.2290 C.2     1  UNL1       -0.0400
     33  C         15.4760  -23.5510   -3.9460 C.3     1  UNL1        0.0500
@<TRIPOS>BOND
     1    21    19    2
     2    19    20    2
     3    19    16    1
     4    18    17    1
     5    16    17    1
     6    16    15    2
     7    17    12    2
     8    15    14    1
     9    11    10    1
    10    12    10    1
    11    12    13    1
    12    10     8   am
    13    14    13    2
    14     4     5    2
    15     4     3    1
    16     5     6    1
    17     8     3    1
    18     8     9    2
    19     3     2    2
    20     7     6    1
    21     6     1    2
    22     2     1    1
    23     1    22    1
    24    24    22    2
    25    22    23    2
    26    22    25    1
    27    25    26    1
    28    25    27    1
    29    28    27    2
    30    28    29    1
    31    27    32    1
    32    29    30    2
    33    32    33    1
    34    32    31    2
    35    30    31    1
