@<TRIPOS>MOLECULE
56940_out_ligand_01.pdbqt
 35 38 0 0 0
SMALL
GASTEIGER

@<TRIPOS>ATOM
      1  N         22.5920  -23.0200  -11.0210 N.pl3   1  UNL1       -0.1800
      2  H         21.7680  -22.4300  -11.2190 H       1  UNL1        0.1460
      3  S         23.1160  -22.6700   -9.4450 S.O2    1  UNL1        0.2450
      4  O         24.0580  -23.6790   -9.0110 O.2     1  UNL1       -0.2060
      5  O         23.4410  -21.2620   -9.4040 O.2     1  UNL1       -0.2060
      6  C         21.6130  -22.8620   -8.5150 C.2     1  UNL1        0.0760
      7  C         21.2060  -21.8650   -7.6270 C.2     1  UNL1        0.0460
      8  C         20.0220  -22.0640   -6.9320 C.ar    1  UNL1        0.0380
      9  S         19.2980  -20.9640   -5.7530 S.2     1  UNL1       -0.0270
     10  C         19.2400  -23.2150   -7.1010 C.ar    1  UNL1        0.0550
     11  C         17.9360  -22.0630   -5.4950 C.ar    1  UNL1        0.2910
     12  N         18.0760  -23.2040   -6.2910 N.ar    1  UNL1       -0.3030
     13  O         17.0330  -21.8090   -4.7120 O.2     1  UNL1       -0.2590
     14  C         19.6500  -24.1980   -7.9940 C.2     1  UNL1        0.0320
     15  C         20.8410  -24.0180   -8.7070 C.2     1  UNL1        0.0270
     16  C         17.0680  -24.2620   -6.2340 C.3     1  UNL1        0.0860
     17  C         16.2810  -24.2800   -4.9200 C.3     1  UNL1        0.0320
     18  C         16.1630  -24.2970   -7.4680 C.3     1  UNL1        0.0320
     19  C         23.5940  -22.9530  -12.0490 C.2     1  UNL1        0.0380
     20  C         24.7020  -23.7990  -11.9590 C.2     1  UNL1        0.0250
     21  C         25.7280  -23.7100  -12.9020 C.2     1  UNL1        0.0020
     22  C         25.6520  -22.7760  -13.9370 C.2     1  UNL1        0.0010
     23  C         24.5520  -21.9200  -14.0290 C.2     1  UNL1        0.0190
     24  C         23.5250  -21.9930  -13.0760 C.2     1  UNL1        0.0540
     25  C         22.3350  -21.1110  -13.1760 C.2     1  UNL1        0.2530
     26  O         22.2390  -20.3370  -14.1250 O.2     1  UNL1       -0.2680
     27  N         21.3860  -21.2380  -12.1860 N.am    1  UNL1       -0.3530
     28  H         21.4750  -21.9530  -11.4820 H       1  UNL1        0.1630
     29  C         20.2230  -20.3800  -12.1270 C.3     1  UNL1        0.1610
     30  C         19.0450  -21.1230  -11.5480 C.2     1  UNL1       -0.0410
     31  C         19.1490  -22.4770  -11.1920 C.2     1  UNL1        0.0090
     32  C         18.0550  -23.1430  -10.6340 C.2     1  UNL1        0.0010
     33  C         16.8530  -22.4640  -10.4210 C.2     1  UNL1        0.0000
     34  C         16.7400  -21.1180  -10.7660 C.2     1  UNL1        0.0010
     35  C         17.8310  -20.4510  -11.3260 C.2     1  UNL1        0.0090
@<TRIPOS>BOND
     1    26    25    2
     2    23    22    2
     3    23    24    1
     4    22    21    1
     5    25    24    1
     6    25    27   am
     7    24    19    2
     8    21    20    2
     9    27    29    1
    10    27    28    1
    11    29    30    1
    12    19    20    1
    13    19     1    1
    14    30    35    2
    15    30    31    1
    16    35    34    1
    17     2     1    1
    18    31    32    2
    19     1     3    1
    20    34    33    2
    21    32    33    1
    22     3     5    2
    23     3     4    2
    24     3     6    1
    25    15     6    2
    26    15    14    1
    27     6     7    1
    28    14    10    2
    29     7     8    2
    30    18    16    1
    31    10     8   ar
    32    10    12   ar
    33     8     9   ar
    34    12    16    1
    35    12    11   ar
    36    16    17    1
    37     9    11   ar
    38    11    13    2
