@<TRIPOS>MOLECULE
56972_out_ligand_01.pdbqt
 41 45 0 0 0
SMALL
GASTEIGER

@<TRIPOS>ATOM
      1  S         24.7990  -22.5620  -10.4710 S.O2    1  UNL1        0.2450
      2  O         25.6970  -23.5080   -9.8480 O.2     1  UNL1       -0.2060
      3  O         25.1720  -21.1770  -10.6580 O.2     1  UNL1       -0.2060
      4  N         24.2930  -23.2330  -11.9420 N.pl3   1  UNL1       -0.1800
      5  H         24.1140  -24.2420  -11.8070 H       1  UNL1        0.1460
      6  C         25.0950  -22.9520  -13.1030 C.2     1  UNL1        0.0380
      7  C         26.3200  -23.6100  -13.2560 C.2     1  UNL1        0.0250
      8  C         27.0890  -23.4140  -14.4040 C.2     1  UNL1        0.0020
      9  C         26.6460  -22.5480  -15.4010 C.2     1  UNL1        0.0010
     10  C         25.4310  -21.8730  -15.2550 C.2     1  UNL1        0.0190
     11  C         24.6400  -22.0780  -14.1120 C.2     1  UNL1        0.0540
     12  C         23.3650  -21.3310  -13.9150 C.2     1  UNL1        0.2530
     13  O         23.1960  -20.2620  -14.4950 O.2     1  UNL1       -0.2680
     14  N         22.4240  -21.8850  -13.0740 N.am    1  UNL1       -0.3570
     15  H         22.5890  -22.7770  -12.6290 H       1  UNL1        0.1620
     16  C         21.0940  -21.3110  -12.9640 C.3     1  UNL1        0.1270
     17  C         20.6860  -21.0070  -11.5210 C.3     1  UNL1        0.0580
     18  C         19.2460  -21.3480  -11.2140 C.2     1  UNL1       -0.0570
     19  C         18.2410  -20.3760  -11.3180 C.2     1  UNL1        0.0070
     20  C         16.9110  -20.7000  -11.0470 C.2     1  UNL1        0.0010
     21  C         16.5720  -21.9960  -10.6610 C.2     1  UNL1        0.0000
     22  C         17.5620  -22.9690  -10.5470 C.2     1  UNL1        0.0010
     23  C         18.8930  -22.6470  -10.8190 C.2     1  UNL1        0.0070
     24  C         23.2840  -22.6110   -9.5380 C.2     1  UNL1        0.0760
     25  C         22.9280  -21.4950   -8.7630 C.2     1  UNL1        0.0270
     26  C         21.7710  -21.5230   -7.9790 C.2     1  UNL1        0.0320
     27  C         20.9880  -22.6690   -7.9860 C.ar    1  UNL1        0.0550
     28  C         21.3400  -23.7600   -8.7870 C.ar    1  UNL1        0.0380
     29  N         19.8180  -22.9020   -7.2320 N.ar    1  UNL1       -0.3030
     30  C         22.4770  -23.7500   -9.5770 C.2     1  UNL1        0.0460
     31  S         20.1860  -25.0810   -8.5890 S.2     1  UNL1       -0.0270
     32  C         19.2430  -24.1500   -7.4150 C.ar    1  UNL1        0.2910
     33  O         18.2370  -24.5870   -6.8770 O.2     1  UNL1       -0.2590
     34  C         19.2640  -21.9460   -6.2900 C.3     1  UNL1        0.1730
     35  C         17.7690  -22.0850   -6.0810 C.2     1  UNL1       -0.0180
     36  C         16.9080  -22.0490   -7.1980 C.2     1  UNL1        0.0100
     37  C         15.5270  -22.2050   -7.0520 C.2     1  UNL1        0.0010
     38  C         14.9800  -22.4190   -5.7900 C.2     1  UNL1        0.0020
     39  C         15.8160  -22.4810   -4.6770 C.2     1  UNL1        0.0240
     40  C         17.2000  -22.3200   -4.8180 C.2     1  UNL1        0.0420
     41 CL         18.1530  -22.4260   -3.3780 Cl      1  UNL1       -0.0840
@<TRIPOS>BOND
     1     9    10    2
     2     9     8    1
     3    10    11    1
     4    13    12    2
     5     8     7    2
     6    11    12    1
     7    11     6    2
     8    12    14   am
     9     7     6    1
    10     6     4    1
    11    14    16    1
    12    14    15    1
    13    16    17    1
    14     4     5    1
    15     4     1    1
    16    17    18    1
    17    19    18    2
    18    19    20    1
    19    18    23    1
    20    20    21    2
    21    23    22    2
    22    21    22    1
    23     3     1    2
    24     1     2    2
    25     1    24    1
    26    30    24    2
    27    30    28    1
    28    24    25    1
    29    28    31   ar
    30    28    27   ar
    31    25    26    2
    32    31    32   ar
    33    27    26    1
    34    27    29   ar
    35    32    29   ar
    36    32    33    2
    37    29    34    1
    38    36    37    1
    39    36    35    2
    40    37    38    2
    41    34    35    1
    42    35    40    1
    43    38    39    1
    44    40    39    2
    45    40    41    1
