@<TRIPOS>MOLECULE
56976_out_ligand_01.pdbqt
 32 36 0 0 0
SMALL
GASTEIGER

@<TRIPOS>ATOM
      1  C         19.6610  -22.1010   -6.5730 C.2     1  UNL1        0.0320
      2  C         20.8750  -21.4740   -6.8770 C.2     1  UNL1        0.0170
      3  C         21.6960  -21.9790   -7.8890 C.2     1  UNL1        0.0100
      4  C         21.3170  -23.1220   -8.6050 C.2     1  UNL1       -0.0300
      5  C         20.1100  -23.7590   -8.2790 C.2     1  UNL1        0.0100
      6  C         19.2860  -23.2560   -7.2690 C.2     1  UNL1        0.0170
      7  C         18.8200  -21.5240   -5.4890 C.2     1  UNL1        0.2510
      8  O         18.8760  -20.3270   -5.2320 O.2     1  UNL1       -0.2680
      9  N         17.9810  -22.3990   -4.8300 N.am    1  UNL1       -0.3540
     10  H         17.8150  -23.3090   -5.2400 H       1  UNL1        0.1620
     11  C         17.0150  -21.9330   -3.8480 C.3     1  UNL1        0.1570
     12  C         15.5440  -22.2500   -4.1790 C.3     1  UNL1        0.1710
     13  C         15.1960  -23.7350   -4.0880 C.3     1  UNL1        0.2090
     14  O         15.9490  -24.5110   -5.0280 O.2     1  UNL1       -0.3460
     15  C         15.8890  -23.9510   -6.2770 C.2     1  UNL1        0.1020
     16  C         16.2300  -24.7690   -7.3520 C.2     1  UNL1        0.0390
     17  C         15.5280  -22.6180   -6.4980 C.2     1  UNL1        0.1020
     18  C         16.1800  -24.2660   -8.6530 C.2     1  UNL1        0.0030
     19  C         15.7950  -22.9430   -8.8760 C.2     1  UNL1        0.0030
     20  C         15.4690  -22.1190   -7.7980 C.2     1  UNL1        0.0390
     21  O         15.2270  -21.7390   -5.4900 O.2     1  UNL1       -0.3390
     22  C         22.2100  -23.6790   -9.6960 C.3     1  UNL1        0.3110
     23  N         22.5360  -22.6940  -10.7400 N.3     1  UNL1        0.0970
     24  C         21.3610  -22.4410  -11.5880 C.3     1  UNL1        0.2770
     25  C         21.6270  -21.2750  -12.5500 C.3     1  UNL1        0.0690
     26  C         22.9320  -21.4240  -13.2880 C.2     1  UNL1       -0.0490
     27  C         23.1880  -20.6540  -14.4300 C.2     1  UNL1        0.0070
     28  C         23.9190  -22.2950  -12.7950 C.2     1  UNL1       -0.0240
     29  C         24.4080  -20.7670  -15.0960 C.2     1  UNL1        0.0010
     30  C         25.3830  -21.6420  -14.6220 C.2     1  UNL1        0.0010
     31  C         25.1380  -22.4050  -13.4790 C.2     1  UNL1        0.0090
     32  C         23.6570  -23.1630  -11.5810 C.3     1  UNL1        0.3110
@<TRIPOS>BOND
     1    29    30    2
     2    29    27    1
     3    30    31    1
     4    27    26    2
     5    31    28    2
     6    26    28    1
     7    26    25    1
     8    28    32    1
     9    25    24    1
    10    24    23    1
    11    32    23    1
    12    23    22    1
    13    22     4    1
    14    19    18    2
    15    19    20    1
    16    18    16    1
    17     4     5    2
    18     4     3    1
    19     5     6    1
    20     3     2    2
    21    20    17    2
    22    16    15    2
    23     6     1    2
    24     2     1    1
    25     1     7    1
    26    17    15    1
    27    17    21    1
    28    15    14    1
    29    21    12    1
    30     7     8    2
    31     7     9   am
    32    10     9    1
    33    14    13    1
    34     9    11    1
    35    12    13    1
    36    12    11    1
