@<TRIPOS>MOLECULE
56989_out_ligand_01.pdbqt
 34 37 0 0 0
SMALL
GASTEIGER

@<TRIPOS>ATOM
      1  C         17.7130  -23.6450   -8.4530 C.2     1  UNL1        0.0810
      2  C         19.0710  -23.9780   -8.3090 C.2     1  UNL1        0.0420
      3  C         20.0110  -23.4830   -9.2180 C.2     1  UNL1        0.0330
      4  C         19.5920  -22.6770  -10.2780 C.2     1  UNL1        0.0170
      5  C         18.2440  -22.3370  -10.4130 C.2     1  UNL1        0.0090
      6  C         17.2820  -22.8070   -9.5010 C.2     1  UNL1       -0.0390
      7  C         15.8490  -22.3990   -9.6990 C.3     1  UNL1        0.0500
      8  C         21.4540  -23.8200   -9.1090 C.2     1  UNL1        0.2510
      9  O         21.7880  -24.9310   -8.7140 O.2     1  UNL1       -0.2680
     10  N         22.3370  -22.8290   -9.4810 N.am    1  UNL1       -0.3540
     11  H         21.9790  -22.0080   -9.9510 H       1  UNL1        0.1620
     12  C         23.7700  -23.0810   -9.5630 C.3     1  UNL1        0.1570
     13  C         24.3820  -22.5800  -10.8800 C.3     1  UNL1        0.1710
     14  C         23.2820  -22.2010  -11.8670 C.3     1  UNL1        0.2090
     15  O         23.8420  -21.8390  -13.1360 O.2     1  UNL1       -0.3460
     16  C         24.9020  -20.9810  -12.9860 C.2     1  UNL1        0.1020
     17  C         25.3280  -20.3010  -14.1250 C.2     1  UNL1        0.0390
     18  C         25.5530  -20.7780  -11.7650 C.2     1  UNL1        0.1020
     19  C         26.3850  -19.3940  -14.0380 C.2     1  UNL1        0.0030
     20  C         27.0150  -19.1690  -12.8140 C.2     1  UNL1        0.0030
     21  C         26.5980  -19.8610  -11.6750 C.2     1  UNL1        0.0390
     22  O         25.2100  -21.4360  -10.6130 O.2     1  UNL1       -0.3390
     23  S         16.5690  -24.3340   -7.2620 S.O2    1  UNL1        0.2460
     24  O         15.4490  -24.8800   -8.0020 O.2     1  UNL1       -0.2060
     25  O         17.3350  -25.1420   -6.3400 O.2     1  UNL1       -0.2060
     26  N         15.9930  -22.9210   -6.5020 N.pl3   1  UNL1       -0.1810
     27  H         15.0750  -23.1310   -6.1080 H       1  UNL1        0.1460
     28  C         16.8750  -22.3980   -5.4990 C.2     1  UNL1        0.0230
     29  C         16.6060  -22.6350   -4.1520 C.2     1  UNL1        0.0240
     30  C         17.4460  -22.1050   -3.1740 C.2     1  UNL1        0.0020
     31  C         18.5440  -21.3260   -3.5430 C.2     1  UNL1        0.0070
     32  C         18.8020  -21.0560   -4.8930 C.2     1  UNL1       -0.0600
     33  C         19.9920  -20.2340   -5.2910 C.3     1  UNL1        0.0480
     34  C         17.9610  -21.6030   -5.8710 C.2     1  UNL1        0.0310
@<TRIPOS>BOND
     1    17    19    1
     2    17    16    2
     3    19    20    2
     4    15    16    1
     5    15    14    1
     6    16    18    1
     7    20    21    1
     8    14    13    1
     9    18    21    2
    10    18    22    1
    11    13    22    1
    12    13    12    1
    13     5     4    2
    14     5     6    1
    15     4     3    1
    16    11    10    1
    17     7     6    1
    18    12    10    1
    19     6     1    2
    20    10     8   am
    21     3     8    1
    22     3     2    2
    23     8     9    2
    24     1     2    1
    25     1    23    1
    26    24    23    2
    27    23    26    1
    28    23    25    2
    29    26    27    1
    30    26    28    1
    31    34    28    2
    32    34    32    1
    33    28    29    1
    34    33    32    1
    35    32    31    2
    36    29    30    2
    37    31    30    1
