@<TRIPOS>MOLECULE
56992_out_ligand_01.pdbqt
 35 38 0 0 0
SMALL
GASTEIGER

@<TRIPOS>ATOM
      1  C         17.6520  -23.6210   -8.6310 C.2     1  UNL1        0.0970
      2  C         19.0250  -23.9140   -8.5570 C.2     1  UNL1        0.0430
      3  C         19.9140  -23.3630   -9.4880 C.2     1  UNL1        0.0330
      4  C         19.4270  -22.5370  -10.5060 C.2     1  UNL1        0.0190
      5  C         18.0580  -22.2560  -10.5810 C.2     1  UNL1        0.0260
      6  C         17.1650  -22.7910   -9.6430 C.2     1  UNL1        0.0570
      7 CL         15.4970  -22.3900   -9.8480 Cl      1  UNL1       -0.0830
      8  C         21.3600  -23.7000   -9.3780 C.2     1  UNL1        0.2510
      9  O         21.7090  -24.7270   -8.8120 O.2     1  UNL1       -0.2680
     10  N         22.2400  -22.7850   -9.9160 N.am    1  UNL1       -0.3540
     11  H         21.9090  -21.8370  -10.0630 H       1  UNL1        0.1620
     12  C         23.6700  -22.9140   -9.6700 C.3     1  UNL1        0.1570
     13  C         24.4910  -22.5740  -10.9150 C.3     1  UNL1        0.1710
     14  C         25.4530  -21.4250  -10.6280 C.3     1  UNL1        0.2090
     15  O         26.2730  -21.1540  -11.7700 O.2     1  UNL1       -0.3460
     16  C         25.5300  -21.1100  -12.9220 C.2     1  UNL1        0.1020
     17  C         26.1420  -20.5480  -14.0410 C.2     1  UNL1        0.0390
     18  C         24.2250  -21.6040  -13.0120 C.2     1  UNL1        0.1020
     19  C         25.4390  -20.4540  -15.2440 C.2     1  UNL1        0.0030
     20  C         24.1270  -20.9240  -15.3270 C.2     1  UNL1        0.0030
     21  C         23.5180  -21.4970  -14.2100 C.2     1  UNL1        0.0390
     22  O         23.5720  -22.1970  -11.9620 O.2     1  UNL1       -0.3390
     23  S         16.5800  -24.3010   -7.3930 S.O2    1  UNL1        0.2470
     24  O         17.4120  -24.9840   -6.4250 O.2     1  UNL1       -0.2050
     25  O         15.5060  -24.9870   -8.0780 O.2     1  UNL1       -0.2050
     26  N         15.9580  -22.8920   -6.6530 N.pl3   1  UNL1       -0.1810
     27  H         15.8430  -22.1990   -7.3970 H       1  UNL1        0.1460
     28  C         16.8080  -22.3580   -5.6230 C.2     1  UNL1        0.0290
     29  C         16.5320  -22.6280   -4.2750 C.2     1  UNL1       -0.0400
     30  C         17.4140  -22.1380   -3.2990 C.2     1  UNL1        0.0090
     31  C         15.3540  -23.4600   -3.8560 C.3     1  UNL1        0.0500
     32  C         18.5380  -21.3910   -3.6610 C.2     1  UNL1        0.0070
     33  C         18.8160  -21.1360   -5.0080 C.2     1  UNL1       -0.0600
     34  C         20.0200  -20.3340   -5.4050 C.3     1  UNL1        0.0480
     35  C         17.9390  -21.6170   -5.9860 C.2     1  UNL1        0.0310
@<TRIPOS>BOND
     1    20    19    2
     2    20    21    1
     3    19    17    1
     4    21    18    2
     5    17    16    2
     6    18    16    1
     7    18    22    1
     8    16    15    1
     9    22    13    1
    10    15    14    1
    11    13    14    1
    12    13    12    1
    13     5     4    2
    14     5     6    1
    15     4     3    1
    16    11    10    1
    17    10    12    1
    18    10     8   am
    19     7     6    1
    20     6     1    2
    21     3     8    1
    22     3     2    2
    23     8     9    2
    24     1     2    1
    25     1    23    1
    26    25    23    2
    27    27    26    1
    28    23    26    1
    29    23    24    2
    30    26    28    1
    31    35    28    2
    32    35    33    1
    33    28    29    1
    34    34    33    1
    35    33    32    2
    36    29    31    1
    37    29    30    2
    38    32    30    1
