@<TRIPOS>MOLECULE
56991_out_ligand_01.pdbqt
 35 38 0 0 0
SMALL
GASTEIGER

@<TRIPOS>ATOM
      1  C         16.9850  -21.0790  -11.0940 C.3     1  UNL1        0.0500
      2  C         18.3020  -21.7040  -10.7310 C.2     1  UNL1       -0.0390
      3  C         19.4490  -21.2900  -11.4310 C.2     1  UNL1        0.0090
      4  C         20.7070  -21.8250  -11.1430 C.2     1  UNL1        0.0170
      5  C         20.8400  -22.7980  -10.1490 C.2     1  UNL1        0.0330
      6  C         19.7140  -23.2210   -9.4370 C.2     1  UNL1        0.0420
      7  C         18.4490  -22.6770   -9.7220 C.2     1  UNL1        0.0810
      8  C         22.1630  -23.3780   -9.7940 C.2     1  UNL1        0.2510
      9  O         22.2270  -24.4130   -9.1410 O.2     1  UNL1       -0.2680
     10  N         23.2700  -22.7090  -10.2700 N.am    1  UNL1       -0.3540
     11  H         23.1480  -22.0540  -11.0330 H       1  UNL1        0.1620
     12  C         24.6030  -23.2780  -10.1130 C.3     1  UNL1        0.1570
     13  C         25.6910  -22.3870  -10.7450 C.3     1  UNL1        0.1710
     14  C         25.1060  -21.3150  -11.6610 C.3     1  UNL1        0.2090
     15  O         24.4230  -21.8930  -12.7790 O.2     1  UNL1       -0.3460
     16  C         25.2070  -22.8400  -13.3870 C.2     1  UNL1        0.1020
     17  C         24.8720  -23.1880  -14.6940 C.2     1  UNL1        0.0390
     18  C         26.2860  -23.4620  -12.7500 C.2     1  UNL1        0.1020
     19  C         25.6350  -24.1380  -15.3770 C.2     1  UNL1        0.0030
     20  C         26.7290  -24.7420  -14.7500 C.2     1  UNL1        0.0030
     21  C         27.0540  -24.4050  -13.4350 C.2     1  UNL1        0.0390
     22  O         26.6470  -23.2060  -11.4520 O.2     1  UNL1       -0.3390
     23  S         17.0600  -23.2840   -8.7620 S.O2    1  UNL1        0.2460
     24  O         17.5800  -24.2660   -7.8330 O.2     1  UNL1       -0.2060
     25  O         15.9830  -23.6060   -9.6720 O.2     1  UNL1       -0.2060
     26  N         16.6680  -21.8900   -7.8530 N.pl3   1  UNL1       -0.1810
     27  H         17.3710  -21.1750   -8.0420 H       1  UNL1        0.1460
     28  C         16.5350  -22.1310   -6.4390 C.2     1  UNL1        0.0290
     29  C         15.2830  -22.5320   -5.9590 C.2     1  UNL1        0.0250
     30  C         15.0810  -22.7220   -4.5960 C.2     1  UNL1        0.0020
     31  C         16.1260  -22.4930   -3.7050 C.2     1  UNL1        0.0070
     32  C         17.3880  -22.0770   -4.1630 C.2     1  UNL1       -0.0540
     33  C         18.4790  -21.8410   -3.1530 C.3     1  UNL1        0.0490
     34  C         17.6090  -21.9100   -5.5510 C.2     1  UNL1       -0.0340
     35  C         18.9570  -21.4600   -6.0550 C.3     1  UNL1        0.0500
@<TRIPOS>BOND
     1    19    20    2
     2    19    17    1
     3    20    21    1
     4    17    16    2
     5    21    18    2
     6    16    15    1
     7    16    18    1
     8    15    14    1
     9    18    22    1
    10    14    13    1
    11    22    13    1
    12     3     4    1
    13     3     2    2
    14     4     5    2
    15     1     2    1
    16    11    10    1
    17    13    12    1
    18     2     7    1
    19    10    12    1
    20    10     8   am
    21     5     8    1
    22     5     6    1
    23     8     9    2
    24     7     6    2
    25     7    23    1
    26    25    23    2
    27    23    26    1
    28    23    24    2
    29    27    26    1
    30    26    28    1
    31    28    29    2
    32    28    34    1
    33    35    34    1
    34    29    30    1
    35    34    32    2
    36    30    31    2
    37    32    31    1
    38    32    33    1
