@<TRIPOS>MOLECULE
56993_out_ligand_01.pdbqt
 35 38 0 0 0
SMALL
GASTEIGER

@<TRIPOS>ATOM
      1  C         19.0970  -22.4180  -10.2010 C.2     1  UNL1        0.0810
      2  C         20.4380  -22.8290  -10.1350 C.2     1  UNL1        0.0420
      3  C         21.3800  -22.2900  -11.0160 C.2     1  UNL1        0.0330
      4  C         20.9880  -21.3340  -11.9560 C.2     1  UNL1        0.0170
      5  C         19.6530  -20.9280  -12.0220 C.2     1  UNL1        0.0090
      6  C         18.6880  -21.4540  -11.1440 C.2     1  UNL1       -0.0390
      7  C         17.2680  -20.9750  -11.2740 C.3     1  UNL1        0.0500
      8  C         22.7930  -22.7270  -10.8910 C.2     1  UNL1        0.2510
      9  O         23.1170  -23.4570   -9.9640 O.2     1  UNL1       -0.2680
     10  N         23.6570  -22.2660  -11.8630 N.am    1  UNL1       -0.3540
     11  H         23.2770  -21.7630  -12.6540 H       1  UNL1        0.1620
     12  C         25.0350  -22.7330  -11.9290 C.3     1  UNL1        0.1570
     13  C         25.7100  -22.5290  -13.2960 C.3     1  UNL1        0.1710
     14  C         26.1410  -21.0800  -13.5120 C.3     1  UNL1        0.2090
     15  O         26.9060  -20.9580  -14.7190 O.2     1  UNL1       -0.3460
     16  C         26.2960  -21.6130  -15.7590 C.2     1  UNL1        0.1020
     17  C         26.7430  -21.3060  -17.0440 C.2     1  UNL1        0.0390
     18  C         25.2780  -22.5540  -15.5790 C.2     1  UNL1        0.1020
     19  C         26.1490  -21.9150  -18.1510 C.2     1  UNL1        0.0030
     20  C         25.1100  -22.8300  -17.9710 C.2     1  UNL1        0.0030
     21  C         24.6730  -23.1500  -16.6830 C.2     1  UNL1        0.0390
     22  O         24.8170  -22.9360  -14.3460 O.2     1  UNL1       -0.3390
     23  S         17.9480  -23.1750   -9.0580 S.O2    1  UNL1        0.2460
     24  O         16.7770  -23.5850   -9.8020 O.2     1  UNL1       -0.2060
     25  O         18.6840  -24.1150   -8.2370 O.2     1  UNL1       -0.2060
     26  N         17.5890  -21.8480   -8.0500 N.pl3   1  UNL1       -0.1810
     27  H         18.4160  -21.2440   -8.0640 H       1  UNL1        0.1460
     28  C         17.2780  -22.1860   -6.6900 C.2     1  UNL1        0.0230
     29  C         18.0510  -21.7270   -5.6220 C.2     1  UNL1        0.0310
     30  C         17.6850  -22.0320   -4.3050 C.2     1  UNL1       -0.0600
     31  C         16.5070  -22.7580   -4.0740 C.2     1  UNL1        0.0130
     32  C         18.5130  -21.5400   -3.1540 C.3     1  UNL1        0.0480
     33  C         15.7040  -23.1860   -5.1410 C.2     1  UNL1       -0.0600
     34  C         14.4600  -23.9860   -4.8850 C.3     1  UNL1        0.0480
     35  C         16.1040  -22.9010   -6.4520 C.2     1  UNL1        0.0310
@<TRIPOS>BOND
     1    19    20    2
     2    19    17    1
     3    20    21    1
     4    17    16    2
     5    21    18    2
     6    16    18    1
     7    16    15    1
     8    18    22    1
     9    15    14    1
    10    22    13    1
    11    14    13    1
    12    13    12    1
    13    11    10    1
    14     5     4    2
    15     5     6    1
    16     4     3    1
    17    12    10    1
    18    10     8   am
    19     7     6    1
    20     6     1    2
    21     3     8    1
    22     3     2    2
    23     8     9    2
    24     1     2    1
    25     1    23    1
    26    24    23    2
    27    23    25    2
    28    23    26    1
    29    27    26    1
    30    26    28    1
    31    28    35    2
    32    28    29    1
    33    35    33    1
    34    29    30    2
    35    33    34    1
    36    33    31    2
    37    30    31    1
    38    30    32    1
