@<TRIPOS>MOLECULE
56995_out_ligand_01.pdbqt
 35 38 0 0 0
SMALL
GASTEIGER

@<TRIPOS>ATOM
      1  C         17.6690  -23.6270   -8.5920 C.2     1  UNL1        0.0810
      2  C         19.0390  -23.9200   -8.5010 C.2     1  UNL1        0.0420
      3  C         19.9440  -23.3660   -9.4130 C.2     1  UNL1        0.0330
      4  C         19.4760  -22.5240  -10.4250 C.2     1  UNL1        0.0170
      5  C         18.1120  -22.2270  -10.5110 C.2     1  UNL1        0.0090
      6  C         17.1880  -22.7740   -9.6030 C.2     1  UNL1       -0.0390
      7  C         15.7390  -22.4030   -9.7550 C.3     1  UNL1        0.0500
      8  C         21.3820  -23.7290   -9.2930 C.2     1  UNL1        0.2510
      9  O         21.7040  -24.7930   -8.7780 O.2     1  UNL1       -0.2680
     10  N         22.2930  -22.8040   -9.7630 N.am    1  UNL1       -0.3540
     11  H         21.9680  -21.8550   -9.8970 H       1  UNL1        0.1620
     12  C         23.7190  -22.9880   -9.5450 C.3     1  UNL1        0.1570
     13  C         24.6180  -22.6840  -10.7550 C.3     1  UNL1        0.1710
     14  C         23.8540  -22.8100  -12.0710 C.3     1  UNL1        0.2090
     15  O         24.7120  -22.5670  -13.1930 O.2     1  UNL1       -0.3460
     16  C         25.5050  -21.4690  -12.9920 C.2     1  UNL1        0.1020
     17  C         26.1630  -20.9580  -14.1110 C.2     1  UNL1        0.0390
     18  C         25.6790  -20.8660  -11.7440 C.2     1  UNL1        0.1020
     19  C         26.9700  -19.8260  -13.9870 C.2     1  UNL1        0.0030
     20  C         27.1210  -19.2070  -12.7450 C.2     1  UNL1        0.0030
     21  C         26.4730  -19.7260  -11.6230 C.2     1  UNL1        0.0390
     22  O         25.0890  -21.3300  -10.5980 O.2     1  UNL1       -0.3390
     23  S         16.5910  -24.3650   -7.3630 S.O2    1  UNL1        0.2460
     24  O         15.4810  -24.9690   -8.0710 O.2     1  UNL1       -0.2060
     25  O         17.4040  -25.1350   -6.4500 O.2     1  UNL1       -0.2060
     26  N         15.9940  -22.9630   -6.5900 N.pl3   1  UNL1       -0.1810
     27  H         15.0780  -23.1890   -6.1970 H       1  UNL1        0.1460
     28  C         16.8650  -22.4470   -5.5670 C.2     1  UNL1        0.0290
     29  C         16.6020  -22.6900   -4.2120 C.2     1  UNL1       -0.0400
     30  C         17.4620  -22.1360   -3.2510 C.2     1  UNL1        0.0090
     31  C         15.4270  -23.5090   -3.7610 C.3     1  UNL1        0.0500
     32  C         18.5600  -21.3620   -3.6320 C.2     1  UNL1        0.0070
     33  C         18.8120  -21.1070   -4.9830 C.2     1  UNL1       -0.0600
     34  C         19.9990  -20.2840   -5.3890 C.3     1  UNL1        0.0480
     35  C         17.9630  -21.6630   -5.9470 C.2     1  UNL1        0.0310
@<TRIPOS>BOND
     1    17    19    1
     2    17    16    2
     3    19    20    2
     4    15    16    1
     5    15    14    1
     6    16    18    1
     7    20    21    1
     8    14    13    1
     9    18    21    2
    10    18    22    1
    11    13    22    1
    12    13    12    1
    13     5     4    2
    14     5     6    1
    15     4     3    1
    16    11    10    1
    17    10    12    1
    18    10     8   am
    19     7     6    1
    20     6     1    2
    21     3     8    1
    22     3     2    2
    23     8     9    2
    24     1     2    1
    25     1    23    1
    26    24    23    2
    27    23    26    1
    28    23    25    2
    29    26    27    1
    30    26    28    1
    31    35    28    2
    32    35    33    1
    33    28    29    1
    34    34    33    1
    35    33    32    2
    36    29    31    1
    37    29    30    2
    38    32    30    1
