@<TRIPOS>MOLECULE
56990_out_ligand_01.pdbqt
 34 37 0 0 0
SMALL
GASTEIGER

@<TRIPOS>ATOM
      1  C         18.7140  -22.3920  -10.0010 C.2     1  UNL1        0.0810
      2  C         19.9630  -22.9490   -9.6820 C.2     1  UNL1        0.0420
      3  C         21.0870  -22.6560  -10.4610 C.2     1  UNL1        0.0330
      4  C         20.9520  -21.8290  -11.5810 C.2     1  UNL1        0.0170
      5  C         19.7070  -21.2800  -11.9030 C.2     1  UNL1        0.0090
      6  C         18.5720  -21.5420  -11.1160 C.2     1  UNL1       -0.0390
      7  C         17.2600  -20.9380  -11.5370 C.3     1  UNL1        0.0500
      8  C         22.3930  -23.2640  -10.0830 C.2     1  UNL1        0.2510
      9  O         22.4580  -24.0630   -9.1550 O.2     1  UNL1       -0.2680
     10  N         23.5000  -22.8460  -10.7910 N.am    1  UNL1       -0.3540
     11  H         23.4420  -21.9940  -11.3330 H       1  UNL1        0.1620
     12  C         24.8350  -23.2840  -10.4090 C.3     1  UNL1        0.1570
     13  C         25.9360  -22.5000  -11.1490 C.3     1  UNL1        0.1710
     14  C         27.1100  -23.3900  -11.5520 C.3     1  UNL1        0.2090
     15  O         26.7050  -24.4080  -12.4720 O.2     1  UNL1       -0.3460
     16  C         25.9720  -23.8740  -13.4990 C.2     1  UNL1        0.1020
     17  C         25.8490  -24.6460  -14.6520 C.2     1  UNL1        0.0390
     18  C         25.3450  -22.6270  -13.4180 C.2     1  UNL1        0.1020
     19  C         25.1240  -24.1580  -15.7410 C.2     1  UNL1        0.0030
     20  C         24.5210  -22.9010  -15.6720 C.2     1  UNL1        0.0030
     21  C         24.6300  -22.1360  -14.5100 C.2     1  UNL1        0.0390
     22  O         25.3780  -21.8350  -12.3010 O.2     1  UNL1       -0.3390
     23  S         17.3230  -22.8180   -8.9560 S.O2    1  UNL1        0.2460
     24  O         16.6930  -21.5860   -8.5390 O.2     1  UNL1       -0.2060
     25  O         16.5770  -23.8670   -9.6190 O.2     1  UNL1       -0.2060
     26  N         18.1370  -23.5530   -7.6470 N.pl3   1  UNL1       -0.1810
     27  H         17.6690  -24.4340   -7.4420 H       1  UNL1        0.1460
     28  C         18.2560  -22.7240   -6.4770 C.2     1  UNL1        0.0280
     29  C         19.2650  -21.7560   -6.4490 C.2     1  UNL1        0.0250
     30  C         19.4070  -20.9140   -5.3470 C.2     1  UNL1        0.0020
     31  C         18.5390  -21.0350   -4.2670 C.2     1  UNL1        0.0010
     32  C         17.5260  -21.9960   -4.2900 C.2     1  UNL1        0.0080
     33  C         17.3680  -22.8510   -5.3950 C.2     1  UNL1       -0.0400
     34  C         16.2570  -23.8620   -5.3750 C.3     1  UNL1        0.0500
@<TRIPOS>BOND
     1    19    20    2
     2    19    17    1
     3    20    21    1
     4    17    16    2
     5    21    18    2
     6    16    18    1
     7    16    15    1
     8    18    22    1
     9    15    14    1
    10    22    13    1
    11     5     4    2
    12     5     6    1
    13     4     3    1
    14    14    13    1
    15     7     6    1
    16    11    10    1
    17    13    12    1
    18     6     1    2
    19    10    12    1
    20    10     8   am
    21     3     8    1
    22     3     2    2
    23     8     9    2
    24     1     2    1
    25     1    23    1
    26    25    23    2
    27    23    24    2
    28    23    26    1
    29    26    27    1
    30    26    28    1
    31    28    29    2
    32    28    33    1
    33    29    30    1
    34    33    34    1
    35    33    32    2
    36    30    31    2
    37    32    31    1
