@<TRIPOS>MOLECULE
5701_out_ligand_01.pdbqt
 35 38 0 0 0
SMALL
GASTEIGER

@<TRIPOS>ATOM
      1  C         22.8950  -22.4970  -11.1440 C.ar    1  UNL1        0.1920
      2  N         22.6400  -22.0530  -12.3490 N.ar    1  UNL1       -0.1220
      3  N         21.2840  -21.8530  -12.4350 N.ar    1  UNL1       -0.1280
      4  C         20.7430  -22.1470  -11.2660 C.ar    1  UNL1        0.1670
      5  N         21.7360  -22.6190  -10.4320 N.ar    1  UNL1       -0.3070
      6  S         24.4710  -22.9070  -10.5750 S.3     1  UNL1       -0.0810
      7  C         25.3150  -21.3210  -10.8170 C.3     1  UNL1        0.1850
      8  C         25.9580  -21.0740  -12.1790 C.2     1  UNL1        0.2310
      9  N         25.1820  -20.4490  -13.1300 N.am    1  UNL1       -0.3260
     10  H         24.2900  -20.1030  -12.7920 H       1  UNL1        0.1690
     11  O         27.1210  -21.4540  -12.3390 O.2     1  UNL1       -0.2720
     12  C         25.5170  -20.1020  -14.4640 C.2     1  UNL1        0.0410
     13  C         26.1830  -18.9140  -14.7720 C.2     1  UNL1        0.0300
     14  C         26.4740  -18.5700  -16.0910 C.2     1  UNL1        0.0030
     15  C         26.0990  -19.4100  -17.1280 C.2     1  UNL1        0.0070
     16  C         25.4320  -20.6130  -16.8630 C.2     1  UNL1       -0.0540
     17  C         25.0640  -21.4880  -18.0350 C.3     1  UNL1        0.0490
     18  C         25.1590  -20.9850  -15.5210 C.2     1  UNL1       -0.0290
     19  C         24.4700  -22.2980  -15.2240 C.3     1  UNL1        0.0510
     20  C         21.5640  -23.2060   -9.1190 C.3     1  UNL1        0.1370
     21  C         21.6140  -22.1500   -8.0140 C.3     1  UNL1        0.0590
     22  C         20.3580  -22.1690   -7.1810 C.2     1  UNL1       -0.0570
     23  C         19.4450  -23.2220   -7.2940 C.2     1  UNL1        0.0070
     24  C         18.2970  -23.2510   -6.5030 C.2     1  UNL1        0.0010
     25  C         18.0540  -22.2310   -5.5890 C.2     1  UNL1        0.0000
     26  C         18.9570  -21.1740   -5.4690 C.2     1  UNL1        0.0010
     27  C         20.1050  -21.1430   -6.2600 C.2     1  UNL1        0.0070
     28  C         19.3220  -22.0430  -10.9490 C.2     1  UNL1        0.0450
     29  C         18.6740  -23.1410  -10.3670 C.2     1  UNL1        0.0180
     30  C         17.3090  -23.0850  -10.0680 C.2     1  UNL1        0.0010
     31  C         16.5750  -21.9370  -10.3570 C.2     1  UNL1        0.0030
     32  C         17.2010  -20.8430  -10.9580 C.2     1  UNL1        0.0370
     33  C         18.5650  -20.9010  -11.2540 C.2     1  UNL1        0.0790
     34  O         19.1750  -19.8310  -11.8490 O.2     1  UNL1       -0.3600
     35  H         19.1010  -19.0550  -11.2650 H       1  UNL1        0.2170
@<TRIPOS>BOND
     1    17    16    1
     2    15    16    2
     3    15    14    1
     4    16    18    1
     5    14    13    2
     6    18    19    1
     7    18    12    2
     8    13    12    1
     9    12     9    1
    10     9    10    1
    11     9     8   am
    12     3     2   ar
    13     3     4   ar
    14     2     1   ar
    15    11     8    2
    16     8     7    1
    17    34    35    1
    18    34    33    1
    19     4    28    1
    20     4     5   ar
    21    33    32    1
    22    33    28    2
    23     1     6    1
    24     1     5   ar
    25    32    31    2
    26    28    29    1
    27     7     6    1
    28     5    20    1
    29    29    30    2
    30    31    30    1
    31    20    21    1
    32    21    22    1
    33    23    22    2
    34    23    24    1
    35    22    27    1
    36    24    25    2
    37    27    26    2
    38    25    26    1
