@<TRIPOS>MOLECULE
57024_out_ligand_01.pdbqt
 28 31 0 0 0
SMALL
GASTEIGER

@<TRIPOS>ATOM
      1  C         20.1080  -22.9830  -10.0020 C.2     1  UNL1        0.0460
      2  C         20.3460  -23.7450   -8.8430 C.2     1  UNL1        0.0320
      3  C         19.3070  -24.1280   -7.9840 C.2     1  UNL1        0.0270
      4  C         17.9980  -23.7540   -8.2750 C.2     1  UNL1        0.0750
      5  C         17.7240  -22.9920   -9.4050 C.2     1  UNL1        0.0270
      6  C         18.7730  -22.6160  -10.2570 C.2     1  UNL1        0.0320
      7  N         21.1740  -22.5940  -10.8770 N.am    1  UNL1       -0.2440
      8  C         22.5050  -22.9250  -10.7040 C.2     1  UNL1        0.2660
      9  C         23.2470  -22.3370  -11.8130 C.2     1  UNL1        0.0480
     10  O         23.0840  -23.5630   -9.8420 O.2     1  UNL1       -0.2670
     11  C         24.5980  -22.3770  -12.1080 C.2     1  UNL1        0.0180
     12  C         22.3480  -21.6710  -12.6130 C.2     1  UNL1        0.0480
     13  C         25.0240  -21.7080  -13.2590 C.2     1  UNL1        0.0010
     14  C         24.1030  -21.0250  -14.0770 C.2     1  UNL1        0.0010
     15  C         22.7430  -21.0010  -13.7570 C.2     1  UNL1        0.0180
     16  C         21.0250  -21.8280  -12.0180 C.2     1  UNL1        0.2660
     17  O         20.0510  -21.3160  -12.5410 O.2     1  UNL1       -0.2670
     18  S         16.6900  -24.2390   -7.1740 S.O2    1  UNL1        0.2450
     19  O         15.6530  -24.8380   -7.9840 O.2     1  UNL1       -0.2060
     20  O         17.2870  -24.9260   -6.0480 O.2     1  UNL1       -0.2060
     21  N         16.1920  -22.7100   -6.6010 N.pl3   1  UNL1       -0.1810
     22  H         16.2280  -22.0700   -7.3970 H       1  UNL1        0.1460
     23  C         16.9910  -22.2110   -5.5200 C.2     1  UNL1        0.0220
     24  C         18.1280  -21.4440   -5.7830 C.2     1  UNL1        0.0240
     25  C         18.9230  -21.0000   -4.7250 C.2     1  UNL1        0.0020
     26  C         18.5890  -21.3340   -3.4130 C.2     1  UNL1        0.0000
     27  C         17.4650  -22.1180   -3.1550 C.2     1  UNL1        0.0020
     28  C         16.6690  -22.5640   -4.2110 C.2     1  UNL1        0.0240
@<TRIPOS>BOND
     1    14    15    2
     2    14    13    1
     3    15    12    1
     4    13    11    2
     5    12    16    1
     6    12     9    2
     7    17    16    2
     8    11     9    1
     9    16     7   am
    10     9     8    1
    11     7     8   am
    12     7     1    1
    13     8    10    2
    14     6     1    2
    15     6     5    1
    16     1     2    1
    17     5     4    2
    18     2     3    2
    19     4     3    1
    20     4    18    1
    21    19    18    2
    22    22    21    1
    23    18    21    1
    24    18    20    2
    25    21    23    1
    26    24    23    2
    27    24    25    1
    28    23    28    1
    29    25    26    2
    30    28    27    2
    31    26    27    1
