@<TRIPOS>MOLECULE
57023_out_ligand_01.pdbqt
 34 37 0 0 0
SMALL
GASTEIGER

@<TRIPOS>ATOM
      1  C         22.1290  -22.8400   -9.0640 C.2     1  UNL1        0.0320
      2  C         21.4330  -22.0400   -8.1500 C.2     1  UNL1        0.0170
      3  C         20.2830  -22.5300   -7.5240 C.2     1  UNL1        0.0090
      4  C         19.8140  -23.8220   -7.8110 C.2     1  UNL1       -0.0440
      5  C         20.5550  -24.6410   -8.6740 C.2     1  UNL1        0.0090
      6  C         21.7060  -24.1520   -9.2980 C.2     1  UNL1        0.0170
      7  C         18.5300  -24.3310   -7.1890 C.3     1  UNL1        0.1530
      8  N         17.4940  -23.2740   -6.9920 N.pl3   1  UNL1       -0.1510
      9  C         16.9950  -23.2230   -5.6490 C.2     1  UNL1        0.1190
     10  C         17.4350  -22.2340   -4.7800 C.2     1  UNL1        0.0450
     11  C         16.8770  -22.1750   -3.5060 C.2     1  UNL1        0.0050
     12  C         15.8960  -23.0940   -3.1530 C.2     1  UNL1        0.0190
     13  C         15.5110  -24.0340   -4.0940 C.2     1  UNL1        0.1180
     14  N         16.0430  -24.1230   -5.3330 N.2     1  UNL1       -0.2480
     15  S         16.1930  -23.3050   -8.1120 S.O2    1  UNL1        0.2490
     16  O         15.8930  -24.6830   -8.4540 O.2     1  UNL1       -0.2050
     17  O         15.1470  -22.4090   -7.6600 O.2     1  UNL1       -0.2050
     18  C         16.8660  -22.5250   -9.5660 C.2     1  UNL1        0.0750
     19  C         17.8810  -23.1800  -10.2770 C.2     1  UNL1        0.0250
     20  C         18.4440  -22.5650  -11.3970 C.2     1  UNL1        0.0020
     21  C         18.0030  -21.3020  -11.7950 C.2     1  UNL1        0.0000
     22  C         17.0080  -20.6420  -11.0690 C.2     1  UNL1        0.0020
     23  C         16.4410  -21.2490   -9.9470 C.2     1  UNL1        0.0250
     24  C         23.3090  -22.3320   -9.8150 C.2     1  UNL1        0.2510
     25  O         23.6340  -21.1510   -9.7360 O.2     1  UNL1       -0.2680
     26  N         24.0050  -23.2700  -10.5440 N.am    1  UNL1       -0.3530
     27  H         23.8040  -24.2470  -10.3880 H       1  UNL1        0.1630
     28  C         25.2740  -22.9690  -11.1700 C.3     1  UNL1        0.1610
     29  C         25.1030  -22.8970  -12.6660 C.2     1  UNL1       -0.0410
     30  C         25.4710  -23.9890  -13.4670 C.2     1  UNL1        0.0090
     31  C         25.2780  -23.9470  -14.8500 C.2     1  UNL1        0.0010
     32  C         24.7060  -22.8190  -15.4430 C.2     1  UNL1        0.0000
     33  C         24.3330  -21.7300  -14.6570 C.2     1  UNL1        0.0010
     34  C         24.5250  -21.7700  -13.2730 C.2     1  UNL1        0.0090
@<TRIPOS>BOND
     1    32    31    2
     2    32    33    1
     3    31    30    1
     4    33    34    2
     5    30    29    2
     6    34    29    1
     7    29    28    1
     8    21    20    2
     9    21    22    1
    10    20    19    1
    11    28    26    1
    12    22    23    2
    13    26    27    1
    14    26    24   am
    15    19    18    2
    16    23    18    1
    17    24    25    2
    18    24     1    1
    19    18    15    1
    20     6     1    2
    21     6     5    1
    22     1     2    1
    23     5     4    2
    24    16    15    2
    25     2     3    2
    26    15    17    2
    27    15     8    1
    28     4     3    1
    29     4     7    1
    30     7     8    1
    31     8     9    1
    32     9    14    2
    33     9    10    1
    34    14    13    1
    35    10    11    2
    36    13    12    2
    37    11    12    1
