@<TRIPOS>MOLECULE
57034_out_ligand_01.pdbqt
 33 37 0 0 0
SMALL
GASTEIGER

@<TRIPOS>ATOM
      1  C         19.8420  -22.3570   -8.2680 C.2     1  UNL1        0.0570
      2  C         21.0510  -22.6470   -7.6230 C.2     1  UNL1        0.0320
      3  C         22.2500  -22.6460   -8.3200 C.2     1  UNL1        0.0280
      4  C         22.2750  -22.3430   -9.6870 C.2     1  UNL1        0.0910
      5  C         21.0840  -21.9720  -10.3790 C.2     1  UNL1       -0.0000
      6  C         21.0290  -21.6050  -11.7510 C.2     1  UNL1        0.0140
      7  C         19.8540  -21.2030  -12.3840 C.2     1  UNL1        0.0010
      8  C         18.6820  -21.1390  -11.6610 C.2     1  UNL1        0.0010
      9  C         18.6910  -21.5040  -10.3170 C.2     1  UNL1        0.0140
     10  C         19.8540  -21.9660   -9.6460 C.2     1  UNL1        0.0030
     11  S         23.8950  -22.4050  -10.4510 S.O2    1  UNL1        0.2640
     12  O         24.3840  -21.0770  -10.7430 O.2     1  UNL1       -0.2000
     13  O         24.7140  -23.3070   -9.6640 O.2     1  UNL1       -0.2000
     14  N         23.5980  -23.2450  -11.8880 N.pl3   1  UNL1       -0.2810
     15  H         23.2060  -24.1670  -11.6990 H       1  UNL1        0.1790
     16  C         24.5220  -23.1280  -12.9580 C.2     1  UNL1        0.0430
     17  C         25.6120  -23.9980  -13.0050 C.2     1  UNL1        0.0300
     18  C         26.5230  -23.9140  -14.0580 C.2     1  UNL1        0.0040
     19  C         26.3460  -22.9580  -15.0580 C.2     1  UNL1        0.0190
     20  C         25.2560  -22.0890  -14.9980 C.2     1  UNL1        0.0130
     21 BR         25.0160  -20.7970  -16.3570 Br      1  UNL1       -0.0510
     22  C         24.3410  -22.1660  -13.9490 C.2     1  UNL1        0.0490
     23  N         18.6430  -22.4960   -7.5060 N.am    1  UNL1       -0.2430
     24  C         18.4100  -21.8610   -6.3040 C.2     1  UNL1        0.2660
     25  C         17.1290  -22.3550   -5.8060 C.2     1  UNL1        0.0480
     26  O         19.0640  -21.0340   -5.6950 O.2     1  UNL1       -0.2670
     27  C         16.4160  -22.0090   -4.6740 C.2     1  UNL1        0.0180
     28  C         16.6780  -23.3130   -6.6890 C.2     1  UNL1        0.0480
     29  C         15.2050  -22.6730   -4.4520 C.2     1  UNL1        0.0010
     30  C         14.7460  -23.6560   -5.3530 C.2     1  UNL1        0.0010
     31  C         15.4890  -23.9890   -6.4890 C.2     1  UNL1        0.0180
     32  C         17.6730  -23.4450   -7.7500 C.2     1  UNL1        0.2660
     33  O         17.5960  -24.3200   -8.5930 O.2     1  UNL1       -0.2670
@<TRIPOS>BOND
     1    21    20    1
     2    19    20    2
     3    19    18    1
     4    20    22    1
     5    18    17    2
     6    22    16    2
     7    17    16    1
     8    16    14    1
     9     7     6    2
    10     7     8    1
    11    14    15    1
    12    14    11    1
    13     6     5    1
    14     8     9    2
    15    12    11    2
    16    11     4    1
    17    11    13    2
    18     5     4    2
    19     5    10    1
    20     9    10    1
    21     4     3    1
    22    10     1    2
    23    33    32    2
    24     3     2    2
    25     1     2    1
    26     1    23    1
    27    32    23   am
    28    32    28    1
    29    23    24   am
    30    28    31    1
    31    28    25    2
    32    31    30    2
    33    24    25    1
    34    24    26    2
    35    25    27    1
    36    30    29    1
    37    27    29    2
