@<TRIPOS>MOLECULE
57039_out_ligand_01.pdbqt
 29 33 0 0 0
SMALL
GASTEIGER

@<TRIPOS>ATOM
      1  C         21.2250  -22.6290  -10.0310 C.2     1  UNL1        0.0340
      2  C         20.3550  -22.2270  -11.0450 C.2     1  UNL1        0.0190
      3  C         18.9950  -22.0880  -10.7620 C.2     1  UNL1        0.0350
      4  C         18.4880  -22.3470   -9.4950 C.ar    1  UNL1        0.0860
      5  N         17.1750  -22.1950   -9.2630 N.ar    1  UNL1       -0.2440
      6  C         16.7260  -22.4620   -8.0240 C.ar    1  UNL1        0.0870
      7  C         15.3720  -22.3120   -7.7720 C.2     1  UNL1        0.0350
      8  C         14.8350  -22.5690   -6.5140 C.2     1  UNL1        0.0140
      9  C         15.6610  -22.9890   -5.4700 C.2     1  UNL1       -0.0240
     10  C         15.1300  -23.2510   -4.1970 C.2     1  UNL1        0.0120
     11  C         15.9550  -23.6720   -3.1530 C.2     1  UNL1        0.0010
     12  C         17.3170  -23.8340   -3.3700 C.2     1  UNL1        0.0010
     13  C         17.8560  -23.5750   -4.6330 C.2     1  UNL1        0.0140
     14  C         17.0480  -23.1490   -5.7090 C.2     1  UNL1        0.0050
     15  C         17.5880  -22.8860   -6.9870 C.ar    1  UNL1        0.0970
     16  N         18.9130  -23.0310   -7.2390 N.ar    1  UNL1       -0.2440
     17  C         19.3660  -22.7690   -8.4770 C.ar    1  UNL1        0.0870
     18  C         20.7180  -22.9100   -8.7580 C.2     1  UNL1        0.0510
     19  C         22.6840  -22.8030  -10.2710 C.2     1  UNL1        0.2560
     20  O         23.3480  -23.3510   -9.4020 O.2     1  UNL1       -0.2670
     21  N         23.1440  -22.2800  -11.4660 N.am    1  UNL1       -0.3230
     22  H         22.4890  -21.7380  -12.0150 H       1  UNL1        0.1690
     23  C         24.4610  -22.3360  -11.9720 C.2     1  UNL1        0.0360
     24  C         25.3760  -21.3970  -11.4720 C.2     1  UNL1        0.0290
     25  C         26.6980  -21.3770  -11.9210 C.2     1  UNL1        0.0040
     26  C         27.1210  -22.2950  -12.8790 C.2     1  UNL1        0.0190
     27  C         26.2140  -23.2260  -13.3820 C.2     1  UNL1        0.0130
     28 BR         26.7880  -24.4700  -14.6870 Br      1  UNL1       -0.0510
     29  C         24.8900  -23.2510  -12.9360 C.2     1  UNL1        0.0480
@<TRIPOS>BOND
     1    28    27    1
     2    27    29    1
     3    27    26    2
     4    29    23    2
     5    26    25    1
     6    22    21    1
     7    23    24    1
     8    23    21    1
     9    25    24    2
    10    21    19   am
    11     2     3    1
    12     2     1    2
    13     3     4    2
    14    19     1    1
    15    19    20    2
    16     1    18    1
    17     4     5   ar
    18     4    17   ar
    19     5     6   ar
    20    18    17    2
    21    17    16   ar
    22     6     7    1
    23     6    15   ar
    24     7     8    2
    25    16    15   ar
    26    15    14    1
    27     8     9    1
    28    14     9    2
    29    14    13    1
    30     9    10    1
    31    13    12    2
    32    10    11    2
    33    12    11    1
