@<TRIPOS>MOLECULE
57035_out_ligand_01.pdbqt
 35 39 0 0 0
SMALL
GASTEIGER

@<TRIPOS>ATOM
      1  C         22.0760  -22.1610   -9.5810 C.2     1  UNL1        0.0910
      2  C         22.1040  -22.3800   -8.2010 C.2     1  UNL1        0.0280
      3  C         20.9200  -22.4180   -7.4790 C.2     1  UNL1        0.0320
      4  C         19.6810  -22.2500   -8.1140 C.2     1  UNL1        0.0570
      5  C         19.6420  -21.9270   -9.5100 C.2     1  UNL1        0.0030
      6  C         18.4440  -21.5700  -10.1820 C.2     1  UNL1        0.0140
      7  C         18.3960  -21.2730  -11.5430 C.2     1  UNL1        0.0010
      8  C         19.5580  -21.2990  -12.2830 C.2     1  UNL1        0.0010
      9  C         20.7650  -21.5980  -11.6540 C.2     1  UNL1        0.0140
     10  C         20.8560  -21.8960  -10.2660 C.2     1  UNL1       -0.0000
     11  S         23.6530  -22.2820  -10.4280 S.O2    1  UNL1        0.2640
     12  O         24.4080  -23.3670   -9.8350 O.2     1  UNL1       -0.2000
     13  O         24.2330  -20.9590  -10.5190 O.2     1  UNL1       -0.2000
     14  N         23.2030  -22.7400  -11.9980 N.pl3   1  UNL1       -0.2810
     15  H         22.8460  -23.6940  -12.0310 H       1  UNL1        0.1790
     16  C         24.0190  -22.3110  -13.0840 C.2     1  UNL1        0.0420
     17  C         25.2310  -22.9340  -13.3530 C.2     1  UNL1        0.0320
     18  C         25.9900  -22.5470  -14.4660 C.2     1  UNL1        0.0310
     19  C         25.5630  -21.5280  -15.3330 C.2     1  UNL1        0.0290
     20  C         24.3250  -20.9280  -15.0400 C.2     1  UNL1        0.0310
     21  C         23.5610  -21.3060  -13.9280 C.2     1  UNL1        0.0320
     22  N         26.2890  -21.1330  -16.4700 N.pl3   1  UNL1       -0.3900
     23  C         26.8830  -22.2430  -17.2250 C.3     1  UNL1        0.1490
     24  C         25.7390  -20.0660  -17.3060 C.3     1  UNL1        0.1490
     25  N         18.5090  -22.4510   -7.3260 N.am    1  UNL1       -0.2430
     26  C         17.5860  -23.4530   -7.5480 C.2     1  UNL1        0.2660
     27  O         17.5270  -24.3240   -8.3970 O.2     1  UNL1       -0.2670
     28  C         16.6150  -23.3820   -6.4610 C.2     1  UNL1        0.0480
     29  C         15.4750  -24.1280   -6.2300 C.2     1  UNL1        0.0180
     30  C         17.0310  -22.3990   -5.5890 C.2     1  UNL1        0.0480
     31  C         14.7440  -23.8410   -5.0730 C.2     1  UNL1        0.0010
     32  C         15.1680  -22.8330   -4.1840 C.2     1  UNL1        0.0010
     33  C         16.3300  -22.0980   -4.4370 C.2     1  UNL1        0.0180
     34  C         18.2660  -21.8280   -6.1200 C.2     1  UNL1        0.2660
     35  O         18.8770  -20.9560   -5.5300 O.2     1  UNL1       -0.2670
@<TRIPOS>BOND
     1    24    22    1
     2    23    22    1
     3    22    19    1
     4    19    20    2
     5    19    18    1
     6    20    21    1
     7    18    17    2
     8    21    16    2
     9    17    16    1
    10    16    14    1
    11     8     9    2
    12     8     7    1
    13    15    14    1
    14    14    11    1
    15     9    10    1
    16     7     6    2
    17    13    11    2
    18    11    12    2
    19    11     1    1
    20    10     1    2
    21    10     5    1
    22     6     5    1
    23     1     2    1
    24     5     4    2
    25    27    26    2
    26     2     3    2
    27     4     3    1
    28     4    25    1
    29    26    25   am
    30    26    28    1
    31    25    34   am
    32    28    29    2
    33    28    30    1
    34    29    31    1
    35    34    30    1
    36    34    35    2
    37    30    33    2
    38    31    32    2
    39    33    32    1
