@<TRIPOS>MOLECULE
57036_out_ligand_01.pdbqt
 33 37 0 0 0
SMALL
GASTEIGER

@<TRIPOS>ATOM
      1  C         20.4580  -22.7420   -9.8010 C.2     1  UNL1        0.0570
      2  C         20.5780  -23.7730   -8.8560 C.2     1  UNL1        0.0320
      3  C         19.4760  -24.2220   -8.1420 C.2     1  UNL1        0.0280
      4  C         18.2190  -23.6560   -8.3680 C.2     1  UNL1        0.0860
      5  C         18.0250  -22.6530   -9.3570 C.2     1  UNL1       -0.0010
      6  C         16.7590  -22.0860   -9.6660 C.2     1  UNL1        0.0140
      7  C         16.5850  -21.1410  -10.6760 C.2     1  UNL1        0.0010
      8  C         17.6730  -20.7420  -11.4230 C.2     1  UNL1        0.0010
      9  C         18.9320  -21.2720  -11.1430 C.2     1  UNL1        0.0140
     10  C         19.1630  -22.2010  -10.0950 C.2     1  UNL1        0.0030
     11  S         16.8760  -24.2730   -7.3580 S.O2    1  UNL1        0.2460
     12  O         15.8890  -24.8570   -8.2380 O.2     1  UNL1       -0.2060
     13  O         17.4510  -25.0310   -6.2640 O.2     1  UNL1       -0.2060
     14  N         16.2750  -22.8290   -6.6730 N.pl3   1  UNL1       -0.1780
     15  H         16.2480  -22.1190   -7.4120 H       1  UNL1        0.1460
     16  C         17.0450  -22.3490   -5.5560 C.2     1  UNL1        0.0610
     17  C         18.1720  -21.5520   -5.7510 C.2     1  UNL1        0.0270
     18  C         18.8840  -21.0750   -4.6480 C.2     1  UNL1        0.0020
     19  C         18.4720  -21.3920   -3.3510 C.2     1  UNL1        0.0030
     20  C         17.3440  -22.1880   -3.1530 C.2     1  UNL1        0.0440
     21  C         16.6380  -22.6590   -4.2550 C.2     1  UNL1        0.1380
     22  F         15.5590  -23.4330   -4.0650 F       1  UNL1       -0.2040
     23  N         21.6580  -22.2680  -10.4100 N.am    1  UNL1       -0.2430
     24  C         22.8490  -22.0760   -9.7410 C.2     1  UNL1        0.2660
     25  C         23.8380  -21.6860  -10.7410 C.2     1  UNL1        0.0480
     26  O         23.1540  -22.2450   -8.5740 O.2     1  UNL1       -0.2670
     27  C         25.1680  -21.3400  -10.5960 C.2     1  UNL1        0.0180
     28  C         23.2290  -21.7390  -11.9760 C.2     1  UNL1        0.0480
     29  C         25.8800  -21.0310  -11.7590 C.2     1  UNL1        0.0010
     30  C         25.2550  -21.0810  -13.0230 C.2     1  UNL1        0.0010
     31  C         23.9110  -21.4430  -13.1420 C.2     1  UNL1        0.0180
     32  C         21.8440  -22.1530  -11.7710 C.2     1  UNL1        0.2660
     33  O         21.0760  -22.3240  -12.7020 O.2     1  UNL1       -0.2670
@<TRIPOS>BOND
     1    31    30    2
     2    31    28    1
     3    30    29    1
     4    33    32    2
     5    28    32    1
     6    28    25    2
     7    32    23   am
     8    29    27    2
     9     8     9    2
    10     8     7    1
    11     9    10    1
    12    25    27    1
    13    25    24    1
    14     7     6    2
    15    23     1    1
    16    23    24   am
    17    10     1    2
    18    10     5    1
    19     1     2    1
    20    24    26    2
    21     6     5    1
    22     5     4    2
    23     2     3    2
    24     4     3    1
    25     4    11    1
    26    12    11    2
    27    15    14    1
    28    11    14    1
    29    11    13    2
    30    14    16    1
    31    17    16    2
    32    17    18    1
    33    16    21    1
    34    18    19    2
    35    21    22    1
    36    21    20    2
    37    19    20    1
