@<TRIPOS>MOLECULE
57033_out_ligand_01.pdbqt
 33 37 0 0 0
SMALL
GASTEIGER

@<TRIPOS>ATOM
      1  C         19.7660  -22.3670   -8.2110 C.2     1  UNL1        0.0570
      2  C         21.0020  -22.6430   -7.6040 C.2     1  UNL1        0.0320
      3  C         22.1850  -22.6000   -8.3280 C.2     1  UNL1        0.0280
      4  C         22.1610  -22.2740   -9.6870 C.2     1  UNL1        0.0860
      5  C         20.9450  -21.9360  -10.3450 C.2     1  UNL1       -0.0010
      6  C         20.8710  -21.5530  -11.7120 C.2     1  UNL1        0.0140
      7  C         19.6790  -21.1660  -12.3220 C.2     1  UNL1        0.0010
      8  C         18.5180  -21.1350  -11.5800 C.2     1  UNL1        0.0010
      9  C         18.5510  -21.5160  -10.2380 C.2     1  UNL1        0.0140
     10  C         19.7330  -21.9630   -9.5880 C.2     1  UNL1        0.0030
     11  S         23.7390  -22.2800  -10.5320 S.O2    1  UNL1        0.2460
     12  O         24.5670  -23.3080   -9.9310 O.2     1  UNL1       -0.2060
     13  O         24.2010  -20.9140  -10.6440 O.2     1  UNL1       -0.2060
     14  N         23.2920  -22.8880  -12.0660 N.pl3   1  UNL1       -0.1810
     15  H         23.3430  -23.9080  -12.0090 H       1  UNL1        0.1460
     16  C         24.1100  -22.4010  -13.1380 C.2     1  UNL1        0.0220
     17  C         23.6160  -21.4370  -14.0220 C.2     1  UNL1        0.0260
     18  C         24.4100  -20.9960  -15.0830 C.2     1  UNL1        0.0210
     19  C         25.6870  -21.5330  -15.2620 C.2     1  UNL1        0.0110
     20 BR         26.7640  -20.9310  -16.6950 Br      1  UNL1       -0.0510
     21  C         26.1740  -22.5110  -14.3940 C.2     1  UNL1        0.0210
     22  C         25.3800  -22.9500  -13.3300 C.2     1  UNL1        0.0260
     23  N         18.5920  -22.5210   -7.4130 N.am    1  UNL1       -0.2430
     24  C         17.6210  -23.4790   -7.6220 C.2     1  UNL1        0.2660
     25  C         16.6430  -23.3340   -6.5470 C.2     1  UNL1        0.0480
     26  O         17.5290  -24.3670   -8.4510 O.2     1  UNL1       -0.2670
     27  C         15.4570  -24.0070   -6.3190 C.2     1  UNL1        0.0180
     28  C         17.1090  -22.3630   -5.6860 C.2     1  UNL1        0.0480
     29  C         14.7300  -23.6540   -5.1770 C.2     1  UNL1        0.0010
     30  C         15.2060  -22.6600   -4.2980 C.2     1  UNL1        0.0010
     31  C         16.4140  -22.0000   -4.5480 C.2     1  UNL1        0.0180
     32  C         18.3790  -21.8730   -6.2140 C.2     1  UNL1        0.2660
     33  O         19.0430  -21.0390   -5.6240 O.2     1  UNL1       -0.2670
@<TRIPOS>BOND
     1    20    19    1
     2    19    18    2
     3    19    21    1
     4    18    17    1
     5    21    22    2
     6    17    16    2
     7    22    16    1
     8    16    14    1
     9     7     6    2
    10     7     8    1
    11    14    15    1
    12    14    11    1
    13     6     5    1
    14     8     9    2
    15    13    11    2
    16    11    12    2
    17    11     4    1
    18     5     4    2
    19     5    10    1
    20     9    10    1
    21     4     3    1
    22    10     1    2
    23    26    24    2
    24     3     2    2
    25     1     2    1
    26     1    23    1
    27    24    23   am
    28    24    25    1
    29    23    32   am
    30    25    27    2
    31    25    28    1
    32    27    29    1
    33    32    28    1
    34    32    33    2
    35    28    31    2
    36    29    30    2
    37    31    30    1
