@<TRIPOS>MOLECULE
57032_out_ligand_01.pdbqt
 29 32 0 0 0
SMALL
GASTEIGER

@<TRIPOS>ATOM
      1  C         20.5440  -23.0720   -9.8320 C.2     1  UNL1        0.0460
      2  C         19.3630  -22.3310  -10.0240 C.2     1  UNL1        0.0320
      3  C         18.1890  -22.6120   -9.3110 C.2     1  UNL1        0.0270
      4  C         18.1750  -23.6550   -8.3920 C.2     1  UNL1        0.0800
      5  C         19.3290  -24.3990   -8.1630 C.2     1  UNL1        0.0270
      6  C         20.4970  -24.1090   -8.8830 C.2     1  UNL1        0.0320
      7  S         16.7080  -24.0100   -7.4640 S.O2    1  UNL1        0.2630
      8  O         17.0180  -24.9900   -6.4460 O.2     1  UNL1       -0.2000
      9  O         15.6480  -24.2450   -8.4240 O.2     1  UNL1       -0.2000
     10  N         16.3370  -22.5350   -6.7260 N.pl3   1  UNL1       -0.2780
     11  H         15.3290  -22.3930   -6.7010 H       1  UNL1        0.1790
     12  C         17.0830  -22.1750   -5.5630 C.2     1  UNL1        0.0810
     13  C         18.2350  -21.4010   -5.7100 C.2     1  UNL1        0.0330
     14  C         18.9500  -20.9900   -4.5810 C.2     1  UNL1        0.0020
     15  C         18.5090  -21.3430   -3.3030 C.2     1  UNL1        0.0030
     16  C         17.3520  -22.1060   -3.1530 C.2     1  UNL1        0.0440
     17  C         16.6430  -22.5110   -4.2800 C.2     1  UNL1        0.1430
     18  F         15.5460  -23.2630   -4.1120 F       1  UNL1       -0.2040
     19  N         21.7400  -22.7820  -10.5670 N.am    1  UNL1       -0.2440
     20  C         23.0230  -23.0750  -10.1440 C.2     1  UNL1        0.2660
     21  C         23.9400  -22.6160  -11.1820 C.2     1  UNL1        0.0480
     22  O         23.4540  -23.6050   -9.1340 O.2     1  UNL1       -0.2670
     23  C         25.3190  -22.6730  -11.2480 C.2     1  UNL1        0.0180
     24  C         23.1860  -22.0620  -12.1890 C.2     1  UNL1        0.0480
     25  C         25.9310  -22.1430  -12.3880 C.2     1  UNL1        0.0010
     26  C         25.1590  -21.5760  -13.4210 C.2     1  UNL1        0.0010
     27  C         23.7640  -21.5300  -13.3280 C.2     1  UNL1        0.0180
     28  C         21.7830  -22.1640  -11.8040 C.2     1  UNL1        0.2660
     29  O         20.9100  -21.7380  -12.5380 O.2     1  UNL1       -0.2670
@<TRIPOS>BOND
     1    26    27    2
     2    26    25    1
     3    27    24    1
     4    29    28    2
     5    25    23    2
     6    24    28    1
     7    24    21    2
     8    28    19   am
     9    23    21    1
    10    21    20    1
    11    19    20   am
    12    19     1    1
    13    20    22    2
    14     2     1    2
    15     2     3    1
    16     1     6    1
    17     3     4    2
    18     6     5    2
    19     9     7    2
    20     4     5    1
    21     4     7    1
    22     7    10    1
    23     7     8    2
    24    10    11    1
    25    10    12    1
    26    13    12    2
    27    13    14    1
    28    12    17    1
    29    14    15    2
    30    17    18    1
    31    17    16    2
    32    15    16    1
