@<TRIPOS>MOLECULE
57042_out_ligand_01.pdbqt
 28 31 0 0 0
SMALL
GASTEIGER

@<TRIPOS>ATOM
      1  C         21.8870  -21.9580   -9.8350 C.2     1  UNL1        0.0320
      2  C         20.5770  -21.9580  -10.3120 C.2     1  UNL1        0.0190
      3  C         19.5040  -22.1590   -9.4290 C.2     1  UNL1        0.0310
      4  C         19.7030  -22.3730   -8.0530 C.2     1  UNL1        0.0460
      5  C         21.0340  -22.3900   -7.6040 C.2     1  UNL1        0.0310
      6  C         22.1120  -22.1910   -8.4790 C.2     1  UNL1        0.0190
      7  C         23.0580  -21.7510  -10.7330 C.2     1  UNL1        0.2560
      8  O         24.0680  -21.2450  -10.2600 O.2     1  UNL1       -0.2670
      9  N         22.8560  -22.1300  -12.0480 N.am    1  UNL1       -0.3230
     10  H         21.9190  -22.4070  -12.3080 H       1  UNL1        0.1690
     11  C         23.7920  -22.0880  -13.1030 C.2     1  UNL1        0.0350
     12  C         23.5930  -21.1190  -14.0970 C.2     1  UNL1        0.0310
     13  C         24.4710  -21.0130  -15.1790 C.2     1  UNL1        0.0210
     14  C         25.5560  -21.8810  -15.2740 C.2     1  UNL1        0.0110
     15 BR         26.7450  -21.7420  -16.7350 Br      1  UNL1       -0.0510
     16  C         25.7650  -22.8490  -14.2970 C.2     1  UNL1        0.0210
     17  C         24.8830  -22.9530  -13.2150 C.2     1  UNL1        0.0310
     18  N         18.6030  -22.5740   -7.1580 N.am    1  UNL1       -0.2440
     19  C         17.5350  -23.4220   -7.3880 C.2     1  UNL1        0.2660
     20  O         17.2550  -24.1480   -8.3260 O.2     1  UNL1       -0.2670
     21  C         16.6500  -23.3310   -6.2330 C.2     1  UNL1        0.0480
     22  C         15.4560  -23.9760   -5.9660 C.2     1  UNL1        0.0180
     23  C         17.2030  -22.4320   -5.3510 C.2     1  UNL1        0.0480
     24  C         14.8230  -23.6800   -4.7550 C.2     1  UNL1        0.0010
     25  C         15.3900  -22.7590   -3.8520 C.2     1  UNL1        0.0010
     26  C         16.5990  -22.1210   -4.1470 C.2     1  UNL1        0.0180
     27  C         18.4470  -21.9430   -5.9370 C.2     1  UNL1        0.2660
     28  O         19.1270  -21.1230   -5.3460 O.2     1  UNL1       -0.2670
@<TRIPOS>BOND
     1    15    14    1
     2    14    13    2
     3    14    16    1
     4    13    12    1
     5    16    17    2
     6    12    11    2
     7    17    11    1
     8    11     9    1
     9    10     9    1
    10     9     7   am
    11     7     8    2
    12     7     1    1
    13     2     1    2
    14     2     3    1
    15     1     6    1
    16     3     4    2
    17     6     5    2
    18    20    19    2
    19     4     5    1
    20     4    18    1
    21    19    18   am
    22    19    21    1
    23    18    27   am
    24    21    22    2
    25    21    23    1
    26    22    24    1
    27    27    23    1
    28    27    28    2
    29    23    26    2
    30    24    25    2
    31    26    25    1
