@<TRIPOS>MOLECULE
57041_out_ligand_01.pdbqt
 27 30 0 0 0
SMALL
GASTEIGER

@<TRIPOS>ATOM
      1  C         21.9300  -21.9820   -9.8120 C.2     1  UNL1        0.0320
      2  C         22.1510  -22.1200   -8.4430 C.2     1  UNL1        0.0190
      3  C         21.0740  -22.3130   -7.5650 C.2     1  UNL1        0.0310
      4  C         19.7470  -22.3640   -8.0220 C.2     1  UNL1        0.0460
      5  C         19.5480  -22.2000   -9.4050 C.2     1  UNL1        0.0310
      6  C         20.6200  -22.0070  -10.2910 C.2     1  UNL1        0.0190
      7  N         18.6480  -22.5640   -7.1250 N.am    1  UNL1       -0.2440
      8  C         18.4820  -21.9130   -5.9150 C.2     1  UNL1        0.2660
      9  O         19.1540  -21.0790   -5.3350 O.2     1  UNL1       -0.2670
     10  C         17.2410  -22.4030   -5.3260 C.2     1  UNL1        0.0480
     11  C         16.6230  -22.0710   -4.1340 C.2     1  UNL1        0.0180
     12  C         16.7040  -23.3310   -6.1880 C.2     1  UNL1        0.0480
     13  C         15.4210  -22.7180   -3.8300 C.2     1  UNL1        0.0010
     14  C         14.8730  -23.6690   -4.7130 C.2     1  UNL1        0.0010
     15  C         15.5180  -23.9870   -5.9130 C.2     1  UNL1        0.0180
     16  C         17.6010  -23.4420   -7.3340 C.2     1  UNL1        0.2660
     17  O         17.3530  -24.2180   -8.2390 O.2     1  UNL1       -0.2670
     18  C         23.0990  -21.7780  -10.7140 C.2     1  UNL1        0.2560
     19  O         24.1060  -21.2620  -10.2450 O.2     1  UNL1       -0.2670
     20  N         22.9240  -22.2410  -12.0050 N.am    1  UNL1       -0.3230
     21  H         22.0800  -22.7640  -12.1960 H       1  UNL1        0.1690
     22  C         23.8350  -22.1490  -13.0790 C.2     1  UNL1        0.0350
     23  C         24.9430  -22.9820  -13.2370 C.2     1  UNL1        0.0290
     24  C         25.8030  -22.8190  -14.3280 C.2     1  UNL1        0.0020
     25  C         25.5620  -21.8220  -15.2710 C.2     1  UNL1        0.0000
     26  C         24.4610  -20.9840  -15.1210 C.2     1  UNL1        0.0020
     27  C         23.6030  -21.1460  -14.0300 C.2     1  UNL1        0.0290
@<TRIPOS>BOND
     1    25    26    2
     2    25    24    1
     3    26    27    1
     4    24    23    2
     5    27    22    2
     6    23    22    1
     7    22    20    1
     8    21    20    1
     9    20    18   am
    10    18    19    2
    11    18     1    1
    12     6     1    2
    13     6     5    1
    14     1     2    1
    15     5     4    2
    16     2     3    2
    17    17    16    2
    18     4     3    1
    19     4     7    1
    20    16     7   am
    21    16    12    1
    22     7     8   am
    23    12    15    1
    24    12    10    2
    25     8     9    2
    26     8    10    1
    27    15    14    2
    28    10    11    1
    29    14    13    1
    30    11    13    2
