@<TRIPOS>MOLECULE
57043_out_ligand_01.pdbqt
 36 39 0 0 0
SMALL
GASTEIGER

@<TRIPOS>ATOM
      1  N         24.6260  -23.1580  -10.5750 N.1     1  UNL1       -0.1910
      2  C         24.0050  -22.5970  -11.3790 C.1     1  UNL1        0.1030
      3  C         23.2770  -21.8850  -12.3810 C.2     1  UNL1        0.0920
      4  C         21.9320  -21.7850  -12.4200 C.2     1  UNL1        0.1210
      5  C         24.0810  -21.3880  -13.4680 C.ar    1  UNL1        0.1230
      6  N         23.7820  -21.5960  -14.7600 N.ar    1  UNL1       -0.1680
      7  N         24.7900  -21.0020  -15.4360 N.ar    1  UNL1       -0.2500
      8  C         25.6810  -20.3420  -14.6190 C.ar    1  UNL1        0.1410
      9  C         25.2560  -20.6010  -13.3340 C.ar    1  UNL1        0.1210
     10  C         25.8730  -20.1520  -12.1320 C.1     1  UNL1        0.1060
     11  N         26.3480  -19.7790  -11.1410 N.1     1  UNL1       -0.1910
     12  C         24.8620  -21.1570  -16.8800 C.3     1  UNL1        0.1790
     13  C         24.9010  -22.6200  -17.3040 C.3     1  UNL1        0.1860
     14  O         23.5790  -23.1640  -17.3790 O.3     1  UNL1       -0.3990
     15  H         22.9870  -22.4220  -17.6080 H       1  UNL1        0.2090
     16  N         26.7210  -19.6280  -15.1120 N.pl3   1  UNL1       -0.3830
     17  H         27.2540  -19.0250  -14.4700 H       1  UNL1        0.1570
     18  H         27.3310  -20.0300  -15.8230 H       1  UNL1        0.1570
     19  N         20.9460  -22.1720  -11.5030 N.pl3   1  UNL1       -0.3300
     20  C         21.1970  -23.1140  -10.5210 C.2     1  UNL1        0.1050
     21  C         20.1330  -23.1880   -9.6450 C.2     1  UNL1       -0.0250
     22  C         19.1050  -22.3730  -10.2070 C.2     1  UNL1       -0.0010
     23  C         17.7710  -22.1070   -9.8300 C.2     1  UNL1        0.0140
     24  C         19.6050  -21.8030  -11.3890 C.2     1  UNL1        0.0490
     25  C         16.9520  -21.3250  -10.6460 C.2     1  UNL1        0.0010
     26  C         17.4370  -20.8270  -11.8460 C.2     1  UNL1        0.0020
     27  C         18.7550  -21.0710  -12.2410 C.2     1  UNL1        0.0310
     28  C         20.0660  -24.0320   -8.4080 C.3     1  UNL1        0.0810
     29  C         19.5760  -23.1440   -7.2820 C.2     1  UNL1       -0.0320
     30  C         20.2970  -21.9760   -6.9570 C.2     1  UNL1        0.0110
     31  C         19.8880  -21.1350   -5.9190 C.2     1  UNL1        0.0240
     32  C         18.7570  -21.4570   -5.1790 C.2     1  UNL1        0.0350
     33 CL         18.2530  -20.4260   -3.8970 Cl      1  UNL1       -0.0840
     34  C         18.0380  -22.6140   -5.4590 C.2     1  UNL1        0.0480
     35  C         18.4470  -23.4560   -6.4990 C.2     1  UNL1        0.0420
     36 CL         17.5200  -24.8960   -6.7410 Cl      1  UNL1       -0.0840
@<TRIPOS>BOND
     1    15    14    1
     2    14    13    1
     3    13    12    1
     4    12     7    1
     5    18    16    1
     6     7     6   ar
     7     7     8   ar
     8    16     8    1
     9    16    17    1
    10     6     5   ar
    11     8     9   ar
    12     5     9   ar
    13     5     3    1
    14     9    10    1
    15     4     3    2
    16     4    19    1
    17     3     2    1
    18    27    26    2
    19    27    24    1
    20    10    11    3
    21    26    25    1
    22    19    24    1
    23    19    20    1
    24    24    22    2
    25     2     1    3
    26    25    23    2
    27    20    21    2
    28    22    23    1
    29    22    21    1
    30    21    28    1
    31    28    29    1
    32    29    30    2
    33    29    35    1
    34    30    31    1
    35    36    35    1
    36    35    34    2
    37    31    32    2
    38    34    32    1
    39    32    33    1
