@<TRIPOS>MOLECULE
57045_out_ligand_01.pdbqt
 28 31 0 0 0
SMALL
GASTEIGER

@<TRIPOS>ATOM
      1  C         21.1770  -22.3190  -10.6110 C.2     1  UNL1        0.0320
      2  C         19.8320  -21.9860  -10.7660 C.2     1  UNL1        0.0190
      3  C         18.9450  -22.0980   -9.6850 C.2     1  UNL1        0.0310
      4  C         19.3660  -22.5530   -8.4240 C.2     1  UNL1        0.0460
      5  C         20.7220  -22.9040   -8.3010 C.2     1  UNL1        0.0310
      6  C         21.6190  -22.7930   -9.3760 C.2     1  UNL1        0.0190
      7  C         22.0900  -22.1860  -11.7830 C.2     1  UNL1        0.2560
      8  O         21.6570  -21.6480  -12.7940 O.2     1  UNL1       -0.2670
      9  N         23.3720  -22.6650  -11.5780 N.am    1  UNL1       -0.3230
     10  H         23.6070  -22.9560  -10.6390 H       1  UNL1        0.1690
     11  C         24.4290  -22.7070  -12.5140 C.2     1  UNL1        0.0360
     12  C         24.8610  -23.8730  -13.1500 C.2     1  UNL1        0.0290
     13  C         25.9210  -23.8350  -14.0620 C.2     1  UNL1        0.0040
     14  C         26.5610  -22.6300  -14.3450 C.2     1  UNL1        0.0190
     15  C         26.1360  -21.4680  -13.7110 C.2     1  UNL1        0.0130
     16 BR         27.0000  -19.8270  -14.0840 Br      1  UNL1       -0.0510
     17  C         25.0780  -21.4990  -12.7980 C.2     1  UNL1        0.0480
     18  N         18.4590  -22.6650   -7.3210 N.am    1  UNL1       -0.2440
     19  C         18.5780  -21.9860   -6.1220 C.2     1  UNL1        0.2660
     20  O         19.3970  -21.1800   -5.7180 O.2     1  UNL1       -0.2670
     21  C         17.4560  -22.3880   -5.2810 C.2     1  UNL1        0.0480
     22  C         17.1180  -22.0050   -3.9960 C.2     1  UNL1        0.0180
     23  C         16.6970  -23.2840   -5.9970 C.2     1  UNL1        0.0480
     24  C         15.9640  -22.5670   -3.4410 C.2     1  UNL1        0.0010
     25  C         15.1870  -23.4850   -4.1750 C.2     1  UNL1        0.0010
     26  C         15.5520  -23.8540   -5.4720 C.2     1  UNL1        0.0180
     27  C         17.3290  -23.4620   -7.2990 C.2     1  UNL1        0.2660
     28  O         16.8380  -24.2090   -8.1260 O.2     1  UNL1       -0.2670
@<TRIPOS>BOND
     1    14    13    2
     2    14    15    1
     3    16    15    1
     4    13    12    1
     5    15    17    2
     6    12    11    2
     7    17    11    1
     8     8     7    2
     9    11     9    1
    10     7     9   am
    11     7     1    1
    12     9    10    1
    13     2     1    2
    14     2     3    1
    15     1     6    1
    16     3     4    2
    17     6     5    2
    18     4     5    1
    19     4    18    1
    20    28    27    2
    21    18    27   am
    22    18    19   am
    23    27    23    1
    24    19    20    2
    25    19    21    1
    26    23    26    1
    27    23    21    2
    28    26    25    2
    29    21    22    1
    30    25    24    1
    31    22    24    2
