@<TRIPOS>MOLECULE
57054_out_ligand_01.pdbqt
 28 30 0 0 0
SMALL
GASTEIGER

@<TRIPOS>ATOM
      1  N         20.7160  -25.5140   -8.6600 N.1     1  UNL1       -0.1910
      2  C         20.4480  -24.4350   -8.9910 C.1     1  UNL1        0.1020
      3  C         20.1500  -23.1040   -9.4240 C.2     1  UNL1        0.0770
      4  C         19.1320  -22.4000   -8.8850 C.2     1  UNL1        0.0370
      5  C         20.9390  -22.5720  -10.5090 C.ar    1  UNL1        0.1220
      6  N         22.2310  -22.8990  -10.6870 N.ar    1  UNL1       -0.1680
      7  N         22.6160  -22.1950  -11.7720 N.ar    1  UNL1       -0.2500
      8  C         21.6000  -21.4560  -12.3340 C.ar    1  UNL1        0.1410
      9  C         20.4970  -21.6940  -11.5380 C.ar    1  UNL1        0.1210
     10  C         19.1880  -21.1760  -11.7660 C.1     1  UNL1        0.1060
     11  N         18.1230  -20.7670  -11.9740 N.1     1  UNL1       -0.1910
     12  C         23.9890  -22.3160  -12.2340 C.3     1  UNL1        0.1790
     13  C         24.9900  -22.1620  -11.0960 C.3     1  UNL1        0.1860
     14  O         24.5590  -21.1840  -10.1510 O.3     1  UNL1       -0.3990
     15  H         24.6980  -20.3050  -10.5590 H       1  UNL1        0.2090
     16  N         21.7600  -20.7170  -13.4600 N.pl3   1  UNL1       -0.3830
     17  H         22.6820  -20.3860  -13.7520 H       1  UNL1        0.1570
     18  H         21.0370  -20.0450  -13.7270 H       1  UNL1        0.1570
     19  C         18.2400  -22.8730   -7.8130 C.2     1  UNL1       -0.0240
     20  C         17.3220  -23.8890   -8.1190 C.2     1  UNL1        0.0120
     21  C         16.4570  -24.3720   -7.1440 C.2     1  UNL1        0.0020
     22  C         16.5050  -23.8510   -5.8530 C.2     1  UNL1        0.0120
     23  C         17.4170  -22.8380   -5.5160 C.2     1  UNL1       -0.0250
     24  C         17.4510  -22.3230   -4.2100 C.2     1  UNL1        0.0120
     25  C         18.3030  -22.3320   -6.4990 C.2     1  UNL1       -0.0160
     26  C         18.3480  -21.3150   -3.8580 C.2     1  UNL1        0.0010
     27  C         19.2240  -20.8090   -4.8100 C.2     1  UNL1        0.0010
     28  C         19.2010  -21.3090   -6.1130 C.2     1  UNL1        0.0130
@<TRIPOS>BOND
     1    17    16    1
     2    18    16    1
     3    16     8    1
     4     8     7   ar
     5     8     9   ar
     6    12     7    1
     7    12    13    1
     8    11    10    3
     9     7     6   ar
    10    10     9    1
    11     9     5   ar
    12    13    14    1
    13     6     5   ar
    14    15    14    1
    15     5     3    1
    16     3     2    1
    17     3     4    2
    18     2     1    3
    19     4    19    1
    20    20    19    2
    21    20    21    1
    22    19    25    1
    23    21    22    2
    24    25    28    1
    25    25    23    2
    26    28    27    2
    27    22    23    1
    28    23    24    1
    29    27    26    1
    30    24    26    2
