@<TRIPOS>MOLECULE
57066_out_ligand_01.pdbqt
 27 30 0 0 0
SMALL
GASTEIGER

@<TRIPOS>ATOM
      1  C         20.1400  -22.0750  -11.1990 C.2     1  UNL1        0.0320
      2  C         19.0220  -21.3040  -11.5400 C.2     1  UNL1        0.0170
      3  C         17.7780  -21.5910  -10.9710 C.2     1  UNL1        0.0100
      4  C         17.6370  -22.6360  -10.0440 C.2     1  UNL1       -0.0300
      5  C         18.7640  -23.3940   -9.6990 C.2     1  UNL1        0.0100
      6  C         20.0090  -23.1110  -10.2680 C.2     1  UNL1        0.0170
      7  C         16.2840  -22.9470   -9.4350 C.3     1  UNL1        0.3110
      8  N         16.2510  -22.7940   -7.9710 N.3     1  UNL1        0.0970
      9  C         16.1090  -24.1090   -7.3240 C.3     1  UNL1        0.2770
     10  C         15.8740  -23.9490   -5.8170 C.3     1  UNL1        0.0690
     11  C         16.8710  -23.0210   -5.1730 C.2     1  UNL1       -0.0490
     12  C         17.0280  -23.0090   -3.7810 C.2     1  UNL1        0.0070
     13  C         17.6020  -22.1220   -5.9680 C.2     1  UNL1       -0.0240
     14  C         17.9260  -22.1250   -3.1810 C.2     1  UNL1        0.0010
     15  C         18.6660  -21.2450   -3.9660 C.2     1  UNL1        0.0010
     16  C         18.5080  -21.2440   -5.3520 C.2     1  UNL1        0.0090
     17  C         17.4770  -22.1320   -7.4780 C.3     1  UNL1        0.3110
     18  C         21.4870  -21.8070  -11.7790 C.2     1  UNL1        0.2560
     19  O         21.5620  -21.0630  -12.7490 O.2     1  UNL1       -0.2670
     20  N         22.5370  -22.4130  -11.1130 N.am    1  UNL1       -0.3230
     21  H         22.3160  -22.8890  -10.2480 H       1  UNL1        0.1690
     22  C         23.9050  -22.3720  -11.4520 C.2     1  UNL1        0.0350
     23  C         24.4920  -23.1750  -12.4320 C.2     1  UNL1        0.0290
     24  C         25.8600  -23.0750  -12.7030 C.2     1  UNL1        0.0020
     25  C         26.6540  -22.1750  -11.9960 C.2     1  UNL1        0.0000
     26  C         26.0810  -21.3730  -11.0150 C.2     1  UNL1        0.0020
     27  C         24.7130  -21.4720  -10.7430 C.2     1  UNL1        0.0290
@<TRIPOS>BOND
     1    19    18    2
     2    24    23    1
     3    24    25    2
     4    23    22    2
     5    25    26    1
     6    18     1    1
     7    18    20   am
     8     2     1    2
     9     2     3    1
    10    22    20    1
    11    22    27    1
    12     1     6    1
    13    20    21    1
    14    26    27    2
    15     3     4    2
    16     6     5    2
    17     4     5    1
    18     4     7    1
    19     7     8    1
    20     8    17    1
    21     8     9    1
    22    17    13    1
    23     9    10    1
    24    13    16    1
    25    13    11    2
    26    10    11    1
    27    16    15    2
    28    11    12    1
    29    15    14    1
    30    12    14    2
