@<TRIPOS>MOLECULE
57067_out_ligand_01.pdbqt
 28 31 0 0 0
SMALL
GASTEIGER

@<TRIPOS>ATOM
      1  C         20.1510  -22.0240  -11.2150 C.2     1  UNL1        0.0320
      2  C         19.9920  -23.0530  -10.2780 C.2     1  UNL1        0.0170
      3  C         18.7380  -23.3090   -9.7160 C.2     1  UNL1        0.0100
      4  C         17.6260  -22.5330  -10.0730 C.2     1  UNL1       -0.0300
      5  C         17.7930  -21.5040  -11.0120 C.2     1  UNL1        0.0100
      6  C         19.0470  -21.2390  -11.5690 C.2     1  UNL1        0.0170
      7  C         21.5140  -21.7800  -11.7770 C.2     1  UNL1        0.2560
      8  N         22.5570  -22.3080  -11.0370 N.am    1  UNL1       -0.3230
      9  H         22.3260  -22.7160  -10.1430 H       1  UNL1        0.1690
     10  O         21.6040  -21.1260  -12.8100 O.2     1  UNL1       -0.2670
     11  C         23.9330  -22.2870  -11.3540 C.2     1  UNL1        0.0350
     12  C         24.8570  -21.4180  -10.7740 C.2     1  UNL1        0.0290
     13  C         26.2010  -21.4590  -11.1550 C.2     1  UNL1        0.0030
     14  C         26.6320  -22.3610  -12.1280 C.2     1  UNL1        0.0070
     15  C         25.7190  -23.2260  -12.7330 C.2     1  UNL1       -0.0600
     16  C         26.1790  -24.2070  -13.7710 C.3     1  UNL1        0.0480
     17  C         24.3760  -23.1950  -12.3270 C.2     1  UNL1        0.0360
     18  C         16.2650  -22.8240   -9.4690 C.3     1  UNL1        0.3110
     19  N         16.2280  -22.7270   -8.0000 N.3     1  UNL1        0.0970
     20  C         16.0360  -24.0630   -7.4090 C.3     1  UNL1        0.2770
     21  C         15.8100  -23.9700   -5.8940 C.3     1  UNL1        0.0690
     22  C         16.8230  -23.0910   -5.2070 C.2     1  UNL1       -0.0490
     23  C         16.9700  -23.1390   -3.8150 C.2     1  UNL1        0.0070
     24  C         17.5700  -22.1660   -5.9590 C.2     1  UNL1       -0.0240
     25  C         17.8650  -22.2870   -3.1710 C.2     1  UNL1        0.0010
     26  C         18.6090  -21.3700   -3.9120 C.2     1  UNL1        0.0010
     27  C         18.4650  -21.3110   -5.2990 C.2     1  UNL1        0.0090
     28  C         17.4770  -22.1350   -7.4720 C.3     1  UNL1        0.3110
@<TRIPOS>BOND
     1    16    15    1
     2    10     7    2
     3    15    17    1
     4    15    14    2
     5    17    11    2
     6    14    13    1
     7     7     1    1
     8     7     8   am
     9     6     1    2
    10     6     5    1
    11    11     8    1
    12    11    12    1
    13     1     2    1
    14    13    12    2
    15     8     9    1
    16     5     4    2
    17     2     3    2
    18     4     3    1
    19     4    18    1
    20    18    19    1
    21    19    28    1
    22    19    20    1
    23    28    24    1
    24    20    21    1
    25    24    27    1
    26    24    22    2
    27    21    22    1
    28    27    26    2
    29    22    23    1
    30    26    25    1
    31    23    25    2
