@<TRIPOS>MOLECULE
57062_out_ligand_01.pdbqt
 35 38 0 0 0
SMALL
GASTEIGER

@<TRIPOS>ATOM
      1  C         18.8280  -20.9110   -5.0370 C.3     1  UNL1        0.0500
      2  C         19.7100  -21.4060   -6.1490 C.2     1  UNL1       -0.0390
      3  C         20.9990  -20.8570   -6.2690 C.2     1  UNL1        0.0090
      4  C         21.8720  -21.2760   -7.2760 C.2     1  UNL1        0.0170
      5  C         21.4720  -22.2660   -8.1770 C.2     1  UNL1        0.0330
      6  C         20.1960  -22.8250   -8.0790 C.2     1  UNL1        0.0420
      7  C         19.3190  -22.4020   -7.0670 C.2     1  UNL1        0.0860
      8  C         22.3690  -22.7160   -9.2750 C.2     1  UNL1        0.2560
      9  O         23.0520  -23.7150   -9.0880 O.2     1  UNL1       -0.2670
     10  N         22.3440  -21.9160  -10.4030 N.am    1  UNL1       -0.3230
     11  H         21.8150  -21.0560  -10.3390 H       1  UNL1        0.1690
     12  C         23.0570  -22.1160  -11.6040 C.2     1  UNL1        0.0360
     13  C         22.5630  -21.4730  -12.7540 C.2     1  UNL1        0.0320
     14  C         23.1940  -21.6110  -13.9990 C.2     1  UNL1        0.0330
     15  C         24.3270  -22.4070  -14.0910 C.ar    1  UNL1        0.0550
     16  C         24.8100  -23.0470  -12.9500 C.ar    1  UNL1        0.0390
     17  N         25.1040  -22.6770  -15.2460 N.ar    1  UNL1       -0.3030
     18  C         24.1960  -22.9150  -11.7100 C.2     1  UNL1        0.0510
     19  S         26.2510  -24.0030  -13.3190 S.2     1  UNL1       -0.0270
     20  C         26.1900  -23.5240  -15.0220 C.ar    1  UNL1        0.2910
     21  O         27.0110  -23.9160  -15.8370 O.2     1  UNL1       -0.2590
     22  C         24.8120  -22.1240  -16.5680 C.3     1  UNL1        0.0860
     23  C         24.5010  -23.2220  -17.5890 C.3     1  UNL1        0.0320
     24  C         25.9380  -21.2130  -17.0660 C.3     1  UNL1        0.0320
     25  S         17.7220  -23.1980   -6.9860 S.O2    1  UNL1        0.2630
     26  O         16.7220  -22.1680   -6.7870 O.2     1  UNL1       -0.2000
     27  O         17.7990  -24.3170   -6.0710 O.2     1  UNL1       -0.2000
     28  N         17.5060  -23.7750   -8.5630 N.pl3   1  UNL1       -0.2810
     29  H         17.9950  -24.6620   -8.6820 H       1  UNL1        0.1790
     30  C         17.6080  -22.8370   -9.6260 C.2     1  UNL1        0.0420
     31  C         18.6990  -22.8880  -10.4920 C.2     1  UNL1        0.0300
     32  C         18.7750  -22.0020  -11.5680 C.2     1  UNL1        0.0020
     33  C         17.7580  -21.0700  -11.7770 C.2     1  UNL1        0.0000
     34  C         16.6630  -21.0260  -10.9130 C.2     1  UNL1        0.0020
     35  C         16.5850  -21.9130   -9.8380 C.2     1  UNL1        0.0300
@<TRIPOS>BOND
     1    23    22    1
     2    24    22    1
     3    22    17    1
     4    21    20    2
     5    17    20   ar
     6    17    15   ar
     7    20    19   ar
     8    15    14    2
     9    15    16   ar
    10    14    13    1
    11    19    16   ar
    12    16    18    2
    13    13    12    2
    14    33    32    2
    15    33    34    1
    16    18    12    1
    17    12    10    1
    18    32    31    1
    19    34    35    2
    20    31    30    2
    21    10    11    1
    22    10     8   am
    23    35    30    1
    24    30    28    1
    25     8     9    2
    26     8     5    1
    27    29    28    1
    28    28    25    1
    29     5     6    2
    30     5     4    1
    31     6     7    1
    32     4     3    2
    33     7    25    1
    34     7     2    2
    35    25    26    2
    36    25    27    2
    37     3     2    1
    38     2     1    1
