@<TRIPOS>MOLECULE
57070_out_ligand_01.pdbqt
 28 31 0 0 0
SMALL
GASTEIGER

@<TRIPOS>ATOM
      1  C         20.5550  -21.9850  -11.4340 C.2     1  UNL1        0.0320
      2  C         19.4630  -21.2050  -11.8320 C.2     1  UNL1        0.0170
      3  C         18.2130  -21.4010  -11.2390 C.2     1  UNL1        0.0100
      4  C         18.0370  -22.3650  -10.2340 C.2     1  UNL1       -0.0300
      5  C         19.1410  -23.1340   -9.8360 C.2     1  UNL1        0.0100
      6  C         20.3920  -22.9400  -10.4250 C.2     1  UNL1        0.0170
      7  C         21.9060  -21.8090  -12.0370 C.2     1  UNL1        0.2560
      8  O         21.9950  -21.2000  -13.0950 O.2     1  UNL1       -0.2670
      9  N         22.9480  -22.3330  -11.2910 N.am    1  UNL1       -0.3230
     10  H         22.7190  -22.6800  -10.3700 H       1  UNL1        0.1690
     11  C         24.3180  -22.3490  -11.6300 C.2     1  UNL1        0.0360
     12  C         25.1410  -21.4070  -10.9970 C.2     1  UNL1        0.0290
     13  C         26.5110  -21.3550  -11.2690 C.2     1  UNL1        0.0040
     14  C         27.0720  -22.2490  -12.1760 C.2     1  UNL1        0.0240
     15  C         26.2590  -23.1900  -12.8040 C.2     1  UNL1        0.0360
     16 CL         26.9570  -24.2980  -13.9230 Cl      1  UNL1       -0.0840
     17  C         24.8890  -23.2460  -12.5360 C.2     1  UNL1        0.0530
     18  C         16.6800  -22.5720   -9.5910 C.3     1  UNL1        0.3110
     19  N         16.6430  -22.6950   -8.1300 N.3     1  UNL1        0.0970
     20  C         16.4480  -24.0650   -7.6480 C.3     1  UNL1        0.2770
     21  C         16.0520  -24.0540   -6.1630 C.3     1  UNL1        0.0690
     22  C         16.9340  -23.1610   -5.3280 C.2     1  UNL1       -0.0490
     23  C         16.9180  -23.2640   -3.9310 C.2     1  UNL1        0.0070
     24  C         17.7290  -22.1800   -5.9480 C.2     1  UNL1       -0.0240
     25  C         17.7060  -22.4150   -3.1530 C.2     1  UNL1        0.0010
     26  C         18.5090  -21.4540   -3.7650 C.2     1  UNL1        0.0010
     27  C         18.5230  -21.3390   -5.1550 C.2     1  UNL1        0.0090
     28  C         17.7920  -22.0740   -7.4590 C.3     1  UNL1        0.3110
@<TRIPOS>BOND
     1    16    15    1
     2     8     7    2
     3    15    17    1
     4    15    14    2
     5    17    11    2
     6    14    13    1
     7     7     1    1
     8     7     9   am
     9     2     1    2
    10     2     3    1
    11    11     9    1
    12    11    12    1
    13     1     6    1
    14     9    10    1
    15    13    12    2
    16     3     4    2
    17     6     5    2
    18     4     5    1
    19     4    18    1
    20    18    19    1
    21    19    20    1
    22    19    28    1
    23    20    21    1
    24    28    24    1
    25    21    22    1
    26    24    22    2
    27    24    27    1
    28    22    23    1
    29    27    26    2
    30    23    25    2
    31    26    25    1
