@<TRIPOS>MOLECULE
57107_out_ligand_01.pdbqt
 27 30 0 0 0
SMALL
GASTEIGER

@<TRIPOS>ATOM
      1  C         20.1930  -21.9940  -11.1860 C.2     1  UNL1        0.0320
      2  C         20.0460  -23.0380  -10.2640 C.2     1  UNL1        0.0170
      3  C         18.7910  -23.3110   -9.7070 C.2     1  UNL1        0.0100
      4  C         17.6600  -22.5680  -10.0810 C.2     1  UNL1       -0.0300
      5  C         17.8130  -21.5250  -11.0050 C.2     1  UNL1        0.0100
      6  C         19.0670  -21.2430  -11.5540 C.2     1  UNL1        0.0170
      7  C         16.3010  -22.8630   -9.4770 C.3     1  UNL1        0.3110
      8  N         16.2630  -22.7510   -8.0080 N.3     1  UNL1        0.0970
      9  C         16.0900  -24.0810   -7.4050 C.3     1  UNL1        0.2770
     10  C         15.8490  -23.9710   -5.8900 C.3     1  UNL1        0.0690
     11  C         16.8460  -23.0670   -5.2110 C.2     1  UNL1       -0.0490
     12  C         16.9820  -23.0910   -3.8170 C.2     1  UNL1        0.0070
     13  C         17.5990  -22.1560   -5.9720 C.2     1  UNL1       -0.0240
     14  C         17.8790  -22.2310   -3.1820 C.2     1  UNL1        0.0010
     15  C         18.6390  -21.3360   -3.9340 C.2     1  UNL1        0.0010
     16  C         18.5010  -21.3000   -5.3210 C.2     1  UNL1        0.0090
     17  C         17.5020  -22.1360   -7.4850 C.3     1  UNL1        0.3110
     18  C         21.4950  -21.6630  -11.8370 C.2     1  UNL1        0.2520
     19  O         21.5060  -21.1180  -12.9320 O.2     1  UNL1       -0.2680
     20  N         22.6500  -21.9840  -11.1480 N.am    1  UNL1       -0.3520
     21  H         22.5880  -22.4520  -10.2600 H       1  UNL1        0.1630
     22  C         23.9590  -21.8930  -11.7810 C.3     1  UNL1        0.0840
     23  C         24.3610  -23.2500  -12.3740 C.3     1  UNL1        0.0250
     24  C         25.6930  -23.1760  -13.1250 C.3     1  UNL1        0.0020
     25  C         26.6400  -22.1060  -12.5780 C.3     1  UNL1        0.0000
     26  C         26.4280  -21.8770  -11.0880 C.3     1  UNL1        0.0020
     27  C         25.0130  -21.3880  -10.7790 C.3     1  UNL1        0.0250
@<TRIPOS>BOND
     1    24    25    1
     2    24    23    1
     3    19    18    2
     4    25    26    1
     5    23    22    1
     6    18     1    1
     7    18    20   am
     8    22    20    1
     9    22    27    1
    10     6     1    2
    11     6     5    1
    12     1     2    1
    13    20    21    1
    14    26    27    1
    15     5     4    2
    16     2     3    2
    17     4     3    1
    18     4     7    1
    19     7     8    1
    20     8    17    1
    21     8     9    1
    22    17    13    1
    23     9    10    1
    24    13    16    1
    25    13    11    2
    26    10    11    1
    27    16    15    2
    28    11    12    1
    29    15    14    1
    30    12    14    2
