@<TRIPOS>MOLECULE
57116_out_ligand_01.pdbqt
 31 35 0 0 0
SMALL
GASTEIGER

@<TRIPOS>ATOM
      1  C         20.4660  -22.3620  -10.5570 C.2     1  UNL1        0.0320
      2  C         20.7080  -21.6780  -11.7560 C.2     1  UNL1        0.0170
      3  C         21.9670  -21.7450  -12.3550 C.2     1  UNL1        0.0100
      4  C         23.0080  -22.4730  -11.7570 C.2     1  UNL1       -0.0300
      5  C         22.7590  -23.1500  -10.5550 C.2     1  UNL1        0.0100
      6  C         21.4990  -23.0890   -9.9540 C.2     1  UNL1        0.0170
      7  C         19.1410  -22.2920   -9.8740 C.2     1  UNL1        0.2560
      8  O         18.1920  -21.8220  -10.4890 O.2     1  UNL1       -0.2670
      9  N         19.1410  -22.7480   -8.5690 N.am    1  UNL1       -0.3220
     10  H         20.0490  -22.9060   -8.1600 H       1  UNL1        0.1690
     11  C         18.0230  -22.9990   -7.7310 C.2     1  UNL1        0.0460
     12  C         16.9840  -23.8380   -8.1500 C.2     1  UNL1        0.0300
     13  C         15.9280  -24.1500   -7.3010 C.2     1  UNL1        0.0030
     14  C         15.8940  -23.6270   -6.0140 C.2     1  UNL1        0.0120
     15  C         16.9070  -22.7760   -5.5600 C.2     1  UNL1       -0.0240
     16  C         16.8420  -22.2670   -4.2520 C.2     1  UNL1        0.0120
     17  C         17.9890  -22.4360   -6.4130 C.2     1  UNL1        0.0010
     18  C         17.8250  -21.4100   -3.7630 C.2     1  UNL1        0.0010
     19  C         18.8840  -21.0460   -4.5800 C.2     1  UNL1        0.0010
     20  C         18.9640  -21.5490   -5.8820 C.2     1  UNL1        0.0140
     21  C         24.3770  -22.5270  -12.4080 C.3     1  UNL1        0.3110
     22  N         24.4500  -21.7640  -13.6640 N.3     1  UNL1        0.0970
     23  C         24.8500  -22.6320  -14.7800 C.3     1  UNL1        0.2770
     24  C         24.7190  -21.8880  -16.1140 C.3     1  UNL1        0.0690
     25  C         25.3790  -20.5340  -16.0870 C.2     1  UNL1       -0.0490
     26  C         25.6600  -19.8610  -17.2820 C.2     1  UNL1        0.0070
     27  C         25.6700  -19.9240  -14.8560 C.2     1  UNL1       -0.0240
     28  C         26.2500  -18.6000  -17.2580 C.2     1  UNL1        0.0010
     29  C         26.5570  -17.9990  -16.0400 C.2     1  UNL1        0.0010
     30  C         26.2710  -18.6570  -14.8450 C.2     1  UNL1        0.0090
     31  C         25.4000  -20.6390  -13.5470 C.3     1  UNL1        0.3110
@<TRIPOS>BOND
     1    26    28    1
     2    26    25    2
     3    28    29    2
     4    24    25    1
     5    24    23    1
     6    25    27    1
     7    29    30    1
     8    27    30    2
     9    27    31    1
    10    23    22    1
    11    22    31    1
    12    22    21    1
    13    21     4    1
    14     3     4    2
    15     3     2    1
    16     4     5    1
    17     2     1    2
    18     1     6    1
    19     1     7    1
    20     5     6    2
    21     8     7    2
    22     7     9   am
    23     9    10    1
    24     9    11    1
    25    12    11    2
    26    12    13    1
    27    11    17    1
    28    13    14    2
    29    17    20    1
    30    17    15    2
    31    14    15    1
    32    20    19    2
    33    15    16    1
    34    19    18    1
    35    16    18    2
