@<TRIPOS>MOLECULE
57155_out_ligand_01.pdbqt
 32 36 0 0 0
SMALL
GASTEIGER

@<TRIPOS>ATOM
      1  C         22.0460  -22.5280  -10.6990 C.2     1  UNL1        0.0350
      2  C         22.2220  -23.2190   -9.5040 C.2     1  UNL1        0.0300
      3  C         21.1560  -23.3860   -8.6070 C.2     1  UNL1        0.0100
      4  C         19.8810  -22.8640   -8.8740 C.2     1  UNL1       -0.0490
      5  C         19.7210  -22.1660  -10.0830 C.2     1  UNL1        0.0100
      6  C         20.7850  -22.0000  -10.9810 C.2     1  UNL1        0.0300
      7  N         23.0660  -22.3120  -11.6480 N.am    1  UNL1       -0.3230
      8  C         24.2640  -21.6520  -11.4530 C.2     1  UNL1        0.2560
      9  O         24.6960  -21.1840  -10.4080 O.2     1  UNL1       -0.2670
     10  H         22.9220  -22.7500  -12.5480 H       1  UNL1        0.1690
     11  C         25.1200  -21.5430  -12.6660 C.2     1  UNL1        0.0330
     12  C         26.1350  -20.5800  -12.7640 C.2     1  UNL1        0.0170
     13  C         26.9350  -20.5200  -13.9080 C.2     1  UNL1        0.0030
     14  C         26.7350  -21.4280  -14.9500 C.2     1  UNL1        0.0250
     15  C         25.7360  -22.4000  -14.8350 C.2     1  UNL1        0.0800
     16  C         24.9220  -22.4620  -13.7010 C.2     1  UNL1        0.0420
     17  S         25.4740  -23.5690  -16.1450 S.O2    1  UNL1        0.2580
     18  O         26.4920  -23.3340  -17.1440 O.2     1  UNL1       -0.2010
     19  O         25.2680  -24.8720  -15.5520 O.2     1  UNL1       -0.2010
     20  N         24.0200  -23.0620  -16.8000 N.3     1  UNL1       -0.3200
     21  C         23.6460  -23.4520  -18.1500 C.3     1  UNL1        0.1590
     22  H         23.2940  -22.8460  -16.1210 H       1  UNL1        0.1710
     23  C         18.6950  -23.0310   -7.9110 C.3     1  UNL1       -0.0120
     24  C         18.5950  -24.5120   -7.4370 C.3     1  UNL1        0.0190
     25  C         17.3790  -24.7210   -6.5180 C.3     1  UNL1       -0.0130
     26  C         16.0970  -24.3420   -7.2790 C.3     1  UNL1        0.0090
     27  C         17.5170  -23.8270   -5.2790 C.3     1  UNL1        0.0090
     28  C         16.1540  -22.8670   -7.7060 C.3     1  UNL1       -0.0130
     29  C         16.2980  -21.9810   -6.4610 C.3     1  UNL1        0.0090
     30  C         17.3650  -22.6530   -8.6290 C.3     1  UNL1        0.0190
     31  C         17.5810  -22.3530   -5.7040 C.3     1  UNL1       -0.0130
     32  C         18.7920  -22.1460   -6.6300 C.3     1  UNL1        0.0190
@<TRIPOS>BOND
     1    21    20    1
     2    18    17    2
     3    20    17    1
     4    20    22    1
     5    17    19    2
     6    17    15    1
     7    14    15    2
     8    14    13    1
     9    15    16    1
    10    13    12    2
    11    16    11    2
    12    12    11    1
    13    11     8    1
    14    10     7    1
    15     7     8   am
    16     7     1    1
    17     8     9    2
    18     6     1    2
    19     6     5    1
    20     1     2    1
    21     5     4    2
    22     2     3    2
    23     4     3    1
    24     4    23    1
    25    30    23    1
    26    30    28    1
    27    23    24    1
    28    23    32    1
    29    28    26    1
    30    28    29    1
    31    24    25    1
    32    26    25    1
    33    32    31    1
    34    25    27    1
    35    29    31    1
    36    31    27    1
