@<TRIPOS>MOLECULE
571_out_ligand_01.pdbqt
 30 33 0 0 0
SMALL
GASTEIGER

@<TRIPOS>ATOM
      1  C         21.5800  -22.9240  -10.4520 C.2     1  UNL1        0.2560
      2  O         21.9990  -23.8180   -9.7270 O.2     1  UNL1       -0.2670
      3  N         20.3600  -22.2780  -10.3700 N.am    1  UNL1       -0.3230
      4  H         20.1130  -21.6660  -11.1370 H       1  UNL1        0.1690
      5  C         22.4230  -22.5000  -11.6030 C.2     1  UNL1        0.0320
      6  C         21.8760  -21.6120  -12.5400 C.2     1  UNL1        0.0180
      7  C         22.6430  -21.1760  -13.6220 C.2     1  UNL1        0.0260
      8  C         23.9560  -21.6330  -13.7660 C.2     1  UNL1        0.0790
      9  C         24.4960  -22.5530  -12.8570 C.2     1  UNL1        0.0260
     10  C         23.7290  -22.9850  -11.7710 C.2     1  UNL1        0.0180
     11  S         24.9260  -21.0930  -15.1550 S.O2    1  UNL1        0.2580
     12  O         24.0560  -21.0500  -16.3100 O.2     1  UNL1       -0.2010
     13  O         26.1740  -21.8250  -15.1610 O.2     1  UNL1       -0.2010
     14  N         25.2410  -19.5010  -14.7490 N.3     1  UNL1       -0.3160
     15  H         24.6600  -18.8190  -15.2330 H       1  UNL1        0.1720
     16  C         26.5500  -19.1030  -14.2400 C.3     1  UNL1        0.1280
     17  C         26.5990  -19.3110  -12.7400 C.3     1  UNL1        0.0270
     18  C         19.3450  -22.4850   -9.4090 C.2     1  UNL1        0.0350
     19  C         18.0860  -23.0330   -9.7160 C.2     1  UNL1        0.0300
     20  C         17.1050  -23.2050   -8.7280 C.2     1  UNL1        0.0150
     21  C         17.3950  -22.8250   -7.4300 C.2     1  UNL1       -0.0190
     22  C         18.6620  -22.2930   -7.1130 C.2     1  UNL1       -0.0410
     23  C         16.5970  -22.8810   -6.2240 C.3     1  UNL1       -0.0190
     24  C         19.6370  -22.1190   -8.0840 C.2     1  UNL1        0.0380
     25  C         18.7410  -21.9750   -5.6340 C.2     1  UNL1        0.0780
     26  C         17.3670  -22.3900   -5.1470 C.2     1  UNL1       -0.0430
     27  C         16.8560  -22.3260   -3.8640 C.2     1  UNL1        0.0080
     28  C         15.5440  -22.7600   -3.6570 C.2     1  UNL1        0.0010
     29  C         14.7700  -23.2470   -4.7270 C.2     1  UNL1        0.0010
     30  C         15.2960  -23.3120   -6.0200 C.2     1  UNL1        0.0130
@<TRIPOS>BOND
     1    12    11    2
     2    15    14    1
     3    13    11    2
     4    11    14    1
     5    11     8    1
     6    14    16    1
     7    16    17    1
     8     8     7    2
     9     8     9    1
    10     7     6    1
    11     9    10    2
    12     6     5    2
    13    10     5    1
    14     5     1    1
    15     4     3    1
    16     1     3   am
    17     1     2    2
    18     3    18    1
    19    19    18    2
    20    19    20    1
    21    18    24    1
    22    20    21    2
    23    24    22    2
    24    21    22    1
    25    21    23    1
    26    22    25    1
    27    23    30    1
    28    23    26    1
    29    30    29    2
    30    25    26    2
    31    26    27    1
    32    29    28    1
    33    27    28    2
