@<TRIPOS>MOLECULE
57200_out_ligand_01.pdbqt
 31 33 0 0 0
SMALL
GASTEIGER

@<TRIPOS>ATOM
      1  C         18.7550  -22.5930   -9.8910 C.2     1  UNL1        0.0320
      2  C         19.9850  -23.2300   -9.6810 C.2     1  UNL1        0.0180
      3  C         21.0760  -22.9450  -10.5090 C.2     1  UNL1        0.0180
      4  C         20.9450  -22.0200  -11.5510 C.2     1  UNL1        0.0320
      5  C         19.7050  -21.4090  -11.7850 C.2     1  UNL1        0.0180
      6  C         18.6130  -21.6950  -10.9560 C.2     1  UNL1        0.0180
      7  C         17.6220  -22.9360   -8.9870 C.2     1  UNL1        0.2520
      8  N         17.9280  -23.7030   -7.8820 N.am    1  UNL1       -0.3520
      9  H         18.8840  -23.9750   -7.7070 H       1  UNL1        0.1630
     10  O         16.4880  -22.5580   -9.2580 O.2     1  UNL1       -0.2680
     11  C         16.9330  -23.9950   -6.8520 C.3     1  UNL1        0.0890
     12  C         15.7960  -22.9690   -6.9060 C.3     1  UNL1        0.0660
     13  C         15.0800  -22.7840   -5.5600 C.3     1  UNL1        0.1530
     14  C         14.0770  -21.6210   -5.6900 C.3     1  UNL1        0.0480
     15  C         14.2850  -24.0450   -5.1700 C.3     1  UNL1        0.0480
     16  N         16.0050  -22.4080   -4.4820 N.3     1  UNL1        0.1010
     17  C         17.3980  -22.8610   -4.5770 C.3     1  UNL1        0.1530
     18  H         15.5960  -22.6290   -3.5740 H       1  UNL1        0.3170
     19  C         17.5820  -24.1040   -5.4680 C.3     1  UNL1        0.0660
     20  C         18.2550  -21.6850   -5.0820 C.3     1  UNL1        0.0480
     21  C         17.8850  -23.2070   -3.1530 C.3     1  UNL1        0.0480
     22  C         22.1280  -21.7480  -12.4160 C.2     1  UNL1        0.2560
     23  O         21.9810  -21.0030  -13.3770 O.2     1  UNL1       -0.2670
     24  N         23.2820  -22.4150  -12.0470 N.am    1  UNL1       -0.3230
     25  H         23.2010  -23.1020  -11.3090 H       1  UNL1        0.1690
     26  C         24.5540  -22.3200  -12.6480 C.2     1  UNL1        0.0350
     27  C         25.2970  -21.1410  -12.7220 C.2     1  UNL1        0.0290
     28  C         26.5570  -21.1330  -13.3300 C.2     1  UNL1        0.0020
     29  C         27.0850  -22.3040  -13.8690 C.2     1  UNL1        0.0000
     30  C         26.3550  -23.4860  -13.7970 C.2     1  UNL1        0.0020
     31  C         25.0960  -23.4950  -13.1900 C.2     1  UNL1        0.0290
@<TRIPOS>BOND
     1    29    30    2
     2    29    28    1
     3    30    31    1
     4    23    22    2
     5    28    27    2
     6    31    26    2
     7    27    26    1
     8    26    24    1
     9    22    24   am
    10    22     4    1
    11    24    25    1
    12     5     4    2
    13     5     6    1
    14     4     3    1
    15     6     1    2
    16     3     2    2
    17     1     2    1
    18     1     7    1
    19    10     7    2
    20     7     8   am
    21     8     9    1
    22     8    11    1
    23    12    11    1
    24    12    13    1
    25    11    19    1
    26    14    13    1
    27    13    15    1
    28    13    16    1
    29    19    17    1
    30    20    17    1
    31    17    16    1
    32    17    21    1
    33    16    18    1
