@<TRIPOS>MOLECULE
57232_out_ligand_01.pdbqt
 30 32 0 0 0
SMALL
GASTEIGER

@<TRIPOS>ATOM
      1  C         22.7680  -22.5250   -9.3740 C.2     1  UNL1        0.0320
      2  C         22.4080  -21.7880   -8.2370 C.2     1  UNL1        0.0180
      3  C         21.2020  -22.0540   -7.5770 C.2     1  UNL1        0.0180
      4  C         20.3500  -23.0640   -8.0460 C.2     1  UNL1        0.0320
      5  C         20.6970  -23.7750   -9.2020 C.2     1  UNL1        0.0180
      6  C         21.8990  -23.5060   -9.8620 C.2     1  UNL1        0.0180
      7  C         24.0400  -22.2750  -10.1060 C.2     1  UNL1        0.2520
      8  N         24.6600  -23.3750  -10.6470 N.am    1  UNL1       -0.3500
      9  H         24.2030  -24.2770  -10.6910 H       1  UNL1        0.1630
     10  O         24.4700  -21.1340  -10.2310 O.2     1  UNL1       -0.2680
     11  C         25.8500  -23.2360  -11.4700 C.3     1  UNL1        0.2030
     12  C         25.5770  -23.4550  -12.9460 C.2     1  UNL1        0.1450
     13  N         25.2190  -22.3840  -13.6810 N.2     1  UNL1       -0.2440
     14  C         24.9700  -22.6120  -14.9810 C.2     1  UNL1        0.1220
     15  C         25.0830  -23.8490  -15.5670 C.2     1  UNL1        0.0630
     16  C         25.4730  -24.8780  -14.7430 C.2     1  UNL1        0.1040
     17  N         25.7090  -24.7130  -13.4360 N.2     1  UNL1       -0.2200
     18  N         25.5980  -26.1740  -15.2410 N.pl3   1  UNL1       -0.2870
     19  H         25.9300  -26.7710  -14.4900 H       1  UNL1        0.1250
     20  H         26.2060  -26.2130  -16.0490 H       1  UNL1        0.1250
     21  C         19.0540  -23.3880   -7.3770 C.2     1  UNL1        0.2560
     22  O         18.6070  -24.5220   -7.5050 O.2     1  UNL1       -0.2670
     23  N         18.5030  -22.3600   -6.6310 N.am    1  UNL1       -0.3230
     24  H         19.0630  -21.5280   -6.5010 H       1  UNL1        0.1690
     25  C         17.2790  -22.3760   -5.9280 C.2     1  UNL1        0.0350
     26  C         17.3460  -22.3620   -4.5280 C.2     1  UNL1        0.0290
     27  C         16.1810  -22.3780   -3.7550 C.2     1  UNL1        0.0020
     28  C         14.9360  -22.4070   -4.3770 C.2     1  UNL1        0.0000
     29  C         14.8590  -22.4150   -5.7690 C.2     1  UNL1        0.0020
     30  C         16.0250  -22.4000   -6.5400 C.2     1  UNL1        0.0290
@<TRIPOS>BOND
     1    20    18    1
     2    15    14    2
     3    15    16    1
     4    18    16    1
     5    18    19    1
     6    14    13    1
     7    16    17    2
     8    13    12    2
     9    17    12    1
    10    12    11    1
    11    11     8    1
    12     9     8    1
    13     8     7   am
    14    10     7    2
    15     7     1    1
    16     6     1    2
    17     6     5    1
    18     1     2    1
    19     5     4    2
    20     2     3    2
    21     4     3    1
    22     4    21    1
    23    22    21    2
    24    21    23   am
    25    23    24    1
    26    23    25    1
    27    30    25    2
    28    30    29    1
    29    25    26    1
    30    29    28    2
    31    26    27    2
    32    28    27    1
