@<TRIPOS>MOLECULE
57241_out_ligand_01.pdbqt
 35 38 0 0 0
SMALL
GASTEIGER

@<TRIPOS>ATOM
      1  N         22.1540  -22.2960  -10.2780 N.am    1  UNL1       -0.3260
      2  C         21.5410  -23.2920   -9.5290 C.2     1  UNL1        0.2400
      3  O         21.9820  -24.4280   -9.3640 O.2     1  UNL1       -0.2720
      4  H         21.6590  -21.4140  -10.3420 H       1  UNL1        0.1690
      5  C         20.1730  -22.8970   -8.9270 C.3     1  UNL1        0.1770
      6  S         19.4730  -24.3620   -8.0230 S.3     1  UNL1       -0.1110
      7  C         18.4670  -23.6050   -6.7640 C.2     1  UNL1        0.0040
      8  C         18.8300  -22.3790   -6.1890 C.2     1  UNL1        0.0220
      9  C         18.0250  -21.7930   -5.2090 C.2     1  UNL1        0.0470
     10  C         16.8670  -22.4410   -4.7940 C.2     1  UNL1        0.1540
     11  F         16.0960  -21.8700   -3.8590 F       1  UNL1       -0.2030
     12  C         16.5140  -23.6670   -5.3430 C.2     1  UNL1        0.1560
     13  F         15.4020  -24.2910   -4.9340 F       1  UNL1       -0.2030
     14  C         17.3100  -24.2570   -6.3220 C.2     1  UNL1        0.0640
     15  C         19.2150  -22.1580   -9.8680 C.2     1  UNL1       -0.0350
     16  C         19.6560  -21.3910  -10.9610 C.2     1  UNL1        0.0090
     17  C         18.7500  -20.7590  -11.8180 C.2     1  UNL1        0.0010
     18  C         17.3810  -20.9060  -11.6220 C.2     1  UNL1        0.0000
     19  C         16.9170  -21.7010  -10.5810 C.2     1  UNL1        0.0010
     20  C         17.8220  -22.3320   -9.7250 C.2     1  UNL1        0.0090
     21  C         23.3570  -22.3720  -11.0130 C.2     1  UNL1        0.0350
     22  C         24.5200  -22.6440  -10.2800 C.2     1  UNL1        0.0320
     23  C         25.7770  -22.7270  -10.8900 C.2     1  UNL1        0.0340
     24  C         25.8230  -22.5320  -12.2710 C.ar    1  UNL1        0.0630
     25  N         26.8690  -22.5420  -13.1510 N.ar    1  UNL1       -0.2770
     26  C         24.6970  -22.2690  -13.0390 C.ar    1  UNL1        0.0300
     27  N         26.5230  -22.3180  -14.4300 N.ar    1  UNL1       -0.1680
     28  H         27.8490  -22.6970  -12.9390 H       1  UNL1        0.1890
     29  C         25.1820  -22.1450  -14.3760 C.ar    1  UNL1        0.1560
     30  C         23.4390  -22.1850  -12.3980 C.2     1  UNL1        0.0460
     31  C         24.4050  -21.8680  -15.5910 C.2     1  UNL1        0.2700
     32  N         24.1350  -20.5410  -15.7910 N.am    1  UNL1       -0.3650
     33  H         23.5910  -20.2600  -16.5900 H       1  UNL1        0.1590
     34  H         24.4610  -19.8720  -15.1050 H       1  UNL1        0.1590
     35  O         24.0160  -22.7200  -16.3820 O.2     1  UNL1       -0.2660
@<TRIPOS>BOND
     1    33    32    1
     2    35    31    2
     3    32    31   am
     4    32    34    1
     5    31    29    1
     6    27    29   ar
     7    27    25   ar
     8    29    26   ar
     9    25    28    1
    10    25    24   ar
    11    26    30    1
    12    26    24   ar
    13    30    21    2
    14    24    23    1
    15    17    18    2
    16    17    16    1
    17    18    19    1
    18    21    22    1
    19    21     1    1
    20    16    15    2
    21    23    22    2
    22    19    20    2
    23     4     1    1
    24     1     2   am
    25    15    20    1
    26    15     5    1
    27     2     3    2
    28     2     5    1
    29     5     6    1
    30     6     7    1
    31     7    14    2
    32     7     8    1
    33    14    12    1
    34     8     9    2
    35    12    13    1
    36    12    10    2
    37     9    10    1
    38    10    11    1
