@<TRIPOS>MOLECULE
57243_out_ligand_01.pdbqt
 34 37 0 0 0
SMALL
GASTEIGER

@<TRIPOS>ATOM
      1  N         19.3790  -22.9220   -6.7780 N.am    1  UNL1       -0.3250
      2  C         18.8650  -21.9300   -5.9620 C.2     1  UNL1        0.2460
      3  O         19.3210  -20.8020   -5.8010 O.2     1  UNL1       -0.2710
      4  H         18.8250  -23.7730   -6.8200 H       1  UNL1        0.1690
      5  C         20.5170  -22.8640   -7.6030 C.2     1  UNL1        0.0340
      6  C         20.7790  -23.9790   -8.4090 C.2     1  UNL1        0.0300
      7  C         21.8890  -24.0030   -9.2630 C.2     1  UNL1        0.0170
      8  C         22.7510  -22.9050   -9.3190 C.2     1  UNL1        0.0100
      9  C         22.5030  -21.7990   -8.5000 C.2     1  UNL1        0.0170
     10  C         21.3900  -21.7770   -7.6510 C.2     1  UNL1        0.0300
     11  C         23.9440  -22.8840  -10.2090 C.2     1  UNL1        0.1410
     12  N         25.0290  -23.6260   -9.8080 N.am    1  UNL1       -0.3070
     13  C         26.1650  -23.7140  -10.5550 C.2     1  UNL1        0.2480
     14  H         25.0070  -24.2090   -8.9880 H       1  UNL1        0.1700
     15  C         26.1680  -22.9200  -11.7890 C.2     1  UNL1        0.1010
     16  O         27.1210  -24.4090  -10.2330 O.2     1  UNL1       -0.2680
     17  C         25.0650  -22.2250  -12.0940 C.2     1  UNL1        0.0380
     18  C         24.9910  -21.3960  -13.3440 C.3     1  UNL1        0.0700
     19  N         23.9330  -22.2060  -11.3150 N.2     1  UNL1       -0.2350
     20  C         17.6130  -22.3820   -5.1980 C.3     1  UNL1        0.2780
     21  O         16.3800  -22.1510   -5.8720 O.2     1  UNL1       -0.3420
     22  C         16.1370  -22.8470   -7.0240 C.2     1  UNL1        0.0720
     23  C         15.7230  -24.1780   -7.1120 C.2     1  UNL1        0.0370
     24  C         15.4730  -24.7540   -8.3620 C.2     1  UNL1        0.0050
     25  C         15.6410  -24.0080   -9.5280 C.2     1  UNL1        0.0370
     26  C         16.0740  -22.6850   -9.4440 C.2     1  UNL1        0.0800
     27  C         16.3010  -22.1020   -8.1940 C.2     1  UNL1        0.0740
     28  O         16.2380  -21.8700  -10.5420 O.2     1  UNL1       -0.2920
     29  C         17.5380  -21.6820  -10.9670 C.2     1  UNL1        0.1690
     30  C         18.4530  -22.7250  -10.8910 C.2     1  UNL1        0.0580
     31  C         19.7620  -22.4790  -11.2910 C.2     1  UNL1        0.0060
     32  C         20.1100  -21.2070  -11.7340 C.2     1  UNL1        0.0190
     33  C         19.1280  -20.2270  -11.7570 C.2     1  UNL1        0.1190
     34  N         17.8500  -20.4340  -11.3770 N.2     1  UNL1       -0.2370
@<TRIPOS>BOND
     1    18    17    1
     2    17    15    2
     3    17    19    1
     4    15    13    1
     5    33    32    2
     6    33    34    1
     7    32    31    1
     8    34    29    2
     9    19    11    2
    10    31    30    2
    11    29    30    1
    12    29    28    1
    13    13    16    2
    14    13    12   am
    15    28    26    1
    16    11    12    1
    17    11     8    1
    18    12    14    1
    19    25    26    2
    20    25    24    1
    21    26    27    1
    22     8     7    2
    23     8     9    1
    24     7     6    1
    25     9    10    2
    26     6     5    2
    27    24    23    2
    28    27    22    2
    29    10     5    1
    30     5     1    1
    31    23    22    1
    32    22    21    1
    33     4     1    1
    34     1     2   am
    35     2     3    2
    36     2    20    1
    37    21    20    1
