@<TRIPOS>MOLECULE
57261_out_ligand_01.pdbqt
 40 44 0 0 0
SMALL
GASTEIGER

@<TRIPOS>ATOM
      1  N         21.1870  -22.7670   -8.0670 N.am    1  UNL1       -0.3270
      2  C         22.3860  -22.1300   -8.3440 C.2     1  UNL1        0.2220
      3  O         22.7400  -21.0330   -7.9250 O.2     1  UNL1       -0.2730
      4  H         21.0210  -23.6450   -8.5420 H       1  UNL1        0.1690
      5  C         23.2400  -22.9150   -9.3260 C.3     1  UNL1        0.1080
      6  C         22.4220  -23.4590  -10.4960 C.3     1  UNL1        0.0510
      7  C         22.3320  -22.4890  -11.6430 C.ar    1  UNL1       -0.0180
      8  C         21.2010  -21.8000  -12.0690 C.ar    1  UNL1        0.0500
      9  N         21.5750  -21.0280  -13.1470 N.ar    1  UNL1       -0.3540
     10  C         22.9040  -21.2010  -13.4410 C.ar    1  UNL1        0.0430
     11  H         20.9560  -20.4070  -13.6480 H       1  UNL1        0.1660
     12  C         23.6870  -20.6180  -14.4460 C.2     1  UNL1        0.0330
     13  C         23.4080  -22.1180  -12.5180 C.ar    1  UNL1        0.0020
     14  C         25.0320  -20.9910  -14.5120 C.2     1  UNL1        0.0440
     15  C         25.5530  -21.9080  -13.6090 C.2     1  UNL1        0.1170
     16  F         26.8470  -22.2470  -13.6990 F       1  UNL1       -0.2060
     17  C         24.7670  -22.4830  -12.6110 C.2     1  UNL1        0.0560
     18  C         19.8280  -21.7970  -11.5720 C.2     1  UNL1       -0.0090
     19  C         19.0080  -20.6780  -11.7810 C.2     1  UNL1        0.0170
     20  C         17.6940  -20.6710  -11.3090 C.2     1  UNL1        0.0430
     21  C         17.2040  -21.7820  -10.6310 C.2     1  UNL1        0.1160
     22  F         15.9420  -21.7760  -10.1810 F       1  UNL1       -0.2060
     23  C         18.0040  -22.8980  -10.4110 C.2     1  UNL1        0.0430
     24  C         19.3190  -22.9050  -10.8800 C.2     1  UNL1        0.0170
     25  C         20.1660  -22.3350   -7.1940 C.2     1  UNL1        0.0350
     26  C         20.2710  -21.2230   -6.3650 C.2     1  UNL1        0.0290
     27  C         19.2170  -20.8750   -5.5200 C.2     1  UNL1        0.0030
     28  C         18.0460  -21.6330   -5.5020 C.2     1  UNL1        0.0100
     29  C         17.8950  -22.7530   -6.3380 C.2     1  UNL1       -0.0190
     30  C         18.9810  -23.0940   -7.1700 C.2     1  UNL1        0.0390
     31  C         16.6160  -23.5850   -6.2950 C.3     1  UNL1        0.1390
     32  C         16.3340  -24.4580   -7.5230 C.3     1  UNL1        0.0540
     33  N         16.6030  -24.4090   -5.1000 N.am    1  UNL1       -0.3210
     34  C         15.5500  -24.1140   -4.2700 C.2     1  UNL1        0.3240
     35  H         17.3880  -24.9490   -4.7580 H       1  UNL1        0.1650
     36  O         15.3920  -24.5700   -3.1530 O.2     1  UNL1       -0.2470
     37  N         14.7560  -23.2060   -4.8810 N.am    1  UNL1       -0.2770
     38  C         15.3410  -22.7500   -6.0250 C.2     1  UNL1        0.2580
     39  H         13.9600  -22.7770   -4.4430 H       1  UNL1        0.1730
     40  O         14.9080  -21.8300   -6.7050 O.2     1  UNL1       -0.2700
@<TRIPOS>BOND
     1    14    12    1
     2    14    15    2
     3    12    10    2
     4    16    15    1
     5    11     9    1
     6    15    17    1
     7    10     9   ar
     8    10    13   ar
     9     9     8   ar
    10    17    13    2
    11    13     7   ar
    12     8     7   ar
    13     8    18    1
    14    19    18    2
    15    19    20    1
    16     7     6    1
    17    18    24    1
    18    20    21    2
    19    24    23    2
    20    21    23    1
    21    21    22    1
    22     6     5    1
    23     5     2    1
    24     4     1    1
    25     2     1   am
    26     2     3    2
    27     1    25    1
    28    32    31    1
    29    25    30    2
    30    25    26    1
    31    30    29    1
    32    40    38    2
    33    26    27    2
    34    29    31    1
    35    29    28    2
    36    31    38    1
    37    31    33    1
    38    38    37   am
    39    27    28    1
    40    33    35    1
    41    33    34   am
    42    37    39    1
    43    37    34   am
    44    34    36    2
