@<TRIPOS>MOLECULE
57263_out_ligand_01.pdbqt
 33 36 0 0 0
SMALL
GASTEIGER

@<TRIPOS>ATOM
      1  C         19.3260  -22.7260  -10.1130 C.2     1  UNL1        0.0320
      2  C         20.1550  -21.6900  -10.5550 C.2     1  UNL1        0.0180
      3  C         21.5420  -21.8250  -10.4450 C.2     1  UNL1        0.0190
      4  C         22.0960  -22.9920   -9.8980 C.2     1  UNL1        0.0000
      5  C         21.2570  -24.0090   -9.4230 C.2     1  UNL1        0.0190
      6  C         19.8710  -23.8740   -9.5240 C.2     1  UNL1        0.0180
      7  C         17.8620  -22.5790  -10.2450 C.2     1  UNL1        0.2530
      8  N         17.0390  -23.0880   -9.2310 N.am    1  UNL1       -0.3480
      9  C         15.6010  -22.9250   -9.3810 C.3     1  UNL1        0.1530
     10  O         17.4430  -22.0120  -11.2510 O.2     1  UNL1       -0.2670
     11  C         17.4890  -24.0590   -8.2300 C.3     1  UNL1        0.1650
     12  C         17.1520  -23.6380   -6.8230 C.2     1  UNL1       -0.0220
     13  C         16.1320  -24.1510   -6.0360 C.2     1  UNL1        0.0600
     14  S         16.0180  -23.4030   -4.5130 S.3     1  UNL1       -0.1010
     15  C         17.3670  -22.3780   -4.8330 C.2     1  UNL1        0.0150
     16  C         17.9240  -21.4180   -3.9620 C.2     1  UNL1        0.0190
     17  C         17.8930  -22.6050   -6.1100 C.2     1  UNL1       -0.0110
     18  C         19.0360  -20.6780   -4.3760 C.2     1  UNL1        0.0010
     19  C         19.5820  -20.8810   -5.6350 C.2     1  UNL1        0.0010
     20  C         19.0220  -21.8290   -6.5010 C.2     1  UNL1        0.0130
     21  S         23.8670  -23.1790   -9.8010 S.3     1  UNL1       -0.1250
     22  C         24.3830  -21.8120  -10.8970 C.3     1  UNL1        0.1170
     23  C         24.4920  -22.2180  -12.3510 C.2     1  UNL1       -0.0490
     24  C         25.1560  -23.4020  -12.7170 C.2     1  UNL1        0.0090
     25  C         25.2770  -23.7590  -14.0620 C.2     1  UNL1        0.0170
     26  C         24.7280  -22.9400  -15.0630 C.2     1  UNL1        0.0310
     27  C         24.0670  -21.7570  -14.7070 C.2     1  UNL1        0.0170
     28  C         23.9470  -21.4010  -13.3600 C.2     1  UNL1        0.0090
     29  C         24.8580  -23.2750  -16.5090 C.2     1  UNL1        0.2490
     30  N         23.7010  -23.3040  -17.2500 N.am    1  UNL1       -0.3660
     31  H         22.8680  -22.8220  -16.9390 H       1  UNL1        0.1590
     32  H         23.8240  -23.4120  -18.2500 H       1  UNL1        0.1590
     33  O         25.9450  -23.4900  -17.0350 O.2     1  UNL1       -0.2680
@<TRIPOS>BOND
     1    32    30    1
     2    30    31    1
     3    30    29   am
     4    33    29    2
     5    29    26    1
     6    26    27    2
     7    26    25    1
     8    27    28    1
     9    25    24    2
    10    28    23    2
    11    24    23    1
    12    23    22    1
    13    10     7    2
    14    22    21    1
    15     2     3    1
    16     2     1    2
    17     3     4    2
    18     7     1    1
    19     7     8   am
    20     1     6    1
    21     4    21    1
    22     4     5    1
    23     6     5    2
    24     9     8    1
    25     8    11    1
    26    11    12    1
    27    12    17    1
    28    12    13    2
    29    20    17    1
    30    20    19    2
    31    17    15    2
    32    13    14    1
    33    19    18    1
    34    15    14    1
    35    15    16    1
    36    18    16    2
