@<TRIPOS>MOLECULE
57260_out_ligand_01.pdbqt
 38 42 0 0 0
SMALL
GASTEIGER

@<TRIPOS>ATOM
      1  C         20.7280  -23.0700  -10.1470 C.2     1  UNL1        0.2560
      2  O         20.9280  -24.0110   -9.3880 O.2     1  UNL1       -0.2670
      3  N         19.5400  -22.3840  -10.3230 N.am    1  UNL1       -0.3230
      4  H         19.4810  -21.7650  -11.1200 H       1  UNL1        0.1690
      5  C         21.8440  -22.6260  -11.0310 C.2     1  UNL1        0.0320
      6  C         23.1470  -23.0350  -10.7230 C.2     1  UNL1        0.0180
      7  C         24.2200  -22.6410  -11.5290 C.2     1  UNL1        0.0170
      8  C         24.0110  -21.8220  -12.6500 C.2     1  UNL1        0.0190
      9  C         22.7030  -21.4020  -12.9370 C.2     1  UNL1        0.0170
     10  C         21.6250  -21.7930  -12.1330 C.2     1  UNL1        0.0180
     11  C         25.1070  -21.3990  -13.5130 C.ar    1  UNL1        0.2030
     12  N         26.2240  -22.0230  -13.8270 N.ar    1  UNL1       -0.1210
     13  N         26.9190  -21.1800  -14.6700 N.ar    1  UNL1       -0.1210
     14  C         26.1770  -20.1000  -14.8170 C.ar    1  UNL1        0.2030
     15  O         25.0060  -20.1670  -14.1060 O.2     1  UNL1       -0.2680
     16  C         26.4230  -18.8930  -15.5960 C.2     1  UNL1        0.0190
     17  C         26.8960  -17.7120  -15.0060 C.2     1  UNL1        0.0160
     18  C         27.1210  -16.5660  -15.7770 C.2     1  UNL1        0.0070
     19  C         26.8870  -16.5820  -17.1550 C.2     1  UNL1       -0.0620
     20  C         27.0960  -15.3410  -17.9730 C.3     1  UNL1        0.0480
     21  C         26.4010  -17.7520  -17.7490 C.2     1  UNL1        0.0070
     22  C         26.1760  -18.8950  -16.9770 C.2     1  UNL1        0.0160
     23  C         18.3500  -22.5340   -9.5790 C.2     1  UNL1        0.0350
     24  C         17.1440  -22.3310  -10.2560 C.2     1  UNL1        0.0290
     25  C         15.9290  -22.4470   -9.5830 C.2     1  UNL1        0.0030
     26  C         15.9090  -22.7700   -8.2260 C.2     1  UNL1        0.0100
     27  C         17.1030  -22.9870   -7.5140 C.2     1  UNL1       -0.0190
     28  C         18.3190  -22.8450   -8.2150 C.2     1  UNL1        0.0390
     29  C         17.0990  -23.3100   -6.0200 C.3     1  UNL1        0.1390
     30  C         17.7530  -24.6450   -5.6460 C.3     1  UNL1        0.0540
     31  N         15.7630  -23.2730   -5.4490 N.am    1  UNL1       -0.3210
     32  C         15.6240  -22.3070   -4.4850 C.2     1  UNL1        0.3240
     33  H         14.9920  -23.8640   -5.7270 H       1  UNL1        0.1650
     34  O         14.5970  -22.0720   -3.8770 O.2     1  UNL1       -0.2470
     35  N         16.8070  -21.6690   -4.3370 N.am    1  UNL1       -0.2770
     36  C         17.7410  -22.1690   -5.1930 C.2     1  UNL1        0.2580
     37  H         16.9650  -20.9140   -3.6940 H       1  UNL1        0.1730
     38  O         18.8950  -21.7700   -5.2610 O.2     1  UNL1       -0.2700
@<TRIPOS>BOND
     1    20    19    1
     2    21    19    2
     3    21    22    1
     4    19    18    1
     5    22    16    2
     6    18    17    2
     7    16    17    1
     8    16    14    1
     9    14    13   ar
    10    14    15   ar
    11    13    12   ar
    12    15    11   ar
    13    12    11   ar
    14    11     8    1
    15     9     8    2
    16     9    10    1
    17     8     7    1
    18    10     5    2
    19     7     6    2
    20     4     3    1
    21     5     6    1
    22     5     1    1
    23     3     1   am
    24     3    23    1
    25    24    25    1
    26    24    23    2
    27     1     2    2
    28    25    26    2
    29    23    28    1
    30    26    27    1
    31    28    27    2
    32    27    29    1
    33    29    30    1
    34    29    31    1
    35    29    36    1
    36    33    31    1
    37    31    32   am
    38    38    36    2
    39    36    35   am
    40    32    35   am
    41    32    34    2
    42    35    37    1
