@<TRIPOS>MOLECULE
57274_out_ligand_01.pdbqt
 37 41 0 0 0
SMALL
GASTEIGER

@<TRIPOS>ATOM
      1  N         20.7060  -21.8680  -11.6350 N.am    1  UNL1       -0.3230
      2  C         19.5260  -21.1590  -11.7490 C.2     1  UNL1        0.2610
      3  O         19.2940  -20.2620  -12.5450 O.2     1  UNL1       -0.2670
      4  H         20.7310  -22.5990  -10.9360 H       1  UNL1        0.1690
      5  C         18.4820  -21.6110  -10.8410 C.2     1  UNL1        0.0970
      6  C         17.1100  -21.3330  -11.0120 C.3     1  UNL1        0.1600
      7  N         16.3400  -21.9740  -10.1380 N.3     1  UNL1       -0.1770
      8  N         17.2100  -22.5170   -9.2450 N.pl3   1  UNL1       -0.2160
      9  C         18.5140  -22.4430   -9.7280 C.2     1  UNL1        0.1530
     10  C         16.6980  -22.9200   -7.9730 C.2     1  UNL1        0.0600
     11  C         15.9650  -24.1050   -7.8100 C.2     1  UNL1        0.0340
     12  C         15.5060  -24.4780   -6.5420 C.2     1  UNL1        0.0440
     13  C         15.7920  -23.6800   -5.4420 C.2     1  UNL1        0.1160
     14  F         15.3520  -24.0450   -4.2300 F       1  UNL1       -0.2060
     15  C         16.5380  -22.5160   -5.5780 C.2     1  UNL1        0.0440
     16  C         17.0010  -22.1400   -6.8420 C.2     1  UNL1        0.0340
     17  N         19.6100  -23.1120   -9.1860 N.pl3   1  UNL1       -0.3170
     18  C         20.6430  -22.5480   -8.4630 C.2     1  UNL1        0.0980
     19  C         21.5700  -23.5190   -8.1550 C.2     1  UNL1        0.0190
     20  C         21.1100  -24.7250   -8.7180 C.2     1  UNL1        0.0190
     21  C         19.9150  -24.4510   -9.3460 C.2     1  UNL1        0.0980
     22  C         21.8910  -21.6950  -12.3760 C.2     1  UNL1        0.0350
     23  C         21.9670  -21.0170  -13.5900 C.2     1  UNL1        0.0300
     24  C         23.1890  -20.8980  -14.2690 C.2     1  UNL1        0.0120
     25  C         24.3750  -21.4390  -13.7470 C.2     1  UNL1       -0.0210
     26  C         24.2810  -22.1300  -12.5250 C.2     1  UNL1        0.0120
     27  C         23.0600  -22.2530  -11.8500 C.2     1  UNL1        0.0300
     28  C         25.7040  -21.3320  -14.4910 C.3     1  UNL1        0.1390
     29  C         26.8750  -22.1080  -13.8790 C.3     1  UNL1        0.0540
     30  N         25.5720  -21.7140  -15.8880 N.am    1  UNL1       -0.3210
     31  C         25.8400  -20.6780  -16.7450 C.2     1  UNL1        0.3240
     32  H         25.2120  -22.5970  -16.2200 H       1  UNL1        0.1650
     33  O         25.7280  -20.7280  -17.9560 O.2     1  UNL1       -0.2470
     34  N         26.2120  -19.5980  -16.0200 N.am    1  UNL1       -0.2770
     35  C         26.1290  -19.8570  -14.6850 C.2     1  UNL1        0.2580
     36  H         26.4330  -18.7010  -16.4150 H       1  UNL1        0.1730
     37  O         26.3670  -19.0410  -13.8060 O.2     1  UNL1       -0.2700
@<TRIPOS>BOND
     1    33    31    2
     2    31    34   am
     3    31    30   am
     4    36    34    1
     5    32    30    1
     6    34    35   am
     7    30    28    1
     8    35    28    1
     9    35    37    2
    10    28    29    1
    11    28    25    1
    12    24    25    2
    13    24    23    1
    14    25    26    1
    15    23    22    2
    16     3     2    2
    17    26    27    2
    18    22    27    1
    19    22     1    1
    20     2     1   am
    21     2     5    1
    22     1     4    1
    23     6     5    1
    24     6     7    1
    25     5     9    2
    26     7     8    1
    27     9     8    1
    28     9    17    1
    29    21    17    1
    30    21    20    2
    31     8    10    1
    32    17    18    1
    33    20    19    1
    34    18    19    2
    35    10    11    2
    36    10    16    1
    37    11    12    1
    38    16    15    2
    39    12    13    2
    40    15    13    1
    41    13    14    1
