@<TRIPOS>MOLECULE
57277_out_ligand_01.pdbqt
 28 31 0 0 0
SMALL
GASTEIGER

@<TRIPOS>ATOM
      1  C         23.2350  -22.4360  -11.8740 C.2     1  UNL1        0.0400
      2  C         22.8870  -21.6040  -12.9450 C.2     1  UNL1        0.0180
      3  C         21.6010  -21.0970  -13.0280 C.2     1  UNL1        0.0030
      4  C         20.6540  -21.4450  -12.0640 C.2     1  UNL1        0.0300
      5  C         20.9590  -22.3090  -10.9960 C.2     1  UNL1        0.0440
      6  C         22.2950  -22.7660  -10.8690 C.2     1  UNL1       -0.0150
      7  C         22.6910  -23.6490   -9.7120 C.3     1  UNL1        0.0430
      8  C         21.8010  -23.3900   -8.5150 C.3     1  UNL1        0.0250
      9  C         20.3570  -23.5640   -8.9280 C.3     1  UNL1        0.1330
     10  N         19.9470  -22.6850  -10.0310 N.am    1  UNL1       -0.3130
     11  C         18.5700  -22.5600  -10.3200 C.2     1  UNL1        0.2580
     12  O         18.0670  -22.3660  -11.4250 O.2     1  UNL1       -0.2670
     13  C         17.6080  -22.6860   -9.2010 C.2     1  UNL1        0.0340
     14  C         16.3330  -23.2080   -9.4310 C.2     1  UNL1        0.0170
     15  C         15.4500  -23.3420   -8.3640 C.2     1  UNL1        0.0030
     16  C         15.8440  -22.9700   -7.0720 C.2     1  UNL1        0.0300
     17  C         17.1350  -22.4700   -6.8280 C.2     1  UNL1        0.0390
     18  C         18.0210  -22.3380   -7.9070 C.2     1  UNL1        0.0470
     19  N         17.5380  -22.1070   -5.5040 N.pl3   1  UNL1       -0.3330
     20  C         18.5930  -21.2820   -5.1560 C.2     1  UNL1        0.0960
     21  C         18.6660  -21.1800   -3.7840 C.2     1  UNL1        0.0190
     22  C         17.6250  -21.9630   -3.2530 C.2     1  UNL1        0.0190
     23  C         16.9510  -22.5190   -4.3190 C.2     1  UNL1        0.0960
     24  C         24.6290  -22.9460  -11.8510 C.2     1  UNL1        0.2490
     25  N         24.8570  -24.0600  -12.6110 N.am    1  UNL1       -0.3660
     26  H         25.7770  -24.4760  -12.5590 H       1  UNL1        0.1590
     27  H         24.1090  -24.5870  -13.0400 H       1  UNL1        0.1590
     28  O         25.5170  -22.4170  -11.2010 O.2     1  UNL1       -0.2680
@<TRIPOS>BOND
     1    27    25    1
     2     3     2    1
     3     3     4    2
     4     2     1    2
     5    25    26    1
     6    25    24   am
     7     4     5    1
     8     1    24    1
     9     1     6    1
    10    24    28    2
    11    12    11    2
    12     5     6    2
    13     5    10    1
    14     6     7    1
    15    11    10   am
    16    11    13    1
    17    10     9    1
    18     7     8    1
    19    14    13    2
    20    14    15    1
    21    13    18    1
    22     9     8    1
    23    15    16    2
    24    18    17    2
    25    16    17    1
    26    17    19    1
    27    19    20    1
    28    19    23    1
    29    20    21    2
    30    23    22    2
    31    21    22    1
