@<TRIPOS>MOLECULE
57284_out_ligand_01.pdbqt
 32 35 0 0 0
SMALL
GASTEIGER

@<TRIPOS>ATOM
      1  N         20.9310  -22.2380   -9.3330 N.am    1  UNL1       -0.3220
      2  C         20.6470  -23.4110   -8.6550 C.2     1  UNL1        0.2570
      3  O         21.2340  -24.4790   -8.7560 O.2     1  UNL1       -0.2670
      4  H         20.2740  -21.4720   -9.2510 H       1  UNL1        0.1690
      5  C         22.0050  -22.0190  -10.2250 C.2     1  UNL1        0.0520
      6  C         21.9240  -22.1480  -11.6090 C.2     1  UNL1        0.0350
      7  C         23.0530  -21.9130  -12.3960 C.2     1  UNL1        0.0600
      8  C         24.2410  -21.5650  -11.7700 C.2     1  UNL1        0.1690
      9  N         24.3610  -21.4240  -10.4320 N.2     1  UNL1       -0.2350
     10  C         23.2470  -21.6560   -9.7000 C.2     1  UNL1        0.1490
     11  O         25.3220  -21.3140  -12.6080 O.2     1  UNL1       -0.2920
     12  C         25.2240  -21.7500  -13.9060 C.2     1  UNL1        0.0770
     13  C         25.2860  -23.1060  -14.2300 C.2     1  UNL1        0.0380
     14  C         25.1130  -23.5120  -15.5550 C.2     1  UNL1        0.0090
     15  C         24.8710  -22.5660  -16.5610 C.2     1  UNL1       -0.0620
     16  C         24.6520  -23.0060  -17.9780 C.3     1  UNL1        0.0480
     17  C         24.7740  -21.2110  -16.2160 C.2     1  UNL1        0.0090
     18  C         24.9470  -20.8040  -14.8910 C.2     1  UNL1        0.0380
     19  C         19.4830  -23.3510   -7.7440 C.2     1  UNL1        0.0510
     20  C         18.3650  -24.1530   -7.9260 C.2     1  UNL1        0.1360
     21  N         17.2760  -24.1250   -7.1160 N.2     1  UNL1       -0.2410
     22  C         17.2740  -23.2410   -6.0850 C.ar    1  UNL1        0.1480
     23  C         18.3470  -22.3900   -5.8560 C.ar    1  UNL1        0.0790
     24  N         16.1470  -23.1960   -5.2360 N.ar    1  UNL1       -0.2870
     25  C         19.4650  -22.4360   -6.6930 C.2     1  UNL1        0.0390
     26  C         18.2850  -21.4590   -4.7280 C.ar    1  UNL1        0.2630
     27  O         19.2150  -20.7070   -4.4670 O.2     1  UNL1       -0.2670
     28  N         17.1380  -21.4930   -3.9850 N.ar    1  UNL1       -0.2750
     29  C         16.0660  -22.3210   -4.1740 C.ar    1  UNL1        0.3300
     30  H         17.0770  -20.8600   -3.2010 H       1  UNL1        0.1730
     31  O         15.1080  -22.2500   -3.4090 O.2     1  UNL1       -0.2460
     32  C         15.0490  -24.1060   -5.5180 C.3     1  UNL1        0.1630
@<TRIPOS>BOND
     1    16    15    1
     2    15    17    2
     3    15    14    1
     4    17    18    1
     5    14    13    2
     6    18    12    2
     7    13    12    1
     8    12    11    1
     9    11     8    1
    10     7     8    1
    11     7     6    2
    12     8     9    2
    13     6     5    1
    14     9    10    1
    15     5    10    2
    16     5     1    1
    17     1     4    1
    18     1     2   am
    19     3     2    2
    20     2    19    1
    21    20    19    2
    22    20    21    1
    23    19    25    1
    24    21    22    2
    25    25    23    2
    26    22    23   ar
    27    22    24   ar
    28    23    26   ar
    29    32    24    1
    30    24    29   ar
    31    26    27    2
    32    26    28   ar
    33    29    28   ar
    34    29    31    2
    35    28    30    1
