@<TRIPOS>MOLECULE
57285_out_ligand_01.pdbqt
 31 34 0 0 0
SMALL
GASTEIGER

@<TRIPOS>ATOM
      1  N         22.2770  -23.4770   -9.1900 N.am    1  UNL1       -0.3530
      2  C         21.5770  -22.5760   -8.4220 C.2     1  UNL1        0.2520
      3  O         22.0910  -21.7180   -7.7140 O.2     1  UNL1       -0.2680
      4  H         21.7650  -24.1270   -9.7730 H       1  UNL1        0.1630
      5  C         23.7010  -23.3580   -9.3980 C.3     1  UNL1        0.1610
      6  C         23.9770  -22.6040  -10.6740 C.2     1  UNL1       -0.0400
      7  C         23.0550  -22.6500  -11.7320 C.2     1  UNL1        0.0100
      8  C         23.3240  -22.0030  -12.9400 C.2     1  UNL1        0.0170
      9  C         24.5230  -21.2990  -13.1030 C.2     1  UNL1        0.0320
     10  C         25.4530  -21.2640  -12.0590 C.2     1  UNL1        0.0170
     11  C         25.1820  -21.9110  -10.8510 C.2     1  UNL1        0.0100
     12  C         24.8630  -20.6060  -14.3760 C.2     1  UNL1        0.2510
     13  N         24.8260  -21.3780  -15.5190 N.am    1  UNL1       -0.3570
     14  H         24.4060  -22.2960  -15.4750 H       1  UNL1        0.1620
     15  O         25.1230  -19.4080  -14.3720 O.2     1  UNL1       -0.2680
     16  C         25.0520  -20.8020  -16.8290 C.3     1  UNL1        0.1230
     17  C         24.9950  -21.8600  -17.9300 C.3     1  UNL1        0.0190
     18  C         24.4760  -23.2120  -17.4390 C.3     1  UNL1       -0.0030
     19  C         23.2140  -23.6700  -18.1530 C.3     1  UNL1        0.0050
     20  C         20.1070  -22.7250   -8.4620 C.2     1  UNL1        0.0430
     21  C         19.5000  -23.4170   -7.3890 C.2     1  UNL1        0.0180
     22  C         18.1150  -23.6340   -7.3640 C.2     1  UNL1        0.0090
     23  C         17.3510  -23.1490   -8.4120 C.2     1  UNL1       -0.0460
     24  C         17.9570  -22.4610   -9.4350 C.2     1  UNL1       -0.0120
     25  C         15.8680  -23.2420   -8.6160 C.2     1  UNL1        0.0440
     26  C         17.0170  -22.0530  -10.3480 C.2     1  UNL1       -0.0460
     27  C         19.3260  -22.1990   -9.5260 C.2     1  UNL1       -0.0090
     28  C         17.4120  -21.3200  -11.4550 C.2     1  UNL1        0.0080
     29  C         15.6380  -22.4930   -9.9530 C.2     1  UNL1        0.0440
     30  C         18.7690  -21.0070  -11.6030 C.2     1  UNL1        0.0010
     31  C         19.7170  -21.4330  -10.6550 C.2     1  UNL1        0.0130
@<TRIPOS>BOND
     1    19    18    1
     2    17    18    1
     3    17    16    1
     4    16    13    1
     5    13    14    1
     6    13    12   am
     7    12    15    2
     8    12     9    1
     9     9     8    2
    10     9    10    1
    11     8     7    1
    12    10    11    2
    13     7     6    2
    14    30    28    1
    15    30    31    2
    16    28    26    2
    17    11     6    1
    18     6     5    1
    19    31    27    1
    20    26    29    1
    21    26    24    1
    22    29    25    2
    23     4     1    1
    24    27    24    1
    25    27    20    2
    26    24    23    2
    27     5     1    1
    28     1     2   am
    29    25    23    1
    30    20     2    1
    31    20    21    1
    32     2     3    2
    33    23    22    1
    34    21    22    2
