@<TRIPOS>MOLECULE
57294_out_ligand_01.pdbqt
 33 36 0 0 0
SMALL
GASTEIGER

@<TRIPOS>ATOM
      1  C         18.5100  -22.4250  -10.6290 C.2     1  UNL1        0.0350
      2  C         17.7070  -21.4090  -11.1630 C.2     1  UNL1        0.0290
      3  C         16.3690  -21.2880  -10.7840 C.2     1  UNL1        0.0030
      4  C         15.8210  -22.1800   -9.8660 C.2     1  UNL1        0.0070
      5  C         16.6080  -23.1990   -9.3170 C.2     1  UNL1       -0.0560
      6  C         17.9540  -23.3110   -9.7060 C.2     1  UNL1        0.0360
      7  N         19.8520  -22.4760  -11.0610 N.am    1  UNL1       -0.3230
      8  C         20.6520  -21.4170  -11.4410 C.2     1  UNL1        0.2570
      9  O         20.3880  -20.2220  -11.4150 O.2     1  UNL1       -0.2670
     10  H         20.2810  -23.3940  -11.0460 H       1  UNL1        0.1690
     11  C         22.0050  -21.8110  -11.8660 C.2     1  UNL1        0.0500
     12  C         22.4170  -21.5040  -13.1680 C.2     1  UNL1        0.0440
     13  C         23.7120  -21.8310  -13.5650 C.2     1  UNL1        0.0340
     14  C         24.1570  -21.4950  -14.9600 C.3     1  UNL1        0.0700
     15  N         24.6220  -22.4360  -12.7660 N.2     1  UNL1       -0.2340
     16  C         24.1580  -22.7380  -11.5410 C.ar    1  UNL1        0.1570
     17  N         24.8560  -23.3710  -10.5560 N.ar    1  UNL1       -0.2600
     18  C         22.9000  -22.4820  -11.0170 C.ar    1  UNL1        0.0530
     19  N         24.1480  -23.5640   -9.4280 N.ar    1  UNL1       -0.1770
     20  H         25.8120  -23.6980  -10.6050 H       1  UNL1        0.1910
     21  C         22.9390  -23.0570   -9.7150 C.ar    1  UNL1        0.0660
     22  C         21.8520  -23.1650   -8.7070 C.3     1  UNL1        0.0730
     23  C         16.0220  -24.1690   -8.3230 C.3     1  UNL1        0.0410
     24  C         15.7560  -23.5930   -6.9250 C.3     1  UNL1        0.0410
     25  C         16.8400  -23.9550   -5.9000 C.3     1  UNL1        0.1510
     26  O         16.2360  -24.3490   -4.6700 O.3     1  UNL1       -0.3910
     27  H         15.8900  -23.5420   -4.2530 H       1  UNL1        0.2100
     28  C         17.7710  -22.7900   -5.6250 C.2     1  UNL1       -0.0300
     29  C         17.6470  -22.0290   -4.4520 C.2     1  UNL1        0.0100
     30  C         18.5040  -20.9560   -4.2070 C.2     1  UNL1        0.0010
     31  C         19.4930  -20.6280   -5.1310 C.2     1  UNL1        0.0000
     32  C         19.6270  -21.3750   -6.3010 C.2     1  UNL1        0.0010
     33  C         18.7710  -22.4500   -6.5480 C.2     1  UNL1        0.0100
@<TRIPOS>BOND
     1    14    13    1
     2    13    12    1
     3    13    15    2
     4    12    11    2
     5    15    16    1
     6    11     8    1
     7    11    18    1
     8    16    18   ar
     9    16    17   ar
    10     8     9    2
    11     8     7   am
    12     2     3    1
    13     2     1    2
    14     7    10    1
    15     7     1    1
    16    18    21   ar
    17     3     4    2
    18     1     6    1
    19    20    17    1
    20    17    19   ar
    21     4     5    1
    22    21    19   ar
    23    21    22    1
    24     6     5    2
    25     5    23    1
    26    23    24    1
    27    24    25    1
    28    33    32    1
    29    33    28    2
    30    32    31    2
    31    25    28    1
    32    25    26    1
    33    28    29    1
    34    31    30    1
    35    26    27    1
    36    29    30    2
