@<TRIPOS>MOLECULE
57295_out_ligand_01.pdbqt
 35 38 0 0 0
SMALL
GASTEIGER

@<TRIPOS>ATOM
      1  N         19.4610  -22.3060  -10.4500 N.am    1  UNL1       -0.3210
      2  C         19.7590  -21.3000  -11.3510 C.2     1  UNL1        0.2800
      3  O         19.0130  -20.3810  -11.6700 O.2     1  UNL1       -0.2650
      4  H         20.2040  -22.9820  -10.3070 H       1  UNL1        0.1690
      5  C         18.2700  -22.5090   -9.7290 C.2     1  UNL1        0.0350
      6  C         17.0410  -22.8000  -10.3150 C.2     1  UNL1        0.0290
      7  C         15.9130  -22.9950   -9.5180 C.2     1  UNL1        0.0030
      8  C         15.9990  -22.9000   -8.1280 C.2     1  UNL1        0.0100
      9  C         17.2220  -22.6100   -7.5030 C.2     1  UNL1       -0.0190
     10  C         18.3480  -22.4120   -8.3310 C.2     1  UNL1        0.0390
     11  C         17.3530  -22.4790   -5.9890 C.3     1  UNL1        0.1390
     12  C         18.6910  -21.8620   -5.5770 C.3     1  UNL1        0.0540
     13  N         16.2610  -21.7430   -5.3800 N.am    1  UNL1       -0.3210
     14  C         15.5450  -22.4910   -4.4820 C.2     1  UNL1        0.3240
     15  H         16.0660  -20.7600   -5.5110 H       1  UNL1        0.1650
     16  O         14.6190  -22.0750   -3.8100 O.2     1  UNL1       -0.2470
     17  N         16.0560  -23.7400   -4.4530 N.am    1  UNL1       -0.2770
     18  C         17.1510  -23.8310   -5.2560 C.2     1  UNL1        0.2580
     19  H         15.7270  -24.4680   -3.8440 H       1  UNL1        0.1730
     20  O         17.8580  -24.8260   -5.3470 O.2     1  UNL1       -0.2700
     21  C         21.0940  -21.4290  -11.9110 C.2     1  UNL1        0.1460
     22  C         22.3080  -21.7340  -11.3040 C.2     1  UNL1        0.0590
     23  C         23.2710  -21.7220  -12.3280 C.2     1  UNL1        0.0330
     24  C         24.6750  -21.9400  -12.4190 C.2     1  UNL1        0.0670
     25  C         22.5990  -21.4150  -13.4800 C.2     1  UNL1        0.1620
     26  C         25.2790  -21.8360  -13.6240 C.2     1  UNL1        0.0910
     27  C         24.4960  -21.4970  -14.8600 C.2     1  UNL1        0.2480
     28  O         25.0660  -21.4090  -15.9420 O.2     1  UNL1       -0.2680
     29  N         23.1420  -21.2950  -14.7210 N.am    1  UNL1       -0.3030
     30  H         22.5800  -21.0630  -15.5260 H       1  UNL1        0.1710
     31  O         21.2820  -21.2340  -13.2660 O.2     1  UNL1       -0.2870
     32  C         25.3910  -22.2730  -11.1530 C.3     1  UNL1        0.4180
     33  F         25.4060  -21.2310  -10.2800 F       1  UNL1       -0.1660
     34  F         24.8170  -23.3150  -10.4990 F       1  UNL1       -0.1660
     35  F         26.6880  -22.6090  -11.3730 F       1  UNL1       -0.1660
@<TRIPOS>BOND
     1    28    27    2
     2    30    29    1
     3    27    29   am
     4    27    26    1
     5    29    25    1
     6    26    24    2
     7    25    31    1
     8    25    23    2
     9    31    21    1
    10    24    23    1
    11    24    32    1
    12    23    22    1
    13    21     2    1
    14    21    22    2
    15     3     2    2
    16    35    32    1
    17     2     1   am
    18    32    34    1
    19    32    33    1
    20     1     4    1
    21     1     5    1
    22     6     5    2
    23     6     7    1
    24     5    10    1
    25     7     8    2
    26    10     9    2
    27     8     9    1
    28     9    11    1
    29    11    12    1
    30    11    13    1
    31    11    18    1
    32    15    13    1
    33    13    14   am
    34    20    18    2
    35    18    17   am
    36    14    17   am
    37    14    16    2
    38    17    19    1
