@<TRIPOS>MOLECULE
57297_out_ligand_01.pdbqt
 34 38 0 0 0
SMALL
GASTEIGER

@<TRIPOS>ATOM
      1  C         22.4170  -21.7530  -10.1730 C.2     1  UNL1        0.2800
      2  O         23.0310  -21.0300   -9.3950 O.2     1  UNL1       -0.2650
      3  N         22.9840  -22.4900  -11.1990 N.am    1  UNL1       -0.3210
      4  H         22.3200  -23.0350  -11.7380 H       1  UNL1        0.1690
      5  C         24.3360  -22.5670  -11.5810 C.2     1  UNL1        0.0350
      6  C         25.3150  -23.2420  -10.8590 C.2     1  UNL1        0.0290
      7  C         26.6340  -23.2600  -11.3130 C.2     1  UNL1        0.0030
      8  C         26.9880  -22.6040  -12.4920 C.2     1  UNL1        0.0100
      9  C         26.0270  -21.9120  -13.2460 C.2     1  UNL1       -0.0190
     10  C         24.6990  -21.9130  -12.7680 C.2     1  UNL1        0.0390
     11  C         26.3710  -21.2020  -14.5510 C.3     1  UNL1        0.1390
     12  C         27.1160  -22.1150  -15.5250 C.3     1  UNL1        0.0540
     13  N         27.1170  -19.9720  -14.3560 N.am    1  UNL1       -0.3210
     14  C         26.4550  -18.8650  -14.8160 C.2     1  UNL1        0.3240
     15  H         28.0590  -19.9050  -13.9960 H       1  UNL1        0.1650
     16  O         26.9020  -17.7320  -14.8060 O.2     1  UNL1       -0.2470
     17  N         25.2530  -19.2460  -15.2970 N.am    1  UNL1       -0.2770
     18  C         25.1210  -20.6000  -15.2460 C.2     1  UNL1        0.2580
     19  H         24.5950  -18.6210  -15.7300 H       1  UNL1        0.1730
     20  O         24.1700  -21.2160  -15.7060 O.2     1  UNL1       -0.2700
     21  C         20.9730  -21.9270  -10.0990 C.ar    1  UNL1        0.1500
     22  C         19.9500  -21.5130  -10.9400 C.ar    1  UNL1       -0.0090
     23  C         20.1020  -20.7440  -12.2030 C.3     1  UNL1        0.0520
     24  C         18.7350  -21.9760  -10.3460 C.ar    1  UNL1        0.0070
     25  C         19.0990  -22.6430   -9.1820 C.ar    1  UNL1        0.0980
     26  C         17.3680  -21.9010  -10.6720 C.2     1  UNL1        0.0160
     27  O         20.4540  -22.6120   -9.0310 O.2     1  UNL1       -0.3030
     28  C         18.1790  -23.2530   -8.3050 C.2     1  UNL1        0.0090
     29  C         18.5960  -23.9200   -7.1380 C.2     1  UNL1        0.0150
     30  C         16.8100  -23.1670   -8.6470 C.2     1  UNL1       -0.0230
     31  C         17.6460  -24.5050   -6.3050 C.2     1  UNL1        0.0010
     32  C         16.2900  -24.4280   -6.6290 C.2     1  UNL1        0.0010
     33  C         15.8750  -23.7650   -7.7890 C.2     1  UNL1        0.0120
     34  C         16.4230  -22.4960   -9.8190 C.2     1  UNL1        0.0130
@<TRIPOS>BOND
     1    19    17    1
     2    20    18    2
     3    12    11    1
     4    17    18   am
     5    17    14   am
     6    18    11    1
     7    14    16    2
     8    14    13   am
     9    11    13    1
    10    11     9    1
    11    13    15    1
    12     9    10    1
    13     9     8    2
    14    10     5    2
    15     8     7    1
    16    23    22    1
    17     4     3    1
    18     5     3    1
    19     5     6    1
    20     7     6    2
    21     3     1   am
    22    22    24   ar
    23    22    21   ar
    24    26    24    2
    25    26    34    1
    26    24    25   ar
    27     1    21    1
    28     1     2    2
    29    21    27   ar
    30    34    30    2
    31    25    27   ar
    32    25    28    2
    33    30    28    1
    34    30    33    1
    35    28    29    1
    36    33    32    2
    37    29    31    2
    38    32    31    1
