@<TRIPOS>MOLECULE
57290_out_ligand_01.pdbqt
 34 37 0 0 0
SMALL
GASTEIGER

@<TRIPOS>ATOM
      1  C         19.7230  -23.4290   -9.1990 C.ar    1  UNL1        0.1560
      2  N         19.2600  -24.0590   -8.1570 N.ar    1  UNL1       -0.1630
      3  N         17.9300  -23.9240   -7.8320 N.ar    1  UNL1       -0.2290
      4  C         17.0240  -23.1480   -8.5490 C.ar    1  UNL1        0.2750
      5  O         15.8330  -23.0370   -8.2640 O.2     1  UNL1       -0.2660
      6  C         17.5640  -22.4110   -9.7070 C.ar    1  UNL1        0.0460
      7  C         16.7200  -21.5760  -10.4550 C.2     1  UNL1        0.0180
      8  C         17.2290  -20.8590  -11.5360 C.2     1  UNL1        0.0010
      9  C         18.5780  -20.9700  -11.8650 C.2     1  UNL1        0.0010
     10  C         19.4190  -21.8020  -11.1210 C.2     1  UNL1        0.0150
     11  C         18.9090  -22.5350  -10.0410 C.ar    1  UNL1        0.0160
     12  C         21.2100  -23.6500   -9.4840 C.2     1  UNL1        0.2770
     13  N         21.7100  -22.7020  -10.3500 N.am    1  UNL1       -0.3190
     14  H         21.0630  -21.9530  -10.5940 H       1  UNL1        0.1690
     15  O         21.8030  -24.5720   -8.9520 O.2     1  UNL1       -0.2660
     16  C         23.0210  -22.5830  -10.8480 C.2     1  UNL1        0.0740
     17  C         23.9000  -21.7560  -10.1360 C.2     1  UNL1        0.1430
     18  C         25.2160  -21.5690  -10.5430 C.2     1  UNL1        0.0460
     19  F         23.4680  -21.1290   -9.0310 F       1  UNL1       -0.2040
     20  C         25.6790  -22.2100  -11.6910 C.2     1  UNL1        0.0200
     21  C         24.8120  -23.0320  -12.4270 C.2     1  UNL1        0.0340
     22  C         23.4880  -23.2260  -11.9970 C.2     1  UNL1        0.0500
     23  C         25.2670  -23.7350  -13.6560 C.2     1  UNL1        0.2490
     24  N         25.2090  -23.0430  -14.8350 N.am    1  UNL1       -0.3660
     25  H         24.6390  -22.2170  -14.9470 H       1  UNL1        0.1590
     26  H         25.4010  -23.5880  -15.6670 H       1  UNL1        0.1590
     27  O         25.6470  -24.8980  -13.6330 O.2     1  UNL1       -0.2680
     28  C         17.4500  -24.7320   -6.7130 C.3     1  UNL1        0.1930
     29  C         17.0510  -23.8850   -5.5270 C.2     1  UNL1       -0.0380
     30  C         15.7510  -23.9560   -5.0050 C.2     1  UNL1        0.0090
     31  C         15.3800  -23.1590   -3.9210 C.2     1  UNL1        0.0010
     32  C         16.2990  -22.2810   -3.3520 C.2     1  UNL1        0.0000
     33  C         17.5900  -22.1920   -3.8710 C.2     1  UNL1        0.0010
     34  C         17.9630  -22.9870   -4.9560 C.2     1  UNL1        0.0090
@<TRIPOS>BOND
     1    26    24    1
     2    25    24    1
     3    24    23   am
     4    23    27    2
     5    23    21    1
     6    21    22    1
     7    21    20    2
     8    22    16    2
     9     9     8    2
    10     9    10    1
    11    20    18    1
    12     8     7    1
    13    10    11    2
    14    16    13    1
    15    16    17    1
    16    14    13    1
    17    18    17    2
    18     7     6    2
    19    13    12   am
    20    17    19    1
    21    11     6   ar
    22    11     1   ar
    23     6     4   ar
    24    12     1    1
    25    12    15    2
    26     1     2   ar
    27     4     5    2
    28     4     3   ar
    29     2     3   ar
    30     3    28    1
    31    28    29    1
    32    29    30    2
    33    29    34    1
    34    30    31    1
    35    34    33    2
    36    31    32    2
    37    33    32    1
