@<TRIPOS>MOLECULE
57305_out_ligand_01.pdbqt
 37 41 0 0 0
SMALL
GASTEIGER

@<TRIPOS>ATOM
      1  C         20.6290  -22.1340  -11.0940 C.2     1  UNL1        0.0320
      2  C         21.1880  -21.6040  -12.2640 C.2     1  UNL1        0.0190
      3  C         22.5330  -21.8380  -12.5650 C.2     1  UNL1        0.0310
      4  C         23.3180  -22.6020  -11.7010 C.2     1  UNL1        0.0420
      5  C         22.7640  -23.1490  -10.5450 C.2     1  UNL1        0.0310
      6  C         21.4200  -22.9170  -10.2420 C.2     1  UNL1        0.0190
      7  N         24.6720  -22.8790  -12.0290 N.pl3   1  UNL1       -0.2810
      8  H         25.0330  -23.8030  -11.7920 H       1  UNL1        0.1790
      9  S         25.8280  -21.6900  -11.6860 S.O2    1  UNL1        0.2630
     10  O         27.0850  -22.3920  -11.5320 O.2     1  UNL1       -0.2000
     11  O         25.3330  -20.8130  -10.6470 O.2     1  UNL1       -0.2000
     12  C         25.9090  -20.7810  -13.2120 C.2     1  UNL1        0.0820
     13  C         25.5330  -21.4250  -14.4170 C.2     1  UNL1        0.0280
     14  C         25.5890  -20.7430  -15.6380 C.2     1  UNL1        0.0330
     15  C         26.0280  -19.4400  -15.5960 C.ar    1  UNL1        0.0630
     16  N         26.1760  -18.5210  -16.6290 N.ar    1  UNL1       -0.3070
     17  C         26.4100  -18.8180  -14.4070 C.ar    1  UNL1        0.0640
     18  C         26.6470  -17.3150  -16.0940 C.ar    1  UNL1        0.3250
     19  H         25.9800  -18.6570  -17.6090 H       1  UNL1        0.1700
     20  O         26.8800  -16.2920  -16.7100 O.2     1  UNL1       -0.2470
     21  N         26.7900  -17.5180  -14.7120 N.ar    1  UNL1       -0.3060
     22  H         27.1100  -16.8090  -14.0740 H       1  UNL1        0.1700
     23  C         26.3730  -19.4600  -13.1930 C.2     1  UNL1        0.0570
     24  C         19.2000  -21.9230  -10.7370 C.2     1  UNL1        0.2510
     25  O         18.6230  -20.9060  -11.1030 O.2     1  UNL1       -0.2680
     26  N         18.6020  -22.9350  -10.0170 N.am    1  UNL1       -0.3530
     27  H         19.0820  -23.8140   -9.8930 H       1  UNL1        0.1630
     28  C         17.1880  -22.9090   -9.7060 C.3     1  UNL1        0.1610
     29  C         16.8770  -23.0710   -8.2330 C.2     1  UNL1       -0.0400
     30  C         15.8750  -23.9500   -7.7630 C.2     1  UNL1        0.0090
     31  C         15.6390  -24.1190   -6.3930 C.2     1  UNL1        0.0080
     32  C         16.4140  -23.4050   -5.4960 C.2     1  UNL1       -0.0520
     33  C         17.4210  -22.5450   -5.9430 C.2     1  UNL1       -0.0510
     34  C         16.3740  -23.4460   -3.9990 C.3     1  UNL1        0.0390
     35  C         17.6680  -22.3760   -7.2970 C.2     1  UNL1        0.0160
     36  C         18.1530  -21.9350   -4.7860 C.3     1  UNL1        0.0390
     37  C         17.1560  -22.1720   -3.6430 C.3     1  UNL1        0.0090
@<TRIPOS>BOND
     1    19    16    1
     2    20    18    2
     3    16    18   ar
     4    16    15   ar
     5    18    21   ar
     6    14    15    2
     7    14    13    1
     8    15    17   ar
     9    21    17   ar
    10    21    22    1
    11    13    12    2
    12    17    23    2
    13    12    23    1
    14    12     9    1
    15     3     2    1
    16     3     4    2
    17     2     1    2
    18     7     8    1
    19     7     4    1
    20     7     9    1
    21     4     5    1
    22     9    10    2
    23     9    11    2
    24    25    24    2
    25     1    24    1
    26     1     6    1
    27    24    26   am
    28     5     6    2
    29    26    27    1
    30    26    28    1
    31    28    29    1
    32    29    30    2
    33    29    35    1
    34    30    31    1
    35    35    33    2
    36    31    32    2
    37    33    32    1
    38    33    36    1
    39    32    34    1
    40    36    37    1
    41    34    37    1
