@<TRIPOS>MOLECULE
57300_out_ligand_01.pdbqt
 37 41 0 0 0
SMALL
GASTEIGER

@<TRIPOS>ATOM
      1  C         18.9570  -21.7540  -10.8910 C.2     1  UNL1        0.2560
      2  O         18.7150  -20.9010  -11.7370 O.2     1  UNL1       -0.2670
      3  N         20.1620  -22.3920  -10.6640 N.am    1  UNL1       -0.3230
      4  H         20.2220  -22.9680   -9.8360 H       1  UNL1        0.1690
      5  C         21.3570  -22.2520  -11.4050 C.2     1  UNL1        0.0370
      6  C         22.4880  -22.9240  -10.9100 C.2     1  UNL1        0.0320
      7  C         23.7300  -22.8670  -11.5570 C.2     1  UNL1        0.0340
      8  C         23.7860  -22.1080  -12.7240 C.ar    1  UNL1        0.0630
      9  N         24.8030  -21.8280  -13.6000 N.ar    1  UNL1       -0.3380
     10  C         22.6930  -21.4330  -13.2450 C.ar    1  UNL1        0.0880
     11  C         24.3210  -21.0190  -14.6050 C.ar    1  UNL1        0.1390
     12  H         25.7500  -22.1600  -13.5150 H       1  UNL1        0.1670
     13  N         23.0390  -20.7740  -14.4000 N.ar    1  UNL1       -0.2280
     14  C         21.4560  -21.5020  -12.5830 C.2     1  UNL1        0.0630
     15  C         25.1190  -20.5080  -15.7270 C.2     1  UNL1        0.0130
     16  C         25.2490  -21.2950  -16.8850 C.2     1  UNL1        0.0150
     17  C         25.9970  -20.8560  -17.9830 C.2     1  UNL1        0.0040
     18  C         26.6290  -19.6170  -17.9350 C.2     1  UNL1        0.0420
     19  C         26.5060  -18.8370  -16.7920 C.2     1  UNL1        0.1170
     20  F         27.1150  -17.6440  -16.7430 F       1  UNL1       -0.2060
     21  C         25.7630  -19.2650  -15.6950 C.2     1  UNL1        0.0570
     22  C         17.8620  -22.1460   -9.9610 C.2     1  UNL1        0.0330
     23  C         16.5870  -22.4710  -10.4300 C.2     1  UNL1        0.0170
     24  C         15.5930  -22.8300   -9.5230 C.2     1  UNL1        0.0020
     25  C         15.8630  -22.8480   -8.1510 C.2     1  UNL1        0.0100
     26  C         17.1290  -22.4920   -7.6490 C.2     1  UNL1       -0.0200
     27  C         18.1260  -22.1510   -8.5820 C.2     1  UNL1        0.0270
     28  C         17.4440  -22.5080   -6.1540 C.3     1  UNL1        0.1390
     29  C         18.8610  -22.0460   -5.8050 C.3     1  UNL1        0.0540
     30  N         16.4940  -21.7380   -5.3700 N.am    1  UNL1       -0.3210
     31  C         15.8230  -22.5020   -4.4500 C.2     1  UNL1        0.3240
     32  H         16.3490  -20.7410   -5.4390 H       1  UNL1        0.1650
     33  O         14.9890  -22.0790   -3.6700 O.2     1  UNL1       -0.2470
     34  N         16.2390  -23.7820   -4.5610 N.am    1  UNL1       -0.2770
     35  C         17.1840  -23.9020   -5.5350 C.2     1  UNL1        0.2580
     36  H         15.8950  -24.5400   -3.9990 H       1  UNL1        0.1730
     37  O         17.7310  -24.9540   -5.8390 O.2     1  UNL1       -0.2700
@<TRIPOS>BOND
     1    17    18    2
     2    17    16    1
     3    18    19    1
     4    16    15    2
     5    19    20    1
     6    19    21    2
     7    15    21    1
     8    15    11    1
     9    11    13   ar
    10    11     9   ar
    11    13    10   ar
    12     9    12    1
    13     9     8   ar
    14    10     8   ar
    15    10    14    1
    16     8     7    1
    17    14     5    2
    18     2     1    2
    19     7     6    2
    20     5     6    1
    21     5     3    1
    22     1     3   am
    23     1    22    1
    24     3     4    1
    25    23    22    2
    26    23    24    1
    27    22    27    1
    28    24    25    2
    29    27    26    2
    30    25    26    1
    31    26    28    1
    32    28    29    1
    33    28    35    1
    34    28    30    1
    35    37    35    2
    36    35    34   am
    37    32    30    1
    38    30    31   am
    39    34    31   am
    40    34    36    1
    41    31    33    2
