@<TRIPOS>MOLECULE
57317_out_ligand_01.pdbqt
 36 40 0 0 0
SMALL
GASTEIGER

@<TRIPOS>ATOM
      1  C         24.1130  -21.9140  -11.4150 C.2     1  UNL1        0.1690
      2  C         23.9390  -21.6640  -10.0600 C.2     1  UNL1        0.0600
      3  C         22.6500  -21.7250   -9.5240 C.2     1  UNL1        0.0350
      4  C         21.5710  -22.0330  -10.3450 C.2     1  UNL1        0.0520
      5  C         21.8540  -22.2750  -11.6880 C.2     1  UNL1        0.1490
      6  N         23.0910  -22.2320  -12.2390 N.2     1  UNL1       -0.2350
      7  N         20.2350  -22.1310   -9.9040 N.am    1  UNL1       -0.3220
      8  C         19.6610  -23.1850   -9.2160 C.2     1  UNL1        0.2580
      9  O         20.2170  -24.1930   -8.8050 O.2     1  UNL1       -0.2670
     10  H         19.6570  -21.3060  -10.0240 H       1  UNL1        0.1690
     11  C         18.2200  -22.9990   -8.9430 C.2     1  UNL1        0.0590
     12  C         17.3290  -22.8430  -10.0130 C.2     1  UNL1        0.0190
     13  C         15.9620  -22.7170   -9.7840 C.2     1  UNL1        0.0020
     14  C         15.4530  -22.7350   -8.4790 C.2     1  UNL1        0.0140
     15  C         16.3350  -22.8560   -7.3840 C.ar    1  UNL1       -0.0000
     16  C         16.1630  -22.8890   -5.9730 C.ar    1  UNL1       -0.0230
     17  C         17.7060  -22.9760   -7.6350 C.ar    1  UNL1        0.0590
     18  C         17.4160  -22.9990   -5.4070 C.ar    1  UNL1        0.0170
     19  C         14.9190  -22.8280   -5.1530 C.3     1  UNL1        0.0410
     20  N         18.3430  -23.0200   -6.4090 N.ar    1  UNL1       -0.3580
     21  C         17.7260  -23.0260   -3.9520 C.3     1  UNL1        0.0570
     22  H         19.3470  -23.0370   -6.2810 H       1  UNL1        0.1660
     23  C         16.4400  -23.3090   -3.1540 C.3     1  UNL1        0.0060
     24  C         15.2380  -22.5020   -3.6810 C.3     1  UNL1        0.0050
     25  O         25.3370  -21.9010  -12.0510 O.2     1  UNL1       -0.2910
     26  C         25.4150  -22.5270  -13.2710 C.2     1  UNL1        0.0930
     27  C         25.7570  -23.8870  -13.2520 C.2     1  UNL1        0.0380
     28  C         25.8740  -24.5990  -14.4440 C.2     1  UNL1        0.0030
     29  C         25.6350  -23.9600  -15.6580 C.2     1  UNL1        0.0010
     30  C         25.2570  -22.6150  -15.6770 C.2     1  UNL1        0.0200
     31  C         25.1210  -21.8860  -14.4840 C.2     1  UNL1        0.0650
     32  C         24.6490  -20.4790  -14.6160 C.2     1  UNL1        0.2520
     33  N         23.3150  -20.2470  -14.7840 N.am    1  UNL1       -0.3660
     34  H         23.0130  -19.2820  -14.7520 H       1  UNL1        0.1590
     35  H         22.6100  -20.9530  -14.6050 H       1  UNL1        0.1590
     36  O         25.4400  -19.5410  -14.6050 O.2     1  UNL1       -0.2680
@<TRIPOS>BOND
     1    30    29    2
     2    30    31    1
     3    29    28    1
     4    33    34    1
     5    33    32   am
     6    33    35    1
     7    32    36    2
     8    32    31    1
     9    31    26    2
    10    28    27    2
    11    26    27    1
    12    26    25    1
    13     6     5    1
    14     6     1    2
    15    25     1    1
    16     5     4    2
    17     1     2    1
    18     4     7    1
    19     4     3    1
    20     2     3    2
    21    10     7    1
    22    12    13    1
    23    12    11    2
    24     7     8   am
    25    13    14    2
    26     8    11    1
    27     8     9    2
    28    11    17    1
    29    14    15    1
    30    17    15   ar
    31    17    20   ar
    32    15    16   ar
    33    20    22    1
    34    20    18   ar
    35    16    18   ar
    36    16    19    1
    37    18    21    1
    38    19    24    1
    39    21    23    1
    40    24    23    1
