@<TRIPOS>MOLECULE
57311_out_ligand_01.pdbqt
 29 32 0 0 0
SMALL
GASTEIGER

@<TRIPOS>ATOM
      1  N         14.7570  -24.8530   -9.8930 N.1     1  UNL1       -0.1910
      2  C         15.5220  -24.2280   -9.2830 C.1     1  UNL1        0.1070
      3  C         16.4520  -23.4130   -8.5840 C.3     1  UNL1        0.1420
      4  C         16.4690  -23.3260   -7.2420 C.2     1  UNL1        0.0960
      5  N         15.5460  -24.0000   -6.4450 N.2     1  UNL1       -0.2340
      6  C         15.7990  -23.6840   -5.2080 C.2     1  UNL1        0.1120
      7  C         16.9250  -22.7630   -5.0810 C.2     1  UNL1        0.0170
      8  C         17.4960  -22.1880   -3.9600 C.2     1  UNL1        0.0160
      9  C         18.5890  -21.3480   -4.1670 C.2     1  UNL1        0.0010
     10  C         19.0690  -21.1140   -5.4670 C.2     1  UNL1        0.0010
     11  C         18.4610  -21.7100   -6.5820 C.2     1  UNL1        0.0150
     12  C         17.3680  -22.5380   -6.3790 C.3     1  UNL1        0.0080
     13  C         17.3880  -22.6260   -9.4130 C.2     1  UNL1        0.2690
     14  O         17.0500  -21.5340   -9.8500 O.2     1  UNL1       -0.2660
     15  N         18.5900  -23.2830   -9.6150 N.am    1  UNL1       -0.3220
     16  H         18.7040  -24.1890   -9.1720 H       1  UNL1        0.1690
     17  C         19.6890  -22.8390  -10.3820 C.2     1  UNL1        0.0370
     18  C         19.4200  -21.9030  -11.3920 C.2     1  UNL1        0.0320
     19  C         20.4510  -21.3990  -12.1900 C.2     1  UNL1        0.0420
     20  C         21.7590  -21.8240  -11.9820 C.2     1  UNL1        0.1020
     21  C         22.0300  -22.7750  -10.9960 C.2     1  UNL1        0.1040
     22  O         22.7220  -21.2730  -12.7860 O.2     1  UNL1       -0.3460
     23  C         21.0030  -23.2700  -10.1890 C.2     1  UNL1        0.0690
     24  O         23.2900  -23.2640  -10.7570 O.2     1  UNL1       -0.3460
     25  C         24.1760  -22.9760  -11.8450 C.3     1  UNL1        0.2020
     26  C         24.0370  -21.5260  -12.2760 C.3     1  UNL1        0.2020
     27  N         15.0950  -24.1700   -4.1500 N.pl3   1  UNL1       -0.2860
     28  H         15.2520  -23.7210   -3.2560 H       1  UNL1        0.1250
     29  H         15.1410  -25.1840   -4.0900 H       1  UNL1        0.1250
@<TRIPOS>BOND
     1    22    26    1
     2    22    20    1
     3    26    25    1
     4    19    20    2
     5    19    18    1
     6    20    21    1
     7    25    24    1
     8    18    17    2
     9    21    24    1
    10    21    23    2
    11    17    23    1
    12    17    15    1
    13     1     2    3
    14    14    13    2
    15    15    13   am
    16    15    16    1
    17    13     3    1
    18     2     3    1
    19     3     4    1
    20     4     5    2
    21     4    12    1
    22    11    12    1
    23    11    10    2
    24     5     6    1
    25    12     7    1
    26    10     9    1
    27     6     7    2
    28     6    27    1
    29     7     8    1
    30     9     8    2
    31    27    29    1
    32    27    28    1
