@<TRIPOS>MOLECULE
57329_out_ligand_01.pdbqt
 34 36 0 0 0
SMALL
GASTEIGER

@<TRIPOS>ATOM
      1  C         22.6200  -21.4020  -13.6450 C.3     1  UNL1        0.0500
      2  C         22.0200  -21.8080  -12.3270 C.2     1  UNL1       -0.0400
      3  C         20.7720  -21.2780  -11.9580 C.2     1  UNL1        0.0100
      4  C         20.1850  -21.6140  -10.7370 C.2     1  UNL1        0.0250
      5  C         20.8530  -22.4810   -9.8750 C.2     1  UNL1        0.0760
      6  C         22.1030  -23.0030  -10.2090 C.2     1  UNL1        0.0490
      7  C         22.6830  -22.6670  -11.4350 C.2     1  UNL1        0.0300
      8  S         20.0990  -22.9150   -8.3280 S.O2    1  UNL1        0.2450
      9  O         20.8300  -22.2280   -7.2890 O.2     1  UNL1       -0.2060
     10  O         19.8950  -24.3470   -8.3230 O.2     1  UNL1       -0.2060
     11  N         18.5500  -22.2140   -8.5160 N.pl3   1  UNL1       -0.1810
     12  H         18.3270  -22.2130   -9.5130 H       1  UNL1        0.1460
     13  C         17.5280  -22.8640   -7.7490 C.2     1  UNL1        0.0230
     14  C         16.7480  -23.8580   -8.3350 C.2     1  UNL1        0.0240
     15  C         15.7210  -24.4580   -7.6070 C.2     1  UNL1        0.0030
     16  C         15.4670  -24.0530   -6.2950 C.2     1  UNL1        0.0160
     17  C         16.2330  -23.0380   -5.7020 C.2     1  UNL1        0.0490
     18  C         17.2700  -22.4470   -6.4430 C.2     1  UNL1        0.0400
     19  C         15.9740  -22.5990   -4.2830 C.3     1  UNL1        0.4170
     20  F         16.9770  -21.8440   -3.7540 F       1  UNL1       -0.1660
     21  F         15.8050  -23.6470   -3.4300 F       1  UNL1       -0.1660
     22  F         14.8430  -21.8480   -4.1780 F       1  UNL1       -0.1660
     23  N         23.9960  -23.1670  -11.7380 N.pl3   1  UNL1       -0.1810
     24  H         24.1170  -24.1270  -11.4140 H       1  UNL1        0.1460
     25  S         25.2620  -22.2250  -11.0900 S.O2    1  UNL1        0.2500
     26  O         24.7140  -21.1110  -10.3500 O.2     1  UNL1       -0.2050
     27  O         26.2300  -23.1360  -10.5240 O.2     1  UNL1       -0.2050
     28  C         26.0530  -21.4990  -12.4160 C.ar    1  UNL1        0.1320
     29  C         26.2680  -22.0200  -13.7100 C.ar    1  UNL1        0.0830
     30  C         25.9010  -23.3390  -14.2810 C.3     1  UNL1        0.0740
     31  N         26.8980  -21.1210  -14.4800 N.ar    1  UNL1       -0.1320
     32  O         27.1210  -20.0180  -13.6800 O.2     1  UNL1       -0.2160
     33  C         26.6130  -20.2450  -12.4390 C.ar    1  UNL1        0.1000
     34  C         26.7800  -19.1610  -11.4530 C.3     1  UNL1        0.0810
@<TRIPOS>BOND
     1    31    29   ar
     2    31    32   ar
     3    30    29    1
     4    29    28   ar
     5    32    33   ar
     6     1     2    1
     7    33    28   ar
     8    33    34    1
     9    28    25    1
    10     2     3    2
    11     2     7    1
    12     3     4    1
    13    23     7    1
    14    23    24    1
    15    23    25    1
    16     7     6    2
    17    25    27    2
    18    25    26    2
    19     4     5    2
    20     6     5    1
    21     5     8    1
    22    12    11    1
    23    11     8    1
    24    11    13    1
    25    14    13    2
    26    14    15    1
    27     8    10    2
    28     8     9    2
    29    13    18    1
    30    15    16    2
    31    18    17    2
    32    16    17    1
    33    17    19    1
    34    19    22    1
    35    19    20    1
    36    19    21    1
