@<TRIPOS>MOLECULE
57328_out_ligand_01.pdbqt
 31 34 0 0 0
SMALL
GASTEIGER

@<TRIPOS>ATOM
      1  C         21.1710  -22.7310  -10.0040 C.2     1  UNL1       -0.0380
      2  C         20.6190  -22.1600  -11.1580 C.2     1  UNL1        0.0090
      3  C         19.2800  -21.7790  -11.1820 C.2     1  UNL1        0.0030
      4  C         18.4740  -21.9700  -10.0560 C.2     1  UNL1        0.0290
      5  C         19.0020  -22.5400   -8.8960 C.2     1  UNL1        0.0350
      6  C         20.3500  -22.9260   -8.8830 C.2     1  UNL1        0.0380
      7  C         22.6140  -23.1650   -9.9970 C.3     1  UNL1        0.1610
      8  N         23.1060  -23.3200  -11.3470 N.am    1  UNL1       -0.3530
      9  C         24.0750  -22.4860  -11.8520 C.2     1  UNL1        0.2520
     10  O         24.5630  -21.5510  -11.2280 O.2     1  UNL1       -0.2680
     11  H         22.6790  -24.0280  -11.9260 H       1  UNL1        0.1630
     12  C         24.5010  -22.7450  -13.2530 C.2     1  UNL1        0.0340
     13  C         25.2320  -23.9260  -13.5150 C.2     1  UNL1        0.0200
     14  C         25.6660  -24.2230  -14.8100 C.2     1  UNL1        0.0410
     15  C         25.3430  -23.3310  -15.8090 C.2     1  UNL1        0.1050
     16  C         24.6150  -22.1910  -15.5610 C.2     1  UNL1        0.1060
     17  O         25.6750  -23.4560  -17.1210 O.2     1  UNL1       -0.3230
     18  C         24.1760  -21.8670  -14.2940 C.2     1  UNL1        0.0560
     19  O         24.3940  -21.4610  -16.6860 O.2     1  UNL1       -0.3230
     20  C         25.0630  -22.2720  -17.6740 C.3     1  UNL1        0.3520
     21  N         18.2490  -22.7780   -7.7270 N.am    1  UNL1       -0.3230
     22  C         18.3960  -22.1570   -6.5000 C.2     1  UNL1        0.2560
     23  O         19.2650  -21.3550   -6.1780 O.2     1  UNL1       -0.2670
     24  H         17.5910  -23.5420   -7.7800 H       1  UNL1        0.1690
     25  C         17.4060  -22.5720   -5.4650 C.2     1  UNL1        0.0350
     26  C         17.6640  -22.4200   -4.0940 C.2     1  UNL1        0.0170
     27  C         16.7120  -22.8250   -3.1540 C.2     1  UNL1        0.0040
     28  C         15.5110  -23.3880   -3.5830 C.2     1  UNL1        0.0420
     29  C         15.2740  -23.5530   -4.9450 C.2     1  UNL1        0.1170
     30  F         14.1220  -24.1060   -5.3490 F       1  UNL1       -0.2060
     31  C         16.2090  -23.1550   -5.8880 C.2     1  UNL1        0.0590
@<TRIPOS>BOND
     1    20    17    1
     2    20    19    1
     3    17    15    1
     4    19    16    1
     5    15    16    2
     6    15    14    1
     7    16    18    1
     8    14    13    2
     9    18    12    2
    10    13    12    1
    11    12     9    1
    12    11     8    1
    13     9     8   am
    14     9    10    2
    15     8     7    1
    16     3     2    1
    17     3     4    2
    18     2     1    2
    19     4     5    1
    20     1     7    1
    21     1     6    1
    22     5     6    2
    23     5    21    1
    24    24    21    1
    25    21    22   am
    26    22    23    2
    27    22    25    1
    28    31    25    2
    29    31    29    1
    30    25    26    1
    31    30    29    1
    32    29    28    2
    33    26    27    2
    34    28    27    1
