@<TRIPOS>MOLECULE
57336_out_ligand_01.pdbqt
 32 35 0 0 0
SMALL
GASTEIGER

@<TRIPOS>ATOM
      1  C         16.2950  -23.3170   -5.8130 C.2     1  UNL1        0.0870
      2  C         16.0190  -23.8240   -7.0880 C.2     1  UNL1        0.0270
      3  C         16.8150  -23.4600   -8.1670 C.2     1  UNL1        0.0270
      4  C         17.9010  -22.6000   -7.9840 C.2     1  UNL1        0.0390
      5  C         18.1810  -22.0660   -6.7060 C.2     1  UNL1        0.0890
      6  N         19.2280  -21.2140   -6.6050 N.2     1  UNL1       -0.2580
      7  C         19.5430  -20.7060   -5.3990 C.2     1  UNL1        0.1170
      8  C         18.8480  -20.9990   -4.2490 C.2     1  UNL1        0.0200
      9  C         17.7630  -21.8630   -4.3500 C.2     1  UNL1        0.0170
     10  C         17.3860  -22.4320   -5.5930 C.2     1  UNL1        0.0170
     11  N         18.7090  -22.1730   -9.0760 N.pl3   1  UNL1       -0.2780
     12  H         19.0960  -21.2720   -8.7570 H       1  UNL1        0.1280
     13  C         19.7990  -23.0330   -9.5710 C.3     1  UNL1        0.1540
     14  C         20.6840  -23.5240   -8.4380 C.3     1  UNL1        0.0500
     15  C         22.0110  -23.7880   -9.1150 C.3     1  UNL1        0.1340
     16  N         22.0720  -22.8560  -10.2190 N.am    1  UNL1       -0.3170
     17  C         20.7790  -22.4250  -10.5820 C.2     1  UNL1        0.2420
     18  O         20.4520  -21.7510  -11.5480 O.2     1  UNL1       -0.2710
     19  C         23.2770  -22.5700  -10.9190 C.2     1  UNL1        0.0400
     20  C         23.5740  -23.2250  -12.1290 C.2     1  UNL1        0.0310
     21  C         24.7570  -22.9620  -12.8320 C.2     1  UNL1        0.0290
     22  C         25.6690  -22.0390  -12.3320 C.2     1  UNL1        0.0720
     23 CL         27.1200  -21.7220  -13.1990 Cl      1  UNL1       -0.0810
     24  C         25.3920  -21.3880  -11.1360 C.2     1  UNL1        0.1400
     25  F         26.2600  -20.4990  -10.6290 F       1  UNL1       -0.2040
     26  C         24.2130  -21.6480  -10.4350 C.2     1  UNL1        0.0730
     27  S         15.1970  -23.8060   -4.5010 S.O2    1  UNL1        0.2400
     28  O         15.9610  -24.4460   -3.4570 O.2     1  UNL1       -0.2060
     29  O         14.0270  -24.4260   -5.0800 O.2     1  UNL1       -0.2060
     30  N         14.6950  -22.3200   -3.8840 N.3     1  UNL1       -0.2250
     31  H         13.6820  -22.2340   -3.9770 H       1  UNL1        0.1360
     32  H         15.0210  -22.1370   -2.9360 H       1  UNL1        0.1360
@<TRIPOS>BOND
     1    23    22    1
     2    21    22    2
     3    21    20    1
     4    22    24    1
     5    20    19    2
     6    18    17    2
     7    24    25    1
     8    24    26    2
     9    19    26    1
    10    19    16    1
    11    17    16   am
    12    17    13    1
    13    16    15    1
    14    13    11    1
    15    13    14    1
    16    15    14    1
    17    11    12    1
    18    11     4    1
    19     3     4    2
    20     3     2    1
    21     4     5    1
    22     2     1    2
    23     5     6    2
    24     5    10    1
    25     6     7    1
    26     1    10    1
    27     1    27    1
    28    10     9    2
    29     7     8    2
    30    29    27    2
    31    27    30    1
    32    27    28    2
    33     9     8    1
    34    31    30    1
    35    30    32    1
