@<TRIPOS>MOLECULE
57342_out_ligand_01.pdbqt
 28 30 0 0 0
SMALL
GASTEIGER

@<TRIPOS>ATOM
      1  C         19.0650  -22.8860   -9.1740 C.2     1  UNL1        0.2560
      2  O         18.3160  -23.3050  -10.0480 O.2     1  UNL1       -0.2670
      3  N         20.3130  -22.3150   -9.3550 N.am    1  UNL1       -0.3230
      4  H         20.8610  -22.1290   -8.5250 H       1  UNL1        0.1690
      5  C         20.9520  -22.0300  -10.5790 C.2     1  UNL1        0.0350
      6  C         20.4290  -21.2010  -11.5580 C.2     1  UNL1        0.0320
      7  C         21.1400  -20.9860  -12.7430 C.2     1  UNL1        0.0320
      8  C         22.3920  -21.5840  -12.9890 C.2     1  UNL1        0.0410
      9  C         22.9510  -22.3930  -11.9940 C.2     1  UNL1       -0.0290
     10  N         22.9330  -21.2730  -14.2460 N.am    1  UNL1       -0.3270
     11  C         22.2030  -22.6140  -10.8060 C.2     1  UNL1        0.0390
     12  C         24.2840  -23.0910  -12.0370 C.3     1  UNL1        0.0410
     13  C         25.3250  -22.5170  -12.9780 C.3     1  UNL1        0.0140
     14  C         24.9290  -22.7600  -14.4150 C.3     1  UNL1        0.1030
     15  C         24.0140  -21.6980  -14.9440 C.2     1  UNL1        0.2220
     16  O         24.2000  -21.2230  -16.0700 O.2     1  UNL1       -0.2730
     17  H         22.4090  -20.6080  -14.8040 H       1  UNL1        0.1690
     18  C         18.6320  -23.0270   -7.7540 C.2     1  UNL1        0.0330
     19  C         17.9430  -24.1860   -7.3770 C.2     1  UNL1        0.0170
     20  C         17.5280  -24.3620   -6.0570 C.2     1  UNL1        0.0020
     21  C         17.7860  -23.3740   -5.1050 C.2     1  UNL1        0.0170
     22  C         18.4470  -22.1980   -5.4810 C.2     1  UNL1        0.0320
     23  C         18.8720  -22.0260   -6.8060 C.2     1  UNL1        0.0340
     24  C         18.7480  -21.1150   -4.5100 C.2     1  UNL1        0.2490
     25  N         19.3970  -20.0070   -4.9760 N.am    1  UNL1       -0.3660
     26  H         19.6990  -19.3430   -4.2730 H       1  UNL1        0.1590
     27  H         19.8920  -20.0010   -5.8560 H       1  UNL1        0.1590
     28  O         18.4520  -21.2260   -3.3260 O.2     1  UNL1       -0.2680
@<TRIPOS>BOND
     1    16    15    2
     2    15    14    1
     3    15    10   am
     4    17    10    1
     5    14    13    1
     6    10     8    1
     7     8     7    2
     8     8     9    1
     9    13    12    1
    10     7     6    1
    11    12     9    1
    12     9    11    2
    13     6     5    2
    14    11     5    1
    15     5     3    1
    16     2     1    2
    17     3     1   am
    18     3     4    1
    19     1    18    1
    20    18    19    2
    21    18    23    1
    22    19    20    1
    23    23    22    2
    24    20    21    2
    25    27    25    1
    26    22    21    1
    27    22    24    1
    28    25    24   am
    29    25    26    1
    30    24    28    2
