@<TRIPOS>MOLECULE
57347_out_ligand_01.pdbqt
 37 41 0 0 0
SMALL
GASTEIGER

@<TRIPOS>ATOM
      1  C         20.7380  -23.2950   -9.0700 C.2     1  UNL1        0.2560
      2  O         20.3230  -24.0540   -9.9370 O.2     1  UNL1       -0.2670
      3  N         21.9510  -22.6320   -9.0560 N.am    1  UNL1       -0.3230
      4  H         22.2030  -22.1520   -8.2020 H       1  UNL1        0.1690
      5  C         22.9380  -22.6220  -10.0670 C.2     1  UNL1        0.0370
      6  C         24.2090  -23.1890   -9.9180 C.2     1  UNL1        0.0320
      7  C         25.1590  -23.1620  -10.9520 C.2     1  UNL1        0.0340
      8  C         24.7740  -22.5430  -12.1380 C.ar    1  UNL1        0.0630
      9  N         25.4210  -22.3340  -13.3280 N.ar    1  UNL1       -0.3380
     10  C         23.5250  -21.9740  -12.3270 C.ar    1  UNL1        0.0880
     11  C         24.5750  -21.6630  -14.1860 C.ar    1  UNL1        0.1390
     12  H         26.3630  -22.6250  -13.5360 H       1  UNL1        0.1670
     13  N         23.4180  -21.4400  -13.5860 N.ar    1  UNL1       -0.2280
     14  C         22.5880  -22.0110  -11.2830 C.2     1  UNL1        0.0630
     15  C         24.9160  -21.2630  -15.5560 C.2     1  UNL1        0.0130
     16  C         24.6630  -22.0770  -16.6730 C.2     1  UNL1        0.0150
     17  C         25.0060  -21.6530  -17.9640 C.2     1  UNL1        0.0040
     18  C         25.6060  -20.4120  -18.1530 C.2     1  UNL1        0.0420
     19  C         25.8590  -19.6040  -17.0520 C.2     1  UNL1        0.1170
     20  F         26.4370  -18.4080  -17.2340 F       1  UNL1       -0.2060
     21  C         25.5210  -20.0150  -15.7670 C.2     1  UNL1        0.0570
     22  C         19.8890  -23.0700   -7.8660 C.2     1  UNL1        0.0320
     23  C         20.1250  -21.9370   -7.0830 C.2     1  UNL1        0.0170
     24  C         19.3500  -21.6920   -5.9460 C.2     1  UNL1        0.0110
     25  C         18.3280  -22.5780   -5.5530 C.2     1  UNL1       -0.0210
     26  C         18.1190  -23.7250   -6.3410 C.2     1  UNL1        0.0110
     27  C         18.8930  -23.9730   -7.4820 C.2     1  UNL1        0.0170
     28  C         17.4950  -22.2780   -4.3080 C.3     1  UNL1        0.1390
     29  C         18.2800  -21.4970   -3.2520 C.3     1  UNL1        0.0540
     30  N         16.2550  -21.5860   -4.6050 N.am    1  UNL1       -0.3210
     31  C         15.1440  -22.3020   -4.2380 C.2     1  UNL1        0.3240
     32  H         16.1740  -20.6380   -4.9470 H       1  UNL1        0.1650
     33  O         13.9980  -21.9030   -4.3360 O.2     1  UNL1       -0.2470
     34  N         15.5400  -23.4900   -3.7380 N.am    1  UNL1       -0.2770
     35  C         16.8970  -23.5620   -3.6780 C.2     1  UNL1        0.2580
     36  H         14.9140  -24.1820   -3.3610 H       1  UNL1        0.1730
     37  O         17.5180  -24.4900   -3.1780 O.2     1  UNL1       -0.2700
@<TRIPOS>BOND
     1    18    17    2
     2    18    19    1
     3    17    16    1
     4    20    19    1
     5    19    21    2
     6    16    15    2
     7    21    15    1
     8    15    11    1
     9    11    13   ar
    10    11     9   ar
    11    13    10   ar
    12    12     9    1
    13     9     8   ar
    14    10     8   ar
    15    10    14    1
    16     8     7    1
    17    14     5    2
    18     7     6    2
    19     5     6    1
    20     5     3    1
    21     2     1    2
    22     1     3   am
    23     1    22    1
    24     3     4    1
    25    22    27    2
    26    22    23    1
    27    27    26    1
    28    23    24    2
    29    26    25    2
    30    24    25    1
    31    25    28    1
    32    32    30    1
    33    30    28    1
    34    30    31   am
    35    33    31    2
    36    28    35    1
    37    28    29    1
    38    31    34   am
    39    34    35   am
    40    34    36    1
    41    35    37    2
