@<TRIPOS>MOLECULE
57357_out_ligand_01.pdbqt
 32 35 0 0 0
SMALL
GASTEIGER

@<TRIPOS>ATOM
      1  C         17.3320  -23.1090   -8.8120 C.2     1  UNL1        0.0010
      2  C         15.9060  -23.2010   -8.8370 C.2     1  UNL1        0.0360
      3  C         15.4790  -22.5090   -9.9420 C.2     1  UNL1        0.1430
      4  O         16.5350  -21.9900  -10.6080 O.2     1  UNL1       -0.3160
      5  C         17.6680  -22.3380   -9.9240 C.2     1  UNL1        0.1500
      6  C         18.9380  -21.8880  -10.4720 C.2     1  UNL1        0.2800
      7  O         19.0630  -20.7960  -11.0150 O.2     1  UNL1       -0.2650
      8  N         19.9640  -22.8030  -10.2850 N.am    1  UNL1       -0.3210
      9  H         19.7560  -23.5840   -9.6770 H       1  UNL1        0.1690
     10  C         21.2940  -22.7150  -10.7460 C.2     1  UNL1        0.0350
     11  C         21.6690  -22.1050  -11.9460 C.2     1  UNL1        0.0310
     12  C         23.0120  -22.0660  -12.3390 C.2     1  UNL1        0.0270
     13  C         23.9840  -22.6540  -11.5300 C.2     1  UNL1        0.0740
     14  C         23.6300  -23.2600  -10.3230 C.2     1  UNL1        0.0270
     15  C         22.2870  -23.2920   -9.9380 C.2     1  UNL1        0.0310
     16  S         25.6880  -22.6010  -12.0200 S.O2    1  UNL1        0.2390
     17  O         26.4770  -22.1660  -10.8920 O.2     1  UNL1       -0.2060
     18  O         25.7700  -21.9720  -13.3190 O.2     1  UNL1       -0.2060
     19  N         26.0130  -24.2340  -12.2780 N.3     1  UNL1       -0.2250
     20  H         27.0010  -24.4090  -12.0850 H       1  UNL1        0.1360
     21  H         25.7410  -24.5600  -13.2040 H       1  UNL1        0.1360
     22  C         18.2820  -23.7710   -7.8510 C.3     1  UNL1        0.1650
     23  N         18.6690  -23.0840   -6.6200 N.pl3   1  UNL1       -0.3710
     24  C         17.8040  -23.0590   -5.5180 C.2     1  UNL1        0.0370
     25  C         16.8320  -23.9830   -5.1680 C.2     1  UNL1        0.0300
     26  C         18.0190  -21.9440   -4.7010 C.2     1  UNL1       -0.0300
     27  C         16.0730  -23.7700   -4.0110 C.2     1  UNL1        0.0020
     28  C         16.2960  -22.6440   -3.2070 C.2     1  UNL1        0.0010
     29  C         17.2840  -21.7210   -3.5460 C.2     1  UNL1        0.0090
     30  C         19.1330  -21.1220   -5.2540 C.3     1  UNL1        0.0650
     31  C         19.2880  -21.7400   -6.6660 C.3     1  UNL1        0.0850
     32  C         20.7550  -21.8320   -7.0740 C.3     1  UNL1        0.0320
@<TRIPOS>BOND
     1    18    16    2
     2    21    19    1
     3    12    11    1
     4    12    13    2
     5    19    20    1
     6    19    16    1
     7    16    13    1
     8    16    17    2
     9    11    10    2
    10    13    14    1
    11     7     6    2
    12    10     8    1
    13    10    15    1
    14     4     3    1
    15     4     5    1
    16     6     8   am
    17     6     5    1
    18    14    15    2
    19     8     9    1
    20     3     2    2
    21     5     1    2
    22     2     1    1
    23     1    22    1
    24    22    23    1
    25    32    31    1
    26    31    23    1
    27    31    30    1
    28    23    24    1
    29    24    25    2
    30    24    26    1
    31    30    26    1
    32    25    27    1
    33    26    29    2
    34    27    28    2
    35    29    28    1
