@<TRIPOS>MOLECULE
57367_out_ligand_01.pdbqt
 39 43 0 0 0
SMALL
GASTEIGER

@<TRIPOS>ATOM
      1  C         18.5330  -22.7260   -9.9490 C.2     1  UNL1        0.0340
      2  C         17.7930  -21.7230  -10.5810 C.2     1  UNL1        0.0170
      3  C         18.4130  -20.8860  -11.5100 C.2     1  UNL1        0.0030
      4  C         19.7670  -21.0500  -11.8170 C.2     1  UNL1        0.0290
      5  C         20.5170  -22.0550  -11.2040 C.2     1  UNL1        0.0350
      6  C         19.8890  -22.8930  -10.2740 C.2     1  UNL1        0.0460
      7  C         17.9360  -23.6550   -8.9460 C.2     1  UNL1        0.2510
      8  O         18.6650  -24.3710   -8.2670 O.2     1  UNL1       -0.2680
      9  N         16.5640  -23.6240   -8.8080 N.am    1  UNL1       -0.3570
     10  H         16.0600  -22.8260   -9.1930 H       1  UNL1        0.1620
     11  C         15.8970  -24.3450   -7.7430 C.3     1  UNL1        0.1240
     12  C         15.6730  -23.4760   -6.5040 C.3     1  UNL1        0.0390
     13  C         16.6900  -23.7350   -5.3870 C.3     1  UNL1        0.1150
     14  C         16.0470  -23.8140   -3.9830 C.2     1  UNL1        0.2310
     15  O         15.2090  -24.6200   -3.6020 O.2     1  UNL1       -0.2720
     16  N         16.6010  -22.8080   -3.2050 N.am    1  UNL1       -0.3260
     17  C         17.5440  -22.0830   -3.9130 C.2     1  UNL1        0.0420
     18  H         16.3440  -22.6550   -2.2410 H       1  UNL1        0.1690
     19  C         18.2970  -21.0200   -3.4590 C.2     1  UNL1        0.0300
     20  C         17.6480  -22.5790   -5.2110 C.2     1  UNL1       -0.0180
     21  C         19.1960  -20.4430   -4.3590 C.2     1  UNL1        0.0020
     22  C         19.3190  -20.9390   -5.6700 C.2     1  UNL1        0.0010
     23  C         18.5420  -22.0180   -6.1060 C.2     1  UNL1        0.0100
     24  N         21.8830  -22.2910  -11.4610 N.am    1  UNL1       -0.3230
     25  C         22.9670  -21.7930  -10.7650 C.2     1  UNL1        0.2570
     26  O         22.9490  -21.0770   -9.7720 O.2     1  UNL1       -0.2670
     27  H         22.0810  -22.9300  -12.2230 H       1  UNL1        0.1690
     28  C         24.2700  -22.2630  -11.3210 C.2     1  UNL1        0.0500
     29  C         25.0610  -22.9660  -10.4950 C.2     1  UNL1        0.0920
     30  C         26.3630  -23.4970  -10.9500 C.2     1  UNL1        0.2460
     31  O         27.0880  -24.1150  -10.1790 O.2     1  UNL1       -0.2680
     32  N         26.7110  -23.2550  -12.2480 N.am    1  UNL1       -0.3230
     33  C         25.9060  -22.5500  -13.1500 C.2     1  UNL1        0.0460
     34  H         27.6040  -23.6300  -12.5430 H       1  UNL1        0.1690
     35  C         26.3490  -22.3630  -14.4610 C.2     1  UNL1        0.0300
     36  C         24.6690  -22.0430  -12.7230 C.2     1  UNL1        0.0060
     37  C         25.5520  -21.6610  -15.3630 C.2     1  UNL1        0.0020
     38  C         24.3200  -21.1530  -14.9560 C.2     1  UNL1        0.0010
     39  C         23.8800  -21.3410  -13.6420 C.2     1  UNL1        0.0150
@<TRIPOS>BOND
     1    37    38    2
     2    37    35    1
     3    38    39    1
     4    35    33    2
     5    39    36    2
     6    33    36    1
     7    33    32    1
     8    36    28    1
     9    34    32    1
    10    32    30   am
    11    27    24    1
    12     4     3    2
    13     4     5    1
    14     3     2    1
    15    24     5    1
    16    24    25   am
    17    28    25    1
    18    28    29    2
    19     5     6    2
    20    30    29    1
    21    30    31    2
    22    25    26    2
    23     2     1    2
    24     6     1    1
    25     1     7    1
    26    10     9    1
    27     7     9   am
    28     7     8    2
    29     9    11    1
    30    11    12    1
    31    12    13    1
    32    23    22    2
    33    23    20    1
    34    22    21    1
    35    13    20    1
    36    13    14    1
    37    20    17    2
    38    21    19    2
    39    14    15    2
    40    14    16   am
    41    17    19    1
    42    17    16    1
    43    16    18    1
