@<TRIPOS>MOLECULE
5737_out_ligand_01.pdbqt
 33 36 0 0 0
SMALL
GASTEIGER

@<TRIPOS>ATOM
      1  C         23.2020  -21.9890  -11.4240 C.2     1  UNL1        0.0800
      2  C         21.9080  -22.1560  -11.9190 C.2     1  UNL1        0.0270
      3  C         20.8380  -22.2530  -11.0250 C.2     1  UNL1        0.0310
      4  C         21.0490  -22.1820   -9.6400 C.2     1  UNL1        0.0350
      5  C         22.3500  -21.9990   -9.1610 C.2     1  UNL1        0.0310
      6  C         23.4260  -21.8990  -10.0490 C.2     1  UNL1        0.0270
      7  N         19.9110  -22.2800   -8.8140 N.am    1  UNL1       -0.3210
      8  C         19.3770  -23.4170   -8.2260 C.2     1  UNL1        0.2800
      9  O         19.7870  -24.5570   -8.4230 O.2     1  UNL1       -0.2650
     10  H         19.3750  -21.4310   -8.7010 H       1  UNL1        0.1690
     11  C         18.2320  -23.1420   -7.3680 C.ar    1  UNL1        0.1500
     12  O         18.4740  -23.0570   -6.0230 O.2     1  UNL1       -0.3040
     13  C         17.2920  -22.8220   -5.4020 C.ar    1  UNL1        0.0870
     14  C         17.1190  -22.6850   -4.0280 C.2     1  UNL1        0.0380
     15  C         16.2680  -22.7360   -6.3340 C.ar    1  UNL1        0.0070
     16  C         15.8150  -22.4440   -3.5830 C.2     1  UNL1        0.0030
     17  C         14.7530  -22.3460   -4.4850 C.2     1  UNL1        0.0010
     18  C         14.9630  -22.4870   -5.8650 C.2     1  UNL1        0.0150
     19  C         16.8780  -22.9240   -7.6150 C.ar    1  UNL1       -0.0090
     20  C         16.1860  -22.8580   -8.9280 C.3     1  UNL1        0.0520
     21  S         24.5730  -21.8350  -12.5430 S.O2    1  UNL1        0.2760
     22  O         24.9540  -23.1860  -12.9060 O.2     1  UNL1       -0.2000
     23  O         25.5540  -20.9360  -11.9730 O.2     1  UNL1       -0.2000
     24  N         23.9040  -21.1650  -13.9040 N.pl3   1  UNL1       -0.1090
     25  H         22.9140  -21.3480  -14.0140 H       1  UNL1        0.1980
     26  C         24.6200  -21.2650  -15.0900 C.cat   1  UNL1        0.7360
     27  N         25.5280  -20.3340  -15.3820 N.2     1  UNL1       -0.0670
     28  C         26.0680  -20.4000  -16.6130 C.2     1  UNL1        0.0510
     29  C         25.6780  -21.3460  -17.5410 C.2     1  UNL1        0.0540
     30  C         27.1180  -19.3870  -16.9580 C.3     1  UNL1        0.0710
     31  C         24.6890  -22.2300  -17.1480 C.2     1  UNL1        0.0510
     32  C         24.1910  -23.2780  -18.0980 C.3     1  UNL1        0.0710
     33  N         24.1310  -22.1880  -15.9230 N.2     1  UNL1       -0.0670
@<TRIPOS>BOND
     1    32    31    1
     2    29    31    1
     3    29    28    2
     4    31    33    2
     5    30    28    1
     6    28    27    1
     7    33    26    1
     8    27    26    2
     9    26    24    1
    10    25    24    1
    11    24    21    1
    12    22    21    2
    13    21    23    2
    14    21     1    1
    15     2     1    2
    16     2     3    1
    17     1     6    1
    18     3     4    2
    19     6     5    2
    20     4     5    1
    21     4     7    1
    22    20    19    1
    23     7    10    1
    24     7     8   am
    25     9     8    2
    26     8    11    1
    27    19    11   ar
    28    19    15   ar
    29    11    12   ar
    30    15    18    1
    31    15    13   ar
    32    12    13   ar
    33    18    17    2
    34    13    14    1
    35    17    16    1
    36    14    16    2
