@<TRIPOS>MOLECULE
57400_out_ligand_01.pdbqt
 34 36 0 0 0
SMALL
GASTEIGER

@<TRIPOS>ATOM
      1  C         17.2720  -21.0350  -11.3720 C.3     1  UNL1        0.0500
      2  C         18.6730  -21.4340  -11.0040 C.2     1  UNL1       -0.0400
      3  C         19.7380  -21.0200  -11.8210 C.2     1  UNL1        0.0100
      4  C         21.0520  -21.3650  -11.5060 C.2     1  UNL1        0.0260
      5  C         21.3080  -22.1350  -10.3710 C.2     1  UNL1        0.0810
      6  C         20.2670  -22.5250   -9.5230 C.2     1  UNL1        0.0500
      7  C         18.9520  -22.1820   -9.8470 C.2     1  UNL1        0.0300
      8  S         22.9810  -22.5850   -9.9720 S.O2    1  UNL1        0.2630
      9  O         22.9280  -23.6320   -8.9750 O.2     1  UNL1       -0.2000
     10  O         23.7350  -21.3700   -9.7520 O.2     1  UNL1       -0.2000
     11  N         23.5180  -23.3320  -11.3890 N.pl3   1  UNL1       -0.2810
     12  H         22.7490  -23.7010  -11.9460 H       1  UNL1        0.1790
     13  C         24.6640  -22.8290  -12.0610 C.2     1  UNL1        0.0430
     14  C         25.9460  -23.1690  -11.6350 C.2     1  UNL1        0.0300
     15  C         27.0600  -22.6290  -12.2780 C.2     1  UNL1        0.0030
     16  C         26.8910  -21.7480  -13.3460 C.2     1  UNL1        0.0160
     17  C         25.6040  -21.4030  -13.7870 C.2     1  UNL1        0.0500
     18  C         24.4900  -21.9500  -13.1300 C.2     1  UNL1        0.0460
     19  C         25.4110  -20.4250  -14.9180 C.3     1  UNL1        0.4170
     20  F         26.5060  -20.3290  -15.7240 F       1  UNL1       -0.1660
     21  F         24.3800  -20.7780  -15.7330 F       1  UNL1       -0.1660
     22  F         25.1440  -19.1580  -14.4990 F       1  UNL1       -0.1660
     23  N         17.8910  -22.5470   -8.9460 N.pl3   1  UNL1       -0.1810
     24  H         17.3480  -23.3220   -9.3290 H       1  UNL1        0.1460
     25  S         18.4450  -23.0690   -7.4120 S.O2    1  UNL1        0.2480
     26  O         18.7680  -24.4710   -7.5850 O.2     1  UNL1       -0.2050
     27  O         19.4010  -22.1350   -6.8610 O.2     1  UNL1       -0.2050
     28  C         16.9800  -22.9840   -6.4390 C.2     1  UNL1        0.1130
     29  C         15.8400  -22.3380   -6.9320 C.2     1  UNL1        0.0280
     30  C         14.6800  -22.3000   -6.1560 C.2     1  UNL1        0.0020
     31  C         14.6600  -22.9040   -4.8970 C.2     1  UNL1        0.0030
     32  C         15.8010  -23.5470   -4.4130 C.2     1  UNL1        0.0440
     33  C         16.9560  -23.5870   -5.1900 C.2     1  UNL1        0.1390
     34  F         18.0320  -24.2120   -4.6940 F       1  UNL1       -0.2040
@<TRIPOS>BOND
     1    21    19    1
     2    20    19    1
     3    19    22    1
     4    19    17    1
     5    17    16    2
     6    17    18    1
     7    16    15    1
     8    18    13    2
     9    15    14    2
    10    13    14    1
    11    13    11    1
    12    12    11    1
    13     3     4    1
    14     3     2    2
    15     4     5    2
    16    11     8    1
    17     1     2    1
    18     2     7    1
    19     5     8    1
    20     5     6    1
    21     8    10    2
    22     8     9    2
    23     7     6    2
    24     7    23    1
    25    24    23    1
    26    23    25    1
    27    26    25    2
    28    25    27    2
    29    25    28    1
    30    29    28    2
    31    29    30    1
    32    28    33    1
    33    30    31    2
    34    33    34    1
    35    33    32    2
    36    31    32    1
