@<TRIPOS>MOLECULE
57404_out_ligand_01.pdbqt
 35 39 0 0 0
SMALL
GASTEIGER

@<TRIPOS>ATOM
      1  C         19.8330  -21.7210  -11.2460 C.2     1  UNL1        0.0330
      2  C         18.6210  -21.1540  -11.7100 C.2     1  UNL1        0.0180
      3  C         17.4010  -21.4700  -11.0970 C.2     1  UNL1        0.0190
      4  C         17.4350  -22.3550  -10.0370 C.2     1  UNL1        0.0480
      5  C         18.6180  -22.9210   -9.5920 C.2     1  UNL1        0.0490
      6  C         19.8350  -22.6320  -10.1780 C.2     1  UNL1        0.0350
      7  C         18.2910  -23.7960   -8.4680 C.2     1  UNL1        0.2620
      8  O         19.1120  -24.4300   -7.8350 O.2     1  UNL1       -0.2670
      9  N         16.9360  -23.7190   -8.2980 N.am    1  UNL1       -0.2760
     10  C         16.3540  -22.8710   -9.1980 C.2     1  UNL1        0.2620
     11  O         15.1870  -22.5530   -9.3190 O.2     1  UNL1       -0.2670
     12  C         21.1370  -21.4000  -11.8840 C.2     1  UNL1        0.2520
     13  O         21.1640  -20.6970  -12.8860 O.2     1  UNL1       -0.2680
     14  N         22.2570  -21.9550  -11.3020 N.am    1  UNL1       -0.3520
     15  H         22.1690  -22.5020  -10.4560 H       1  UNL1        0.1630
     16  C         23.6020  -21.6190  -11.7610 C.3     1  UNL1        0.0880
     17  C         23.9280  -22.3230  -13.0840 C.3     1  UNL1        0.0550
     18  C         24.6980  -23.6190  -12.8490 C.3     1  UNL1        0.2750
     19  N         25.9690  -23.4340  -12.1360 N.3     1  UNL1        0.0920
     20  C         25.9960  -22.2350  -11.2780 C.3     1  UNL1        0.2750
     21  C         24.6280  -21.9400  -10.6680 C.3     1  UNL1        0.0550
     22  C         27.1190  -23.4630  -13.0580 C.3     1  UNL1        0.3110
     23  C         26.9290  -22.6090  -14.2930 C.2     1  UNL1       -0.0300
     24  C         26.5730  -23.1920  -15.5190 C.2     1  UNL1        0.0090
     25  C         26.4080  -22.4000  -16.6570 C.2     1  UNL1        0.0010
     26  C         26.5970  -21.0200  -16.5820 C.2     1  UNL1        0.0000
     27  C         26.9510  -20.4300  -15.3700 C.2     1  UNL1        0.0010
     28  C         27.1160  -21.2190  -14.2320 C.2     1  UNL1        0.0090
     29  C         16.2050  -24.4630   -7.2980 C.3     1  UNL1        0.1740
     30  C         16.0900  -23.6910   -6.0050 C.2     1  UNL1       -0.0400
     31  C         14.9050  -23.0130   -5.6840 C.2     1  UNL1        0.0090
     32  C         14.7940  -22.3140   -4.4810 C.2     1  UNL1        0.0010
     33  C         15.8610  -22.2940   -3.5840 C.2     1  UNL1        0.0000
     34  C         17.0380  -22.9770   -3.8870 C.2     1  UNL1        0.0010
     35  C         17.1520  -23.6760   -5.0890 C.2     1  UNL1        0.0090
@<TRIPOS>BOND
     1    25    26    2
     2    25    24    1
     3    26    27    1
     4    24    23    2
     5    27    28    2
     6    23    28    1
     7    23    22    1
     8    17    18    1
     9    17    16    1
    10    22    19    1
    11    13    12    2
    12    18    19    1
    13    19    20    1
    14    12    14   am
    15    12     1    1
    16    16    14    1
    17    16    21    1
    18     2     1    2
    19     2     3    1
    20    14    15    1
    21    20    21    1
    22     1     6    1
    23     3     4    2
    24     6     5    2
    25     4     5    1
    26     4    10    1
    27     5     7    1
    28    11    10    2
    29    10     9   am
    30     7     9   am
    31     7     8    2
    32     9    29    1
    33    29    30    1
    34    30    31    2
    35    30    35    1
    36    31    32    1
    37    35    34    2
    38    32    33    2
    39    34    33    1
