@<TRIPOS>MOLECULE
57403_out_ligand_01.pdbqt
 34 36 0 0 0
SMALL
GASTEIGER

@<TRIPOS>ATOM
      1  N         20.3210  -22.9040  -10.2830 N.pl3   1  UNL1       -0.1810
      2  H         19.7730  -22.0930   -9.9830 H       1  UNL1        0.1460
      3  C         21.3590  -22.5030  -11.1850 C.2     1  UNL1        0.0220
      4  C         21.0640  -21.5930  -12.2000 C.2     1  UNL1        0.0250
      5  C         22.0490  -21.2320  -13.1240 C.2     1  UNL1        0.0190
      6  C         23.3260  -21.8010  -13.0410 C.2     1  UNL1        0.0320
      7  C         23.6140  -22.7150  -12.0170 C.2     1  UNL1        0.0190
      8  C         22.6270  -23.0770  -11.0970 C.2     1  UNL1        0.0250
      9  C         24.4070  -21.4530  -14.0020 C.2     1  UNL1        0.2510
     10  N         24.0490  -21.4030  -15.3330 N.am    1  UNL1       -0.3560
     11  H         23.1470  -21.7580  -15.6180 H       1  UNL1        0.1620
     12  O         25.5490  -21.2620  -13.6010 O.2     1  UNL1       -0.2680
     13  C         25.0310  -21.1300  -16.3690 C.3     1  UNL1        0.1330
     14  C         24.8880  -22.0680  -17.5590 C.3     1  UNL1        0.1290
     15  C         24.1980  -23.3340  -17.1470 C.2     1  UNL1        0.1400
     16  O         23.0500  -23.6650  -17.3940 O.2     1  UNL1       -0.6500
     17  O         24.9930  -24.1270  -16.4030 O.3     1  UNL1       -0.7760
     18  H         25.3760  -24.7600  -17.0460 H       1  UNL1        0.1670
     19  S         20.8890  -23.6530   -8.8580 S.O2    1  UNL1        0.2480
     20  O         20.8340  -25.0930   -8.9590 O.2     1  UNL1       -0.2050
     21  O         22.1220  -22.9610   -8.5350 O.2     1  UNL1       -0.2050
     22  C         19.6740  -23.1530   -7.6840 C.2     1  UNL1        0.1140
     23  C         18.4420  -23.8120   -7.6120 C.2     1  UNL1        0.0370
     24  C         17.4890  -23.3920   -6.6750 C.2     1  UNL1       -0.0290
     25  C         17.7780  -22.3100   -5.8340 C.2     1  UNL1        0.0440
     26  C         16.1160  -24.0060   -6.6340 C.3     1  UNL1        0.0500
     27  C         18.9990  -21.6430   -5.9260 C.2     1  UNL1        0.0740
     28  N         16.8200  -21.8780   -4.9130 N.am    1  UNL1       -0.3270
     29  C         19.9450  -22.0750   -6.8500 C.2     1  UNL1        0.1410
     30  F         21.1180  -21.4280   -6.9090 F       1  UNL1       -0.2040
     31  C         15.6610  -22.5510   -4.6340 C.2     1  UNL1        0.2220
     32  H         16.9560  -21.0160   -4.3980 H       1  UNL1        0.1690
     33  O         14.8330  -22.0860   -3.8540 O.2     1  UNL1       -0.2730
     34  C         15.5210  -23.9300   -5.2370 C.3     1  UNL1        0.1080
@<TRIPOS>BOND
     1    14    15    1
     2    14    13    1
     3    16    15    2
     4    15    17    1
     5    18    17    1
     6    13    10    1
     7    11    10    1
     8    10     9   am
     9     9    12    2
    10     9     6    1
    11     5     6    2
    12     5     4    1
    13     6     7    1
    14     4     3    2
    15     7     8    2
    16     3     8    1
    17     3     1    1
    18     1     2    1
    19     1    19    1
    20    20    19    2
    21    19    21    2
    22    19    22    1
    23    22    23    2
    24    22    29    1
    25    23    24    1
    26    30    29    1
    27    29    27    2
    28    24    26    1
    29    24    25    2
    30    26    34    1
    31    27    25    1
    32    25    28    1
    33    34    31    1
    34    28    31   am
    35    28    32    1
    36    31    33    2
