@<TRIPOS>MOLECULE
57412_out_ligand_01.pdbqt
 35 39 0 0 0
SMALL
GASTEIGER

@<TRIPOS>ATOM
      1  O         16.9050  -22.4420  -10.4880 O.2     1  UNL1       -0.2440
      2  C         18.0120  -22.0950  -10.0790 C.2     1  UNL1        0.3580
      3  N         18.8180  -21.3780  -10.9290 N.am    1  UNL1       -0.1680
      4  C         20.0770  -21.4240  -10.7330 C.2     1  UNL1        0.1830
      5  C         20.7460  -22.1140   -9.6440 C.2     1  UNL1        0.0860
      6  C         22.0480  -22.4470   -9.5600 C.2     1  UNL1        0.0330
      7  C         19.8570  -22.4740   -8.5060 C.2     1  UNL1        0.2710
      8  O         20.3600  -22.7390   -7.4140 O.2     1  UNL1       -0.2660
      9  N         18.4890  -22.4410   -8.7960 N.am    1  UNL1       -0.2280
     10  C         23.0830  -22.2410  -10.5760 C.2     1  UNL1       -0.0350
     11  C         23.0340  -22.9320  -11.8010 C.2     1  UNL1        0.0130
     12  C         24.0270  -22.7480  -12.7710 C.2     1  UNL1        0.0250
     13  C         25.0790  -21.8870  -12.5050 C.2     1  UNL1        0.0170
     14  C         25.1190  -21.2070  -11.2840 C.2     1  UNL1       -0.0350
     15  N         26.1570  -21.5390  -13.3480 N.pl3   1  UNL1       -0.2780
     16  C         24.1410  -21.3660  -10.3130 C.2     1  UNL1        0.0200
     17  C         26.3080  -20.3100  -11.2540 C.3     1  UNL1        0.0550
     18  C         27.1160  -20.8970  -12.4220 C.3     1  UNL1        0.1010
     19  C         26.6690  -22.5770  -14.2470 C.3     1  UNL1        0.1360
     20  C         25.9200  -22.5690  -15.5630 C.2     1  UNL1       -0.0230
     21  C         25.9430  -21.3920  -16.3390 C.2     1  UNL1        0.0100
     22  C         25.2650  -21.3160  -17.5570 C.2     1  UNL1        0.0010
     23  C         24.5490  -22.4140  -18.0200 C.2     1  UNL1        0.0020
     24  C         24.5140  -23.5880  -17.2680 C.2     1  UNL1        0.0240
     25  C         25.1940  -23.6670  -16.0480 C.2     1  UNL1        0.0410
     26 CL         25.1010  -25.1650  -15.1900 Cl      1  UNL1       -0.0840
     27  O         20.8500  -20.7290  -11.5710 O.2     1  UNL1       -0.3440
     28  H         21.0530  -21.2870  -12.3420 H       1  UNL1        0.2190
     29  C         17.5300  -22.8780   -7.7990 C.2     1  UNL1        0.0470
     30  C         17.3100  -24.2490   -7.5650 C.2     1  UNL1        0.0310
     31  C         16.3820  -24.6930   -6.6150 C.2     1  UNL1        0.0210
     32  C         15.6520  -23.7680   -5.8780 C.2     1  UNL1        0.0110
     33 BR         14.3990  -24.3590   -4.5950 Br      1  UNL1       -0.0510
     34  C         15.8450  -22.4070   -6.0830 C.2     1  UNL1        0.0210
     35  C         16.7750  -21.9700   -7.0360 C.2     1  UNL1        0.0310
@<TRIPOS>BOND
     1    23    22    2
     2    23    24    1
     3    22    21    1
     4    24    25    2
     5    21    20    2
     6    25    20    1
     7    25    26    1
     8    20    19    1
     9    19    15    1
    10    15    13    1
    11    15    18    1
    12    12    13    2
    13    12    11    1
    14    13    14    1
    15    18    17    1
    16    28    27    1
    17    11    10    2
    18    27     4    1
    19    14    17    1
    20    14    16    2
    21     3     4    2
    22     3     2    1
    23     4     5    1
    24    10    16    1
    25    10     6    1
    26     1     2    2
    27     2     9   am
    28     5     6    2
    29     5     7    1
    30     9     7   am
    31     9    29    1
    32     7     8    2
    33    29    30    2
    34    29    35    1
    35    30    31    1
    36    35    34    2
    37    31    32    2
    38    34    32    1
    39    32    33    1
