@<TRIPOS>MOLECULE
57468_out_ligand_01.pdbqt
 32 34 0 0 0
SMALL
GASTEIGER

@<TRIPOS>ATOM
      1  C         21.6790  -21.6910  -12.2160 C.2     1  UNL1        0.0650
      2  C         21.0430  -22.4620  -11.2600 C.2     1  UNL1        0.0710
      3  C         19.7380  -21.9080  -11.0910 C.2     1  UNL1        0.1470
      4  N         19.5780  -20.8530  -11.9060 N.2     1  UNL1       -0.1690
      5  N         20.7430  -20.7510  -12.5600 N.pl3   1  UNL1       -0.2770
      6  H         20.8620  -20.0120  -13.2480 H       1  UNL1        0.1890
      7  C         18.6570  -22.3650  -10.1850 C.2     1  UNL1        0.2760
      8  O         17.6080  -22.8400  -10.6110 O.2     1  UNL1       -0.2660
      9  N         18.9520  -22.1730   -8.8400 N.am    1  UNL1       -0.3220
     10  H         19.7810  -21.6320   -8.6390 H       1  UNL1        0.1690
     11  C         18.1720  -22.5470   -7.7270 C.2     1  UNL1        0.0350
     12  C         18.6030  -23.4310   -6.7330 C.2     1  UNL1        0.0310
     13  C         17.7720  -23.7480   -5.6520 C.2     1  UNL1        0.0270
     14  C         16.4980  -23.1830   -5.5720 C.2     1  UNL1        0.0740
     15  C         16.0600  -22.2850   -6.5450 C.2     1  UNL1        0.0270
     16  C         16.8980  -21.9700   -7.6180 C.2     1  UNL1        0.0310
     17  S         15.4430  -23.5820   -4.2050 S.O2    1  UNL1        0.2390
     18  O         16.0900  -24.5990   -3.4080 O.2     1  UNL1       -0.2060
     19  O         14.9420  -22.3530   -3.6390 O.2     1  UNL1       -0.2060
     20  N         14.1640  -24.3530   -4.9830 N.3     1  UNL1       -0.2250
     21  H         14.2130  -24.2880   -5.9990 H       1  UNL1        0.1360
     22  H         14.1230  -25.3230   -4.6660 H       1  UNL1        0.1360
     23  C         23.0170  -21.7540  -12.8240 C.2     1  UNL1        0.0260
     24  C         23.3930  -20.9510  -13.9150 C.2     1  UNL1        0.0780
     25  C         24.6730  -21.0330  -14.4710 C.2     1  UNL1        0.0440
     26  C         25.6220  -21.9250  -13.9510 C.2     1  UNL1       -0.0530
     27  C         26.9910  -21.9920  -14.5720 C.3     1  UNL1        0.0490
     28  C         25.2700  -22.7400  -12.8610 C.2     1  UNL1       -0.0550
     29  C         23.9760  -22.6440  -12.3140 C.2     1  UNL1        0.0240
     30  C         26.2480  -23.7180  -12.2660 C.3     1  UNL1        0.0490
     31  O         22.4930  -20.0640  -14.4570 O.2     1  UNL1       -0.3600
     32  H         22.5880  -19.2100  -13.9980 H       1  UNL1        0.2170
@<TRIPOS>BOND
     1    27    26    1
     2    25    26    2
     3    25    24    1
     4    31    32    1
     5    31    24    1
     6    26    28    1
     7    24    23    2
     8     6     5    1
     9    28    29    2
    10    28    30    1
    11    23    29    1
    12    23     1    1
    13     5     1    1
    14     5     4    1
    15     1     2    2
    16     4     3    2
    17     2     3    1
    18     3     7    1
    19     8     7    2
    20     7     9   am
    21     9    10    1
    22     9    11    1
    23    11    16    2
    24    11    12    1
    25    16    15    1
    26    12    13    2
    27    15    14    2
    28    21    20    1
    29    13    14    1
    30    14    17    1
    31    20    22    1
    32    20    17    1
    33    17    19    2
    34    17    18    2
