@<TRIPOS>MOLECULE
57466_out_ligand_01.pdbqt
 38 42 0 0 0
SMALL
GASTEIGER

@<TRIPOS>ATOM
      1  C         20.6280  -22.1400  -11.2890 C.2     1  UNL1       -0.0070
      2  C         21.0660  -22.7990  -10.1620 C.2     1  UNL1        0.1040
      3  N         19.9930  -22.9530   -9.3210 N.pl3   1  UNL1       -0.3460
      4  C         18.8640  -22.3760   -9.8750 C.2     1  UNL1        0.0450
      5  C         17.5470  -22.2660   -9.3930 C.2     1  UNL1        0.0300
      6  C         16.6110  -21.5840  -10.1770 C.2     1  UNL1        0.0020
      7  C         16.9710  -21.0260  -11.3980 C.2     1  UNL1        0.0010
      8  C         18.2800  -21.1420  -11.8740 C.2     1  UNL1        0.0140
      9  C         19.2460  -21.8340  -11.1100 C.2     1  UNL1        0.0020
     10  C         21.4850  -21.8000  -12.3750 C.2     1  UNL1        0.0350
     11  C         22.8210  -21.6250  -12.3600 C.2     1  UNL1        0.0860
     12  C         23.7030  -21.6560  -11.2060 C.2     1  UNL1        0.1830
     13  C         23.5100  -21.3540  -13.6490 C.2     1  UNL1        0.2710
     14  N         24.9710  -21.8060  -11.2390 N.am    1  UNL1       -0.1680
     15  C         25.5560  -22.0170  -12.4640 C.2     1  UNL1        0.3580
     16  N         24.8950  -21.5710  -13.6290 N.am    1  UNL1       -0.2280
     17  O         26.6250  -22.6230  -12.4970 O.2     1  UNL1       -0.2440
     18  O         22.8490  -20.9480  -14.6050 O.2     1  UNL1       -0.2660
     19  O         23.1440  -21.4410  -10.0130 O.2     1  UNL1       -0.3440
     20  H         23.8490  -21.4010   -9.3450 H       1  UNL1        0.2190
     21  C         25.6590  -21.4640  -14.8580 C.2     1  UNL1        0.0480
     22  C         26.0470  -22.5940  -15.5970 C.2     1  UNL1        0.0300
     23  C         26.7640  -22.4720  -16.7920 C.2     1  UNL1        0.0030
     24  C         27.1140  -21.2150  -17.2770 C.2     1  UNL1        0.0070
     25  C         26.7660  -20.0690  -16.5590 C.2     1  UNL1       -0.0600
     26  C         27.1210  -18.7100  -17.0870 C.3     1  UNL1        0.0480
     27  C         26.0300  -20.2040  -15.3680 C.2     1  UNL1        0.0370
     28  C         20.0690  -23.6070   -8.0220 C.3     1  UNL1        0.2310
     29  C         19.2480  -22.9180   -6.9420 C.2     1  UNL1        0.2400
     30  O         19.6130  -21.8250   -6.5130 O.2     1  UNL1       -0.2710
     31  N         18.1660  -23.6500   -6.4800 N.am    1  UNL1       -0.3260
     32  H         17.9530  -24.5160   -6.9600 H       1  UNL1        0.1690
     33  C         17.2620  -23.3030   -5.4520 C.2     1  UNL1        0.0340
     34  C         16.1250  -22.5720   -5.8290 C.2     1  UNL1        0.0290
     35  C         15.1760  -22.1870   -4.8780 C.2     1  UNL1        0.0020
     36  C         15.3530  -22.5320   -3.5400 C.2     1  UNL1        0.0000
     37  C         16.4770  -23.2610   -3.1570 C.2     1  UNL1        0.0020
     38  C         17.4280  -23.6450   -4.1090 C.2     1  UNL1        0.0290
@<TRIPOS>BOND
     1    24    23    2
     2    24    25    1
     3    26    25    1
     4    23    22    1
     5    25    27    2
     6    22    21    2
     7    27    21    1
     8    21    16    1
     9    18    13    2
    10    13    16   am
    11    13    11    1
    12    16    15   am
    13    17    15    2
    14    15    14    1
    15    10    11    2
    16    10     1    1
    17    11    12    1
    18     8     7    2
    19     8     9    1
    20     7     6    1
    21     1     9    1
    22     1     2    2
    23    14    12    2
    24    12    19    1
    25     9     4    2
    26     6     5    2
    27     2     3    1
    28    19    20    1
    29     4     5    1
    30     4     3    1
    31     3    28    1
    32    28    29    1
    33    32    31    1
    34    29    30    2
    35    29    31   am
    36    31    33    1
    37    34    33    2
    38    34    35    1
    39    33    38    1
    40    35    36    2
    41    38    37    2
    42    36    37    1
