@<TRIPOS>MOLECULE
57497_out_ligand_01.pdbqt
 33 35 0 0 0
SMALL
GASTEIGER

@<TRIPOS>ATOM
      1  S         22.3420  -22.7430   -9.0530 S.O2    1  UNL1        0.2460
      2  O         23.1820  -23.8580   -8.6630 O.2     1  UNL1       -0.2060
      3  O         22.8270  -21.3820   -9.0050 O.2     1  UNL1       -0.2060
      4  C         20.8260  -22.8350   -8.1100 C.2     1  UNL1        0.0810
      5  C         20.4800  -21.7250   -7.3250 C.2     1  UNL1        0.0270
      6  C         19.3050  -21.7330   -6.5690 C.2     1  UNL1        0.0320
      7  C         18.4710  -22.8510   -6.5830 C.2     1  UNL1        0.0530
      8  C         18.8050  -23.9460   -7.3900 C.2     1  UNL1        0.0390
      9  C         19.9850  -23.9630   -8.1580 C.2     1  UNL1       -0.0370
     10  C         20.2640  -25.1690   -9.0100 C.3     1  UNL1        0.0500
     11  N         17.2440  -22.8710   -5.8640 N.am    1  UNL1       -0.2080
     12  C         15.9980  -22.9120   -6.5220 C.2     1  UNL1        0.2420
     13  O         15.8130  -22.7120   -7.7130 O.2     1  UNL1       -0.2720
     14  C         14.8810  -23.1820   -5.5290 C.3     1  UNL1        0.0910
     15  C         14.2520  -21.8650   -5.0930 C.3     1  UNL1        0.0210
     16  C         15.5180  -23.9440   -4.3670 C.3     1  UNL1        0.1770
     17  S         17.2110  -23.4090   -4.2710 S.O2    1  UNL1        0.2400
     18  O         17.2990  -22.2650   -3.3940 O.2     1  UNL1       -0.2050
     19  O         18.0520  -24.5750   -4.1210 O.2     1  UNL1       -0.2050
     20  N         21.7770  -23.1150  -10.6230 N.pl3   1  UNL1       -0.1810
     21  H         21.7740  -24.1340  -10.7070 H       1  UNL1        0.1460
     22  C         22.5600  -22.5180  -11.6650 C.2     1  UNL1        0.0220
     23  C         21.9750  -21.6090  -12.5500 C.2     1  UNL1        0.0260
     24  C         22.7220  -21.0880  -13.6090 C.2     1  UNL1        0.0260
     25  C         24.0470  -21.5010  -13.7810 C.2     1  UNL1        0.0740
     26  C         24.6360  -22.4110  -12.8970 C.2     1  UNL1        0.0260
     27  C         23.8820  -22.9270  -11.8440 C.2     1  UNL1        0.0260
     28  S         25.0080  -20.8620  -15.1280 S.O2    1  UNL1        0.2390
     29  O         24.2220  -20.9680  -16.3340 O.2     1  UNL1       -0.2060
     30  O         26.3500  -21.3840  -15.0230 O.2     1  UNL1       -0.2060
     31  N         25.1210  -19.2330  -14.7160 N.3     1  UNL1       -0.2250
     32  H         25.8850  -19.0280  -14.0730 H       1  UNL1        0.1360
     33  H         25.1850  -18.6780  -15.5710 H       1  UNL1        0.1360
@<TRIPOS>BOND
     1    29    28    2
     2    33    31    1
     3    28    30    2
     4    28    31    1
     5    28    25    1
     6    31    32    1
     7    25    24    2
     8    25    26    1
     9    24    23    1
    10    26    27    2
    11    23    22    2
    12    27    22    1
    13    22    20    1
    14    21    20    1
    15    20     1    1
    16     1     3    2
    17     1     2    2
    18     1     4    1
    19    10     9    1
    20     9     4    2
    21     9     8    1
    22     4     5    1
    23    13    12    2
    24     8     7    2
    25     5     6    2
    26     7     6    1
    27     7    11    1
    28    12    11   am
    29    12    14    1
    30    11    17    1
    31    14    15    1
    32    14    16    1
    33    16    17    1
    34    17    19    2
    35    17    18    2
