@<TRIPOS>MOLECULE
57496_out_ligand_01.pdbqt
 31 35 0 0 0
SMALL
GASTEIGER

@<TRIPOS>ATOM
      1  C         18.4900  -22.4930   -9.7900 C.2     1  UNL1        0.0520
      2  C         17.3710  -21.7830  -10.3230 C.2     1  UNL1        0.1820
      3  O         16.2120  -21.8330   -9.7820 O.2     1  UNL1       -0.2880
      4  C         17.6020  -21.0250  -11.5040 C.2     1  UNL1        0.0560
      5  C         18.8470  -20.9320  -12.1390 C.2     1  UNL1        0.0220
      6  C         19.8850  -21.6320  -11.5730 C.2     1  UNL1        0.0520
      7  C         19.7190  -22.3990  -10.4310 C.2     1  UNL1        0.1020
      8  O         20.8750  -23.0390  -10.0410 O.2     1  UNL1       -0.3050
      9  C         21.8510  -22.6940  -10.9850 C.2     1  UNL1        0.1280
     10  C         23.0780  -23.2250  -10.9380 C.2     1  UNL1        0.0550
     11  C         21.2750  -21.7560  -11.9970 C.2     1  UNL1        0.2180
     12  O         21.7840  -21.2140  -12.9530 O.2     1  UNL1       -0.2840
     13  C         24.1650  -23.0050  -11.8290 C.2     1  UNL1       -0.0050
     14  C         24.5100  -23.8190  -12.8820 C.2     1  UNL1        0.1030
     15  N         25.6140  -23.2780  -13.4870 N.pl3   1  UNL1       -0.3600
     16  C         26.3170  -23.8920  -14.5920 C.3     1  UNL1        0.1560
     17  C         25.9630  -22.0880  -12.8770 C.2     1  UNL1        0.0450
     18  C         27.0000  -21.1810  -13.1490 C.2     1  UNL1        0.0300
     19  C         25.0610  -21.8920  -11.8240 C.2     1  UNL1        0.0020
     20  C         27.1210  -20.0510  -12.3320 C.2     1  UNL1        0.0020
     21  C         26.2410  -19.8340  -11.2760 C.2     1  UNL1        0.0010
     22  C         25.2110  -20.7460  -11.0110 C.2     1  UNL1        0.0140
     23  C         18.3780  -23.2910   -8.5100 C.3     1  UNL1        0.2800
     24  N         17.3150  -22.7880   -7.5510 N.4     1  UNL1       -0.0630
     25  C         17.7900  -21.7280   -6.6140 C.3     1  UNL1        0.2350
     26  C         18.5630  -22.3800   -5.4720 C.3     1  UNL1        0.0280
     27  C         17.7280  -23.4520   -4.7690 C.3     1  UNL1        0.0040
     28  C         17.1430  -24.4680   -5.7520 C.3     1  UNL1        0.0330
     29  C         16.4000  -23.7870   -6.9070 C.3     1  UNL1        0.1840
     30  C         15.8270  -24.7920   -7.8950 C.3     1  UNL1        0.0400
     31  H         16.7170  -22.2460   -8.2390 H       1  UNL1        0.2800
@<TRIPOS>BOND
     1    16    15    1
     2    15    14    1
     3    15    17    1
     4    18    17    2
     5    18    20    1
     6    12    11    2
     7    14    13    2
     8    17    19    1
     9    20    21    2
    10     5     6    2
    11     5     4    1
    12    11     6    1
    13    11     9    1
    14    13    19    1
    15    13    10    1
    16    19    22    2
    17     6     7    1
    18     4     2    2
    19    21    22    1
    20     9    10    2
    21     9     8    1
    22     7     8    1
    23     7     1    2
    24     2     1    1
    25     2     3    1
    26     1    23    1
    27    23    24    1
    28    31    24    1
    29    30    29    1
    30    24    29    1
    31    24    25    1
    32    29    28    1
    33    25    26    1
    34    28    27    1
    35    26    27    1
