@<TRIPOS>MOLECULE
57492_out_ligand_01.pdbqt
 33 37 0 0 0
SMALL
GASTEIGER

@<TRIPOS>ATOM
      1  C         21.5720  -23.6830   -9.4310 C.2     1  UNL1        0.0550
      2  C         20.9360  -23.0730   -8.4220 C.2     1  UNL1        0.1280
      3  O         19.7130  -23.5770   -7.9500 O.2     1  UNL1       -0.3050
      4  C         19.3220  -22.7490   -6.9230 C.2     1  UNL1        0.1020
      5  C         20.2270  -21.7290   -6.6780 C.2     1  UNL1        0.0520
      6  C         20.0270  -20.8010   -5.6860 C.2     1  UNL1        0.0220
      7  C         18.8620  -20.9330   -4.9210 C.3     1  UNL1        0.0560
      8  C         17.8950  -21.9570   -5.1200 C.2     1  UNL1        0.1820
      9  O         16.8490  -22.0370   -4.3920 O.2     1  UNL1       -0.2880
     10  C         18.1560  -22.8780   -6.1780 C.2     1  UNL1        0.0520
     11  C         21.3270  -21.8700   -7.6230 C.2     1  UNL1        0.2180
     12  O         22.3010  -21.1550   -7.6880 O.2     1  UNL1       -0.2840
     13  C         22.8000  -23.3540  -10.0780 C.2     1  UNL1       -0.0050
     14  C         24.0660  -23.6180   -9.6100 C.2     1  UNL1        0.1030
     15  N         24.9670  -23.1290  -10.5190 N.pl3   1  UNL1       -0.3600
     16  C         26.4020  -23.2600  -10.3990 C.3     1  UNL1        0.1560
     17  C         24.3110  -22.4970  -11.5540 C.2     1  UNL1        0.0450
     18  C         24.8030  -21.8330  -12.6890 C.2     1  UNL1        0.0300
     19  C         22.9400  -22.6220  -11.2990 C.2     1  UNL1        0.0020
     20  C         23.8800  -21.2830  -13.5820 C.2     1  UNL1        0.0020
     21  C         22.5120  -21.3920  -13.3550 C.2     1  UNL1        0.0010
     22  C         22.0310  -22.0580  -12.2220 C.2     1  UNL1        0.0140
     23  C         17.2170  -24.0290   -6.4450 C.3     1  UNL1        0.2800
     24  N         16.6000  -24.0000   -7.8210 N.4     1  UNL1       -0.0670
     25  C         15.5710  -25.0480   -8.0340 C.3     1  UNL1        0.2700
     26  H         17.4320  -24.3180   -8.3920 H       1  UNL1        0.2800
     27  C         16.2780  -22.6340   -8.3040 C.3     1  UNL1        0.2730
     28  C         16.9630  -22.2340   -9.5860 C.2     1  UNL1       -0.0330
     29  C         17.8630  -23.1030  -10.2220 C.2     1  UNL1        0.0090
     30  C         18.4960  -22.7220  -11.4070 C.2     1  UNL1        0.0010
     31  C         18.2380  -21.4710  -11.9650 C.2     1  UNL1        0.0000
     32  C         17.3480  -20.5990  -11.3420 C.2     1  UNL1        0.0010
     33  C         16.7120  -20.9770  -10.1600 C.2     1  UNL1        0.0090
@<TRIPOS>BOND
     1    20    21    2
     2    20    18    1
     3    21    22    1
     4    18    17    2
     5    22    19    2
     6    31    30    2
     7    31    32    1
     8    17    19    1
     9    17    15    1
    10    30    29    1
    11    32    33    2
    12    19    13    1
    13    15    16    1
    14    15    14    1
    15    29    28    2
    16    33    28    1
    17    13    14    2
    18    13     1    1
    19    28    27    1
    20     1     2    2
    21     2     3    1
    22     2    11    1
    23    26    24    1
    24    27    24    1
    25    25    24    1
    26     3     4    1
    27    24    23    1
    28    12    11    2
    29    11     5    1
    30     4     5    1
    31     4    10    2
    32     5     6    2
    33    23    10    1
    34    10     8    1
    35     6     7    1
    36     8     7    1
    37     8     9    2
