@<TRIPOS>MOLECULE
574_out_ligand_01.pdbqt
 30 32 0 0 0
SMALL
GASTEIGER

@<TRIPOS>ATOM
      1  C         19.3940  -21.4360  -10.9360 C.3     1  UNL1        0.0710
      2  C         20.8140  -21.9610  -11.0290 C.2     1  UNL1        0.0410
      3  N         21.4570  -21.6660  -12.1210 N.2     1  UNL1       -0.2330
      4  C         22.7530  -22.0750  -12.2200 C.2     1  UNL1        0.1680
      5  C         23.6880  -21.9480  -13.2360 C.2     1  UNL1        0.0980
      6  C         24.8500  -22.5390  -12.7030 C.2     1  UNL1        0.1600
      7  N         24.6910  -22.9960  -11.4610 N.2     1  UNL1       -0.1770
      8  N         23.3880  -22.7360  -11.1630 N.pl3   1  UNL1       -0.2190
      9  C         22.6990  -23.0670   -9.9800 C.2     1  UNL1        0.0430
     10  C         23.5160  -23.7940   -8.9440 C.3     1  UNL1        0.0710
     11  C         21.3870  -22.7460   -9.8600 C.2     1  UNL1       -0.0090
     12  C         20.4990  -23.0680   -8.6810 C.3     1  UNL1        0.0520
     13  C         20.8050  -22.2110   -7.4490 C.3     1  UNL1        0.1080
     14  C         19.5460  -21.9290   -6.6490 C.2     1  UNL1        0.2220
     15  O         19.4790  -20.9400   -5.9260 O.2     1  UNL1       -0.2730
     16  N         18.5600  -22.8720   -6.8490 N.am    1  UNL1       -0.3220
     17  H         18.6370  -23.4670   -7.6700 H       1  UNL1        0.1690
     18  C         17.3210  -22.9770   -6.1710 C.2     1  UNL1        0.1120
     19  C         17.0930  -23.6600   -4.9730 C.2     1  UNL1        0.1460
     20  F         18.0510  -24.3750   -4.3670 F       1  UNL1       -0.2040
     21  C         15.8190  -23.6940   -4.3980 C.2     1  UNL1        0.0450
     22  C         14.7430  -23.0530   -5.0170 C.2     1  UNL1        0.0060
     23  C         14.9440  -22.3890   -6.2230 C.2     1  UNL1        0.0450
     24  C         16.2190  -22.3620   -6.7880 C.2     1  UNL1        0.1460
     25  F         16.3950  -21.7120   -7.9500 F       1  UNL1       -0.2040
     26  C         23.4840  -21.3460  -14.5390 C.2     1  UNL1        0.2540
     27  N         22.7130  -20.2110  -14.5520 N.am    1  UNL1       -0.3660
     28  H         22.4610  -19.8740  -15.4730 H       1  UNL1        0.1590
     29  H         22.0960  -19.9760  -13.7850 H       1  UNL1        0.1590
     30  O         23.9330  -21.7800  -15.5960 O.2     1  UNL1       -0.2680
@<TRIPOS>BOND
     1    30    26    2
     2    28    27    1
     3    27    26   am
     4    27    29    1
     5    26     5    1
     6     5     6    1
     7     5     4    2
     8     6     7    2
     9     4     3    1
    10     4     8    1
    11     3     2    2
    12     7     8    1
    13     8     9    1
    14     2     1    1
    15     2    11    1
    16     9    11    2
    17     9    10    1
    18    11    12    1
    19    12    13    1
    20    25    24    1
    21    17    16    1
    22    13    14    1
    23    16    14   am
    24    16    18    1
    25    24    23    1
    26    24    18    2
    27    14    15    2
    28    23    22    2
    29    18    19    1
    30    22    21    1
    31    19    21    2
    32    19    20    1
