@<TRIPOS>MOLECULE
57503_out_ligand_01.pdbqt
 31 35 0 0 0
SMALL
GASTEIGER

@<TRIPOS>ATOM
      1  C         23.3010  -22.5800  -10.3020 C.2     1  UNL1        0.0550
      2  C         22.0070  -22.3330  -10.5460 C.2     1  UNL1        0.1280
      3  O         21.0060  -22.7660   -9.6670 O.2     1  UNL1       -0.3050
      4  C         19.8120  -22.3440  -10.2070 C.2     1  UNL1        0.1020
      5  C         19.9710  -21.6650  -11.4050 C.2     1  UNL1        0.0520
      6  C         18.9040  -21.1560  -12.1020 C.2     1  UNL1        0.0220
      7  C         17.6340  -21.3450  -11.5430 C.3     1  UNL1        0.0560
      8  C         17.4020  -22.0290  -10.3170 C.2     1  UNL1        0.1820
      9  O         16.2240  -22.1740   -9.8470 O.2     1  UNL1       -0.2880
     10  C         18.5540  -22.5510   -9.6530 C.2     1  UNL1        0.0520
     11  C         21.3960  -21.6280  -11.7110 C.2     1  UNL1        0.2180
     12  O         21.9060  -21.1490  -12.6980 O.2     1  UNL1       -0.2840
     13  C         24.4290  -22.1900  -11.0750 C.2     1  UNL1       -0.0050
     14  C         25.1370  -21.0310  -10.8450 C.2     1  UNL1        0.1030
     15  N         26.1310  -20.9560  -11.7850 N.pl3   1  UNL1       -0.3600
     16  C         27.1170  -19.9020  -11.8570 C.3     1  UNL1        0.1560
     17  C         26.0500  -22.0210  -12.6580 C.2     1  UNL1        0.0450
     18  C         26.8230  -22.3490  -13.7840 C.2     1  UNL1        0.0300
     19  C         24.9840  -22.8210  -12.2290 C.2     1  UNL1        0.0020
     20  C         26.4990  -23.5130  -14.4890 C.2     1  UNL1        0.0020
     21  C         25.4430  -24.3220  -14.0860 C.2     1  UNL1        0.0010
     22  C         24.6780  -23.9870  -12.9630 C.2     1  UNL1        0.0140
     23  C         18.4260  -23.2590   -8.3260 C.3     1  UNL1        0.2800
     24  N         17.9950  -22.3560   -7.1890 N.4     1  UNL1       -0.0670
     25  C         19.1140  -21.8980   -6.3260 C.3     1  UNL1        0.2350
     26  C         18.6360  -21.2300   -5.0440 C.2     1  UNL1        0.0280
     27  C         17.9880  -22.1550   -4.0020 C.2     1  UNL1        0.0020
     28  C         17.7590  -23.6030   -4.4290 C.3     1  UNL1        0.0020
     29  C         16.7430  -23.7920   -5.5530 C.3     1  UNL1        0.0280
     30  C         16.6690  -22.6880   -6.5980 C.3     1  UNL1        0.2350
     31  H         17.7590  -21.5000   -7.7710 H       1  UNL1        0.2800
@<TRIPOS>BOND
     1    20    21    2
     2    20    18    1
     3    21    22    1
     4    18    17    2
     5    22    19    2
     6    12    11    2
     7    17    19    1
     8    17    15    1
     9    19    13    1
    10     6     7    1
    11     6     5    2
    12    16    15    1
    13    15    14    1
    14    11     5    1
    15    11     2    1
    16     7     8    1
    17     5     4    1
    18    13    14    2
    19    13     1    1
    20     2     1    2
    21     2     3    1
    22     8     9    2
    23     8    10    1
    24     4     3    1
    25     4    10    2
    26    10    23    1
    27    23    24    1
    28    31    24    1
    29    24    30    1
    30    24    25    1
    31    30    29    1
    32    25    26    1
    33    29    28    1
    34    26    27    2
    35    28    27    1
