@<TRIPOS>MOLECULE
57513_out_ligand_01.pdbqt
 31 34 0 0 0
SMALL
GASTEIGER

@<TRIPOS>ATOM
      1  N         17.9820  -22.2860  -10.6480 N.am    1  UNL1       -0.3570
      2  C         18.7520  -21.3800  -11.3450 C.2     1  UNL1        0.2520
      3  O         18.3390  -20.3050  -11.7620 O.2     1  UNL1       -0.2680
      4  H         18.4470  -23.0410  -10.1570 H       1  UNL1        0.1620
      5  C         16.6080  -21.9890  -10.2840 C.3     1  UNL1        0.1270
      6  C         15.8710  -23.1950   -9.6920 C.3     1  UNL1        0.0580
      7  C         16.0360  -23.3030   -8.1920 C.2     1  UNL1       -0.0570
      8  C         16.8440  -24.3070   -7.6380 C.2     1  UNL1        0.0090
      9  C         17.0180  -24.3910   -6.2550 C.2     1  UNL1        0.0250
     10  C         16.3780  -23.4700   -5.4250 C.2     1  UNL1        0.0740
     11  C         15.5810  -22.4550   -5.9630 C.2     1  UNL1        0.0250
     12  C         15.4100  -22.3770   -7.3450 C.2     1  UNL1        0.0090
     13  S         16.5940  -23.5610   -3.6680 S.O2    1  UNL1        0.2390
     14  O         15.7490  -24.6150   -3.1550 O.2     1  UNL1       -0.2060
     15  O         18.0060  -23.4870   -3.3780 O.2     1  UNL1       -0.2060
     16  N         15.8800  -22.1220   -3.1650 N.3     1  UNL1       -0.2250
     17  H         16.4250  -21.6270   -2.4600 H       1  UNL1        0.1360
     18  H         15.7000  -21.5400   -3.9840 H       1  UNL1        0.1360
     19  C         20.1830  -21.7320  -11.4840 C.2     1  UNL1        0.0460
     20  C         20.8260  -21.2240  -12.6120 C.2     1  UNL1        0.0450
     21  C         22.1800  -21.4620  -12.7830 C.2     1  UNL1        0.0400
     22  N         22.8760  -22.1730  -11.8630 N.2     1  UNL1       -0.2520
     23  C         22.2530  -22.6940  -10.7920 C.2     1  UNL1        0.0680
     24  C         23.0060  -23.4430   -9.8980 C.2     1  UNL1        0.0320
     25  C         20.8800  -22.5180  -10.5430 C.2     1  UNL1        0.0080
     26  C         22.4390  -24.0420   -8.7700 C.2     1  UNL1        0.0020
     27  C         21.0810  -23.8990   -8.5290 C.2     1  UNL1        0.0010
     28  C         20.3040  -23.1480   -9.4080 C.2     1  UNL1        0.0150
     29  C         22.9180  -20.9140  -13.9800 C.3     1  UNL1        0.0380
     30  C         23.7610  -21.8300  -14.8390 C.3     1  UNL1        0.0110
     31  C         24.4270  -20.8210  -13.9550 C.3     1  UNL1        0.0110
@<TRIPOS>BOND
     1    30    29    1
     2    30    31    1
     3    29    31    1
     4    29    21    1
     5    21    20    1
     6    21    22    2
     7    20    19    2
     8    22    23    1
     9     3     2    2
    10    19     2    1
    11    19    25    1
    12     2     1   am
    13    23    25    2
    14    23    24    1
    15     1     5    1
    16     1     4    1
    17    25    28    1
    18     5     6    1
    19    24    26    2
    20     6     7    1
    21    28    27    2
    22    26    27    1
    23     7     8    2
    24     7    12    1
    25     8     9    1
    26    12    11    2
    27     9    10    2
    28    11    10    1
    29    10    13    1
    30    18    16    1
    31    13    15    2
    32    13    16    1
    33    13    14    2
    34    16    17    1
