@<TRIPOS>MOLECULE
57511_out_ligand_01.pdbqt
 32 36 0 0 0
SMALL
GASTEIGER

@<TRIPOS>ATOM
      1  C         18.4000  -22.6200   -9.5990 C.2     1  UNL1        0.0520
      2  C         17.2500  -22.1040  -10.2700 C.2     1  UNL1        0.1820
      3  O         16.0660  -22.2800   -9.8240 O.2     1  UNL1       -0.2880
      4  C         17.4910  -21.3710  -11.4650 C.3     1  UNL1        0.0560
      5  C         18.7660  -21.1500  -12.0000 C.2     1  UNL1        0.0220
      6  C         19.8280  -21.6850  -11.3140 C.2     1  UNL1        0.0520
      7  C         19.6590  -22.4090  -10.1440 C.2     1  UNL1        0.1020
      8  O         20.8480  -22.8630   -9.6200 O.2     1  UNL1       -0.3050
      9  C         21.8560  -22.4020  -10.4740 C.2     1  UNL1        0.1280
     10  C         23.1460  -22.6720  -10.2390 C.2     1  UNL1        0.0550
     11  C         21.2540  -21.6410  -11.6100 C.2     1  UNL1        0.2180
     12  O         21.7750  -21.1120  -12.5660 O.2     1  UNL1       -0.2840
     13  C         24.2820  -22.2590  -10.9900 C.2     1  UNL1       -0.0050
     14  C         24.9840  -21.1050  -10.7210 C.2     1  UNL1        0.1030
     15  N         25.9890  -21.0040  -11.6470 N.pl3   1  UNL1       -0.3600
     16  C         26.9740  -19.9470  -11.6790 C.3     1  UNL1        0.1560
     17  C         25.9200  -22.0470  -12.5480 C.2     1  UNL1        0.0450
     18  C         26.7080  -22.3450  -13.6730 C.2     1  UNL1        0.0300
     19  C         24.8520  -22.8590  -12.1520 C.2     1  UNL1        0.0020
     20  C         26.3960  -23.4900  -14.4100 C.2     1  UNL1        0.0020
     21  C         25.3360  -24.3110  -14.0420 C.2     1  UNL1        0.0010
     22  C         24.5570  -24.0070  -12.9200 C.2     1  UNL1        0.0140
     23  C         18.2510  -23.4450   -8.3430 C.3     1  UNL1        0.2800
     24  N         17.2720  -22.8620   -7.3520 N.4     1  UNL1       -0.0660
     25  C         16.3760  -23.8640   -6.7170 C.3     1  UNL1        0.2390
     26  C         15.6300  -23.2240   -5.5500 C.3     1  UNL1        0.0080
     27  C         16.6100  -22.7140   -4.4780 C.3     1  UNL1        0.0110
     28  C         14.6210  -24.1960   -4.9440 C.3     1  UNL1        0.0110
     29  C         17.9730  -22.2880   -5.0540 C.3     1  UNL1        0.0080
     30  C         18.6380  -21.2420   -4.1620 C.3     1  UNL1        0.0110
     31  C         17.8300  -21.7760   -6.4860 C.3     1  UNL1        0.2390
     32  H         16.6630  -22.3300   -8.0400 H       1  UNL1        0.2800
@<TRIPOS>BOND
     1    20    21    2
     2    20    18    1
     3    21    22    1
     4    18    17    2
     5    22    19    2
     6    12    11    2
     7    17    19    1
     8    17    15    1
     9    19    13    1
    10     5     4    1
    11     5     6    2
    12    16    15    1
    13    15    14    1
    14    11     6    1
    15    11     9    1
    16     4     2    1
    17     6     7    1
    18    13    14    2
    19    13    10    1
    20     9    10    2
    21     9     8    1
    22     2     3    2
    23     2     1    1
    24     7     8    1
    25     7     1    2
    26     1    23    1
    27    23    24    1
    28    32    24    1
    29    24    25    1
    30    24    31    1
    31    25    26    1
    32    31    29    1
    33    26    28    1
    34    26    27    1
    35    29    27    1
    36    29    30    1
