@<TRIPOS>MOLECULE
57522_out_ligand_01.pdbqt
 30 34 0 0 0
SMALL
GASTEIGER

@<TRIPOS>ATOM
      1  C         23.2460  -23.2390  -11.0350 C.2     1  UNL1        0.0550
      2  C         21.9750  -22.8170  -11.0170 C.2     1  UNL1        0.1280
      3  O         21.0730  -23.2650  -10.0450 O.2     1  UNL1       -0.3050
      4  C         19.8730  -22.6480  -10.3200 C.2     1  UNL1        0.1020
      5  C         19.9390  -21.8070  -11.4200 C.2     1  UNL1        0.0520
      6  C         18.8470  -21.1040  -11.8660 C.2     1  UNL1        0.0220
      7  C         17.6500  -21.2800  -11.1620 C.3     1  UNL1        0.0560
      8  C         17.5150  -22.1300  -10.0290 C.2     1  UNL1        0.1820
      9  O         16.3970  -22.2610   -9.4230 O.2     1  UNL1       -0.2880
     10  C         18.6930  -22.8170   -9.6070 C.2     1  UNL1        0.0520
     11  C         21.3030  -21.8470  -11.9310 C.2     1  UNL1        0.2180
     12  O         21.7400  -21.2090  -12.8630 O.2     1  UNL1       -0.2840
     13  C         24.2690  -22.9020  -11.9630 C.2     1  UNL1       -0.0050
     14  C         24.5020  -23.6100  -13.1210 C.2     1  UNL1        0.1030
     15  N         25.5320  -22.9970  -13.7840 N.pl3   1  UNL1       -0.3600
     16  C         26.1040  -23.4630  -15.0270 C.3     1  UNL1        0.1560
     17  C         25.9420  -21.8680  -13.1030 C.2     1  UNL1        0.0450
     18  C         26.9290  -20.9170  -13.4070 C.2     1  UNL1        0.0300
     19  C         25.1610  -21.7870  -11.9440 C.2     1  UNL1        0.0020
     20  C         27.1210  -19.8590  -12.5150 C.2     1  UNL1        0.0020
     21  C         26.3560  -19.7520  -11.3570 C.2     1  UNL1        0.0010
     22  C         25.3750  -20.7050  -11.0630 C.2     1  UNL1        0.0140
     23  C         18.6500  -23.7740   -8.4380 C.3     1  UNL1        0.2800
     24  N         18.3120  -23.1100   -7.1260 N.4     1  UNL1       -0.0670
     25  C         19.3720  -22.2130   -6.5990 C.3     1  UNL1        0.2350
     26  C         18.7790  -21.2720   -5.5530 C.3     1  UNL1        0.0280
     27  C         17.6160  -21.8770   -4.7650 C.3     1  UNL1        0.0030
     28  C         17.6890  -23.3970   -4.7360 C.3     1  UNL1        0.0280
     29  C         17.6600  -24.0030   -6.1370 C.3     1  UNL1        0.2350
     30  H         17.5590  -22.4470   -7.4740 H       1  UNL1        0.2800
@<TRIPOS>BOND
     1    16    15    1
     2    15    14    1
     3    15    17    1
     4    18    17    2
     5    18    20    1
     6    14    13    2
     7    17    19    1
     8    12    11    2
     9    20    21    2
    10    13    19    1
    11    13     1    1
    12    19    22    2
    13    11     5    1
    14    11     2    1
    15     6     5    2
    16     6     7    1
    17     5     4    1
    18    21    22    1
    19     7     8    1
    20     1     2    2
    21     2     3    1
    22     4     3    1
    23     4    10    2
    24     8    10    1
    25     8     9    2
    26    10    23    1
    27    23    24    1
    28    30    24    1
    29    24    25    1
    30    24    29    1
    31    25    26    1
    32    29    28    1
    33    26    27    1
    34    27    28    1
