@<TRIPOS>MOLECULE
57534_out_ligand_01.pdbqt
 31 35 0 0 0
SMALL
GASTEIGER

@<TRIPOS>ATOM
      1  C         18.5180  -22.7300   -9.3980 C.2     1  UNL1        0.0520
      2  C         17.3110  -22.1560   -9.9110 C.2     1  UNL1        0.1820
      3  O         16.1760  -22.3170   -9.3450 O.2     1  UNL1       -0.2880
      4  C         17.4290  -21.3850  -11.1050 C.3     1  UNL1        0.0560
      5  C         18.6340  -21.1920  -11.7940 C.2     1  UNL1        0.0220
      6  C         19.7490  -21.7960  -11.2690 C.2     1  UNL1        0.0520
      7  C         19.7050  -22.5450  -10.1010 C.2     1  UNL1        0.1020
      8  O         20.9330  -23.0790   -9.7600 O.2     1  UNL1       -0.3050
      9  C         21.8180  -22.7080  -10.7810 C.2     1  UNL1        0.1280
     10  C         23.0950  -23.1380  -10.7920 C.2     1  UNL1        0.0550
     11  C         21.1200  -21.8280  -11.7670 C.2     1  UNL1        0.2180
     12  O         21.5400  -21.2460  -12.7410 O.2     1  UNL1       -0.2840
     13  C         24.0820  -22.9180  -11.7930 C.2     1  UNL1       -0.0050
     14  C         24.1830  -23.6710  -12.9400 C.2     1  UNL1        0.1030
     15  N         25.2130  -23.1570  -13.6850 N.pl3   1  UNL1       -0.3600
     16  C         25.6600  -23.6920  -14.9500 C.3     1  UNL1        0.1560
     17  C         25.7550  -22.0530  -13.0660 C.2     1  UNL1        0.0450
     18  C         26.7970  -21.1980  -13.4560 C.2     1  UNL1        0.0300
     19  C         25.0530  -21.8710  -11.8690 C.2     1  UNL1        0.0020
     20  C         27.1180  -20.1220  -12.6140 C.2     1  UNL1        0.0020
     21  C         26.4260  -19.9130  -11.4260 C.2     1  UNL1        0.0010
     22  C         25.3920  -20.7750  -11.0430 C.2     1  UNL1        0.0140
     23  C         18.5400  -23.6120   -8.1660 C.3     1  UNL1        0.2800
     24  N         18.2950  -22.8950   -6.8580 N.4     1  UNL1       -0.0670
     25  C         19.4000  -22.0070   -6.4090 C.3     1  UNL1        0.2350
     26  C         18.8850  -21.0260   -5.3550 C.3     1  UNL1        0.0280
     27  C         17.7650  -21.5870   -4.4730 C.3     1  UNL1        0.0070
     28  C         17.8150  -23.1120   -4.4180 C.3     1  UNL1        0.0070
     29  C         16.7760  -23.6710   -3.4490 C.3     1  UNL1        0.0110
     30  C         17.6280  -23.7190   -5.8150 C.3     1  UNL1        0.2390
     31  H         17.5640  -22.2010   -7.1820 H       1  UNL1        0.2800
@<TRIPOS>BOND
     1    16    15    1
     2    15    17    1
     3    15    14    1
     4    18    17    2
     5    18    20    1
     6    17    19    1
     7    14    13    2
     8    12    11    2
     9    20    21    2
    10    19    13    1
    11    19    22    2
    12     5     6    2
    13     5     4    1
    14    13    10    1
    15    11     6    1
    16    11     9    1
    17    21    22    1
    18     6     7    1
    19     4     2    1
    20    10     9    2
    21     9     8    1
    22     7     8    1
    23     7     1    2
    24     2     1    1
    25     2     3    2
    26     1    23    1
    27    23    24    1
    28    31    24    1
    29    24    25    1
    30    24    30    1
    31    25    26    1
    32    30    28    1
    33    26    27    1
    34    27    28    1
    35    28    29    1
