@<TRIPOS>MOLECULE
57543_out_ligand_01.pdbqt
 36 38 0 0 0
SMALL
GASTEIGER

@<TRIPOS>ATOM
      1  N         18.6040  -21.7240  -10.5880 N.am    1  UNL1       -0.3590
      2  C         17.3250  -21.2440  -10.7710 C.2     1  UNL1        0.2350
      3  O         17.0870  -20.1930  -11.3620 O.2     1  UNL1       -0.2720
      4  H         18.7370  -22.5430  -10.0050 H       1  UNL1        0.1620
      5  C         16.1980  -22.1350  -10.2180 C.3     1  UNL1        0.2250
      6  N         16.4740  -22.6430   -8.8800 N.am    1  UNL1       -0.3520
      7  C         16.0790  -23.9030   -8.4810 C.2     1  UNL1        0.2230
      8  O         15.3110  -24.6140   -9.1170 O.2     1  UNL1       -0.2730
      9  H         17.1940  -22.1650   -8.3470 H       1  UNL1        0.1620
     10  C         16.7310  -24.3670   -7.1960 C.3     1  UNL1        0.1640
     11  C         17.7590  -23.3530   -6.7740 C.ar    1  UNL1        0.0760
     12  N         17.2960  -22.4550   -5.8690 N.ar    1  UNL1       -0.1510
     13  N         18.0840  -21.4320   -5.4610 N.ar    1  UNL1       -0.1240
     14  C         19.3290  -21.3130   -5.9570 C.ar    1  UNL1        0.1950
     15  C         19.8780  -22.2020   -6.8930 C.ar    1  UNL1        0.0310
     16  C         21.1940  -22.1060   -7.4160 C.2     1  UNL1        0.0170
     17  C         19.0460  -23.2540   -7.3380 C.ar    1  UNL1        0.0050
     18  C         21.6650  -23.0020   -8.3760 C.2     1  UNL1        0.0010
     19  C         20.8360  -24.0100   -8.8390 C.2     1  UNL1        0.0010
     20  C         19.5450  -24.1370   -8.3270 C.2     1  UNL1        0.0140
     21  O         19.9930  -20.2150   -5.4890 O.3     1  UNL1       -0.3430
     22  H         19.4570  -19.7900   -4.8040 H       1  UNL1        0.2190
     23  C         19.7870  -20.9850  -10.9760 C.3     1  UNL1        0.1270
     24  C         20.1810  -21.2780  -12.4240 C.3     1  UNL1        0.0580
     25  C         21.6400  -21.6410  -12.5460 C.2     1  UNL1       -0.0570
     26  C         22.2330  -22.4940  -11.6040 C.2     1  UNL1        0.0090
     27  C         23.5780  -22.8470  -11.7170 C.2     1  UNL1        0.0250
     28  C         24.3330  -22.3440  -12.7790 C.2     1  UNL1        0.0740
     29  C         23.7520  -21.5080  -13.7360 C.2     1  UNL1        0.0250
     30  C         22.4070  -21.1550  -13.6140 C.2     1  UNL1        0.0090
     31  S         26.0400  -22.7950  -12.9280 S.O2    1  UNL1        0.2390
     32  O         26.7660  -22.2080  -11.8240 O.2     1  UNL1       -0.2060
     33  O         26.4460  -22.6230  -14.3020 O.2     1  UNL1       -0.2060
     34  N         25.9790  -24.4480  -12.6100 N.3     1  UNL1       -0.2250
     35  H         25.3430  -24.6840  -11.8490 H       1  UNL1        0.1360
     36  H         26.9270  -24.7850  -12.4320 H       1  UNL1        0.1360
@<TRIPOS>BOND
     1    33    31    2
     2    29    30    1
     3    29    28    2
     4    30    25    2
     5    31    28    1
     6    31    34    1
     7    31    32    2
     8    28    27    1
     9    34    36    1
    10    34    35    1
    11    25    24    1
    12    25    26    1
    13    24    23    1
    14    27    26    2
    15     3     2    2
    16    23     1    1
    17     2     1   am
    18     2     5    1
    19     1     4    1
    20     5     6    1
    21     8     7    2
    22     6     7   am
    23     6     9    1
    24    19    18    2
    25    19    20    1
    26     7    10    1
    27    18    16    1
    28    20    17    2
    29    16    15    2
    30    17    15   ar
    31    17    11   ar
    32    10    11    1
    33    15    14   ar
    34    11    12   ar
    35    14    21    1
    36    14    13   ar
    37    12    13   ar
    38    21    22    1
