@<TRIPOS>MOLECULE
57548_out_ligand_01.pdbqt
 31 35 0 0 0
SMALL
GASTEIGER

@<TRIPOS>ATOM
      1  N         21.2020  -25.3710   -8.5000 N.1     1  UNL1       -0.1910
      2  C         20.7110  -24.4990   -9.0890 C.1     1  UNL1        0.1040
      3  C         20.1240  -23.4230   -9.8240 C.2     1  UNL1        0.0960
      4  C         20.9760  -22.7160  -10.8130 C.2     1  UNL1       -0.0200
      5  C         20.4930  -21.7230  -11.6030 C.2     1  UNL1        0.0260
      6  C         19.1390  -21.3220  -11.4070 C.2     1  UNL1        0.1670
      7  N         18.4260  -20.3730  -11.9760 N.2     1  UNL1       -0.1300
      8  N         17.1810  -20.3770  -11.4030 N.2     1  UNL1       -0.1430
      9  C         17.1660  -21.3260  -10.4970 C.2     1  UNL1        0.2420
     10  N         18.3750  -21.9800  -10.4590 N.pl3   1  UNL1       -0.2710
     11  C         18.8200  -23.0610   -9.6540 C.2     1  UNL1        0.1320
     12  C         21.3590  -21.0570  -12.6630 C.3     1  UNL1        0.3160
     13  N         22.5970  -21.7920  -12.9880 N.3     1  UNL1        0.0970
     14  C         23.2910  -22.1580  -11.7520 C.3     1  UNL1        0.2770
     15  C         22.4330  -23.1340  -10.9350 C.3     1  UNL1        0.0710
     16  N         17.8710  -23.6120   -8.7840 N.pl3   1  UNL1       -0.3700
     17  H         17.0510  -24.0020   -9.2460 H       1  UNL1        0.1610
     18  C         18.0490  -24.1930   -7.4600 C.3     1  UNL1        0.1600
     19  C         18.2440  -23.0760   -6.4620 C.2     1  UNL1       -0.0410
     20  C         17.5110  -23.0590   -5.2660 C.2     1  UNL1        0.0090
     21  C         17.7090  -22.0460   -4.3280 C.2     1  UNL1        0.0010
     22  C         18.6460  -21.0420   -4.5730 C.2     1  UNL1        0.0000
     23  C         19.3870  -21.0540   -5.7540 C.2     1  UNL1        0.0010
     24  C         19.1890  -22.0670   -6.6940 C.2     1  UNL1        0.0090
     25  C         23.4760  -20.9930  -13.8590 C.3     1  UNL1        0.3110
     26  C         24.5710  -21.8080  -14.5160 C.2     1  UNL1       -0.0300
     27  C         24.3010  -22.5850  -15.6500 C.2     1  UNL1        0.0090
     28  C         25.3140  -23.3310  -16.2540 C.2     1  UNL1        0.0010
     29  C         26.6060  -23.3060  -15.7330 C.2     1  UNL1        0.0000
     30  C         26.8880  -22.5370  -14.6060 C.2     1  UNL1        0.0010
     31  C         25.8760  -21.7910  -14.0000 C.2     1  UNL1        0.0090
@<TRIPOS>BOND
     1    28    29    2
     2    28    27    1
     3    29    30    1
     4    27    26    2
     5    30    31    2
     6    26    31    1
     7    26    25    1
     8    25    13    1
     9    13    12    1
    10    13    14    1
    11    12     5    1
    12     7     6    2
    13     7     8    1
    14    14    15    1
    15     5     6    1
    16     5     4    2
    17     6    10    1
    18     8     9    2
    19    15     4    1
    20     4     3    1
    21     9    10    1
    22    10    11    1
    23     3    11    2
    24     3     2    1
    25    11    16    1
    26    17    16    1
    27     2     1    3
    28    16    18    1
    29    18    19    1
    30    24    19    2
    31    24    23    1
    32    19    20    1
    33    23    22    2
    34    20    21    2
    35    22    21    1
