@<TRIPOS>MOLECULE
57557_out_ligand_01.pdbqt
 38 42 0 0 0
SMALL
GASTEIGER

@<TRIPOS>ATOM
      1  O         22.2260  -20.2720  -13.7840 O.2     1  UNL1       -0.2440
      2  C         22.1540  -21.2310  -13.0200 C.2     1  UNL1        0.3580
      3  N         20.9220  -21.5580  -12.5090 N.am    1  UNL1       -0.1680
      4  C         20.8820  -22.2140  -11.4160 C.2     1  UNL1        0.1830
      5  C         22.0300  -22.7130  -10.6780 C.2     1  UNL1        0.0860
      6  C         22.0590  -23.1460   -9.4020 C.2     1  UNL1        0.0330
      7  C         23.3010  -22.7350  -11.4530 C.2     1  UNL1        0.2710
      8  O         24.2390  -23.4240  -11.0510 O.2     1  UNL1       -0.2660
      9  N         23.2890  -21.9690  -12.6230 N.am    1  UNL1       -0.2280
     10  O         19.6760  -22.5150  -10.9330 O.2     1  UNL1       -0.3440
     11  H         19.6310  -23.4750  -10.7890 H       1  UNL1        0.2190
     12  C         20.9460  -23.1550   -8.4520 C.2     1  UNL1       -0.0350
     13  C         20.1060  -24.2600   -8.3700 C.2     1  UNL1        0.0130
     14  C         19.0390  -24.2700   -7.4610 C.2     1  UNL1        0.0310
     15  C         18.7600  -23.1820   -6.6150 C.2     1  UNL1        0.0360
     16  C         19.6730  -22.1020   -6.6610 C.2     1  UNL1       -0.0310
     17  N         17.6860  -23.1940   -5.7050 N.pl3   1  UNL1       -0.3760
     18  C         20.7350  -22.0830   -7.5880 C.2     1  UNL1        0.0210
     19  C         19.5330  -20.9180   -5.7380 C.3     1  UNL1        0.0420
     20  C         18.6910  -21.2690   -4.5280 C.3     1  UNL1        0.0240
     21  C         17.4100  -21.9250   -5.0070 C.3     1  UNL1        0.1230
     22  C         16.4690  -23.9570   -6.0460 C.3     1  UNL1        0.1610
     23  C         16.0550  -23.7290   -7.4870 C.2     1  UNL1       -0.0400
     24  C         16.1800  -22.4610   -8.0760 C.2     1  UNL1        0.0090
     25  C         15.8230  -22.2650   -9.4110 C.2     1  UNL1        0.0010
     26  C         15.3440  -23.3310  -10.1720 C.2     1  UNL1        0.0000
     27  C         15.2220  -24.5970   -9.6010 C.2     1  UNL1        0.0010
     28  C         15.5780  -24.7950   -8.2660 C.2     1  UNL1        0.0090
     29  C         24.5060  -21.8310  -13.3990 C.2     1  UNL1        0.0480
     30  C         25.6480  -21.2330  -12.8390 C.2     1  UNL1        0.0300
     31  C         26.8270  -21.0760  -13.5730 C.2     1  UNL1        0.0030
     32  C         26.8940  -21.5200  -14.8890 C.2     1  UNL1        0.0160
     33  C         25.7820  -22.1270  -15.4820 C.2     1  UNL1        0.0500
     34  C         24.5960  -22.2670  -14.7330 C.2     1  UNL1        0.0460
     35  C         25.8360  -22.6050  -16.9130 C.3     1  UNL1        0.4170
     36  F         25.0490  -23.6940  -17.1290 F       1  UNL1       -0.1660
     37  F         25.4230  -21.6640  -17.8080 F       1  UNL1       -0.1660
     38  F         27.0900  -22.9620  -17.3080 F       1  UNL1       -0.1660
@<TRIPOS>BOND
     1    37    35    1
     2    38    35    1
     3    36    35    1
     4    35    33    1
     5    33    32    2
     6    33    34    1
     7    32    31    1
     8    34    29    2
     9     1     2    2
    10    31    30    2
    11    29    30    1
    12    29     9    1
    13     2     9   am
    14     2     3    1
    15     9     7   am
    16     3     4    2
    17     7     8    2
    18     7     5    1
    19     4    10    1
    20     4     5    1
    21    10    11    1
    22     5     6    2
    23    26    27    2
    24    26    25    1
    25    27    28    1
    26    25    24    2
    27     6    12    1
    28    12    13    2
    29    12    18    1
    30    13    14    1
    31    28    23    2
    32    24    23    1
    33    18    16    2
    34    23    22    1
    35    14    15    2
    36    16    15    1
    37    16    19    1
    38    15    17    1
    39    22    17    1
    40    19    20    1
    41    17    21    1
    42    21    20    1
