@<TRIPOS>MOLECULE
57593_out_ligand_01.pdbqt
 38 43 0 0 0
SMALL
GASTEIGER

@<TRIPOS>ATOM
      1  N         20.4090  -23.6800   -9.2110 N.pl3   1  UNL1       -0.3460
      2  C         21.7720  -23.7740   -9.3190 C.2     1  UNL1        0.1050
      3  C         22.1930  -22.9210  -10.3220 C.2     1  UNL1        0.0110
      4  C         21.0190  -22.2850  -10.8430 C.2     1  UNL1        0.0040
      5  C         20.7860  -21.3270  -11.8550 C.2     1  UNL1        0.0140
      6  C         19.4830  -20.8990  -12.1260 C.2     1  UNL1        0.0010
      7  C         18.4090  -21.4110  -11.4090 C.2     1  UNL1        0.0020
      8  C         18.6050  -22.3610  -10.4030 C.2     1  UNL1        0.0300
      9  C         19.9190  -22.7850  -10.1390 C.2     1  UNL1        0.0450
     10  C         23.5830  -22.7690  -10.7050 C.3     1  UNL1        0.1460
     11  N         24.3290  -21.8910  -10.1130 N.3     1  UNL1       -0.2050
     12  N         25.6220  -21.8410  -10.5780 N.pl3   1  UNL1       -0.1470
     13  H         26.3170  -21.6320   -9.8600 H       1  UNL1        0.1580
     14  C         25.9300  -20.9050  -11.6020 C.cat   1  UNL1        0.2430
     15  N         26.4440  -19.6810  -11.2820 N.2     1  UNL1       -0.1150
     16  N         26.7280  -18.7640  -12.2150 N.pl3   1  UNL1       -0.1420
     17  C         26.4700  -19.1250  -13.4940 C.ar    1  UNL1        0.1370
     18  C         25.9450  -20.3730  -13.7610 C.ar    1  UNL1        0.1630
     19  C         26.6270  -18.4390  -14.7270 C.ar    1  UNL1        0.0250
     20  N         25.6460  -21.3190  -12.8570 N.pl3   1  UNL1       -0.1960
     21  N         25.7770  -20.4730  -15.1130 N.ar    1  UNL1       -0.3380
     22  C         26.1850  -19.3090  -15.7310 C.ar    1  UNL1        0.0460
     23  H         25.4080  -21.2870  -15.5780 H       1  UNL1        0.1670
     24  C         26.1970  -18.9620  -17.0870 C.2     1  UNL1        0.0300
     25  C         26.6720  -17.6900  -17.4240 C.2     1  UNL1        0.0020
     26  C         27.1160  -16.8020  -16.4460 C.2     1  UNL1        0.0010
     27  C         27.0990  -17.1620  -15.0930 C.2     1  UNL1        0.0160
     28  C         19.6100  -24.4130   -8.2390 C.3     1  UNL1        0.2310
     29  C         18.7750  -23.5600   -7.2920 C.2     1  UNL1        0.2400
     30  O         19.2800  -22.5330   -6.8320 O.2     1  UNL1       -0.2710
     31  N         17.5100  -24.0310   -6.9830 N.am    1  UNL1       -0.3260
     32  H         17.2130  -24.8980   -7.4150 H       1  UNL1        0.1690
     33  C         16.5570  -23.4520   -6.1210 C.2     1  UNL1        0.0340
     34  C         15.4580  -22.7080   -6.5490 C.2     1  UNL1        0.0290
     35  C         14.5630  -22.1660   -5.6190 C.2     1  UNL1        0.0020
     36  C         14.7600  -22.3650   -4.2540 C.2     1  UNL1        0.0000
     37  C         15.8530  -23.1060   -3.8170 C.2     1  UNL1        0.0020
     38  C         16.7460  -23.6460   -4.7460 C.2     1  UNL1        0.0290
@<TRIPOS>BOND
     1    25    24    2
     2    25    26    1
     3    24    22    1
     4    26    27    2
     5    22    21   ar
     6    22    19   ar
     7    23    21    1
     8    21    18   ar
     9    27    19    1
    10    19    17   ar
    11    18    17   ar
    12    18    20    1
    13    17    16    1
    14    20    14    1
    15    16    15    1
    16     6     5    1
    17     6     7    2
    18     5     4    2
    19    14    15    2
    20    14    12    1
    21     7     8    1
    22     4     3    1
    23     4     9    1
    24    10     3    1
    25    10    11    1
    26    12    11    1
    27    12    13    1
    28     8     9    2
    29     3     2    2
    30     9     1    1
    31     2     1    1
    32     1    28    1
    33    28    29    1
    34    32    31    1
    35    29    31   am
    36    29    30    2
    37    31    33    1
    38    34    33    2
    39    34    35    1
    40    33    38    1
    41    35    36    2
    42    38    37    2
    43    36    37    1
