@<TRIPOS>MOLECULE
5761_out_ligand_01.pdbqt
 33 36 0 0 0
SMALL
GASTEIGER

@<TRIPOS>ATOM
      1  C         23.3320  -21.9810  -11.3130 C.2     1  UNL1        0.0750
      2  C         23.5830  -21.9690   -9.9400 C.2     1  UNL1        0.0270
      3  C         22.5180  -22.0940   -9.0410 C.2     1  UNL1        0.0310
      4  C         21.2080  -22.2390   -9.5060 C.2     1  UNL1        0.0350
      5  C         20.9760  -22.2710  -10.8890 C.2     1  UNL1        0.0310
      6  C         22.0330  -22.1480  -11.7950 C.2     1  UNL1        0.0270
      7  N         20.0850  -22.3620   -8.6690 N.am    1  UNL1       -0.3210
      8  C         19.5040  -23.5150   -8.1670 C.2     1  UNL1        0.2800
      9  O         19.8990  -24.6570   -8.3790 O.2     1  UNL1       -0.2650
     10  H         19.6250  -21.5050   -8.3810 H       1  UNL1        0.1690
     11  C         18.3460  -23.2330   -7.3320 C.ar    1  UNL1        0.1500
     12  O         18.5270  -23.1270   -5.9770 O.2     1  UNL1       -0.3040
     13  C         17.3140  -22.8670   -5.4240 C.ar    1  UNL1        0.0870
     14  C         17.0710  -22.6880   -4.0640 C.2     1  UNL1        0.0380
     15  C         16.3370  -22.8010   -6.4080 C.ar    1  UNL1        0.0070
     16  C         15.7480  -22.4270   -3.6940 C.2     1  UNL1        0.0030
     17  C         14.7330  -22.3520   -4.6510 C.2     1  UNL1        0.0010
     18  C         15.0120  -22.5370   -6.0120 C.2     1  UNL1        0.0150
     19  C         17.0070  -23.0390   -7.6480 C.ar    1  UNL1       -0.0090
     20  C         16.4060  -23.0730   -9.0070 C.3     1  UNL1        0.0520
     21  S         24.6900  -21.8170  -12.4530 S.O2    1  UNL1        0.2470
     22  O         25.6890  -20.9860  -11.8140 O.2     1  UNL1       -0.2050
     23  O         25.0220  -23.1370  -12.9460 O.2     1  UNL1       -0.2050
     24  N         24.0370  -20.9070  -13.7130 N.pl3   1  UNL1       -0.1650
     25  H         23.0210  -20.9640  -13.7090 H       1  UNL1        0.1470
     26  C         24.5550  -21.1660  -14.9980 C.2     1  UNL1        0.1200
     27  C         25.5830  -20.4390  -15.5430 C.2     1  UNL1        0.0720
     28  C         26.0030  -20.8530  -16.7860 C.2     1  UNL1        0.0360
     29  C         27.1210  -20.1420  -17.4850 C.3     1  UNL1        0.0700
     30  N         25.4430  -21.9070  -17.4180 N.2     1  UNL1       -0.2390
     31  C         24.4400  -22.5480  -16.7870 C.2     1  UNL1        0.1240
     32  N         23.9550  -22.2070  -15.5820 N.2     1  UNL1       -0.2210
     33  C         23.7990  -23.7010  -17.4940 C.3     1  UNL1        0.0930
@<TRIPOS>BOND
     1    33    31    1
     2    29    28    1
     3    30    31    2
     4    30    28    1
     5    31    32    1
     6    28    27    2
     7    32    26    2
     8    27    26    1
     9    26    24    1
    10    24    25    1
    11    24    21    1
    12    23    21    2
    13    21    22    2
    14    21     1    1
    15     6     1    2
    16     6     5    1
    17     1     2    1
    18     5     4    2
    19     2     3    2
    20     4     3    1
    21     4     7    1
    22    20    19    1
    23     7    10    1
    24     7     8   am
    25     9     8    2
    26     8    11    1
    27    19    11   ar
    28    19    15   ar
    29    11    12   ar
    30    15    18    1
    31    15    13   ar
    32    18    17    2
    33    12    13   ar
    34    13    14    1
    35    17    16    1
    36    14    16    2
