@<TRIPOS>MOLECULE
57687_out_ligand_01.pdbqt
 31 33 0 0 0
SMALL
GASTEIGER

@<TRIPOS>ATOM
      1  C         19.5740  -22.2040  -10.2580 C.2     1  UNL1        0.0340
      2  C         18.7490  -21.5250  -11.1550 C.2     1  UNL1        0.0190
      3  C         17.3610  -21.5780  -10.9900 C.2     1  UNL1        0.0260
      4  C         16.7800  -22.3140   -9.9440 C.2     1  UNL1        0.0570
      5 CL         15.0570  -22.2910   -9.8970 Cl      1  UNL1       -0.0830
      6  C         17.6080  -23.0070   -9.0590 C.2     1  UNL1        0.1020
      7  C         19.0060  -22.9400   -9.2140 C.2     1  UNL1        0.0440
      8  C         21.0520  -22.2210  -10.4150 C.2     1  UNL1        0.2560
      9  N         21.4960  -22.1480  -11.7210 N.am    1  UNL1       -0.3230
     10  H         20.8010  -21.9890  -12.4370 H       1  UNL1        0.1690
     11  O         21.7270  -22.2770   -9.3940 O.2     1  UNL1       -0.2670
     12  C         22.8330  -22.1800  -12.1740 C.2     1  UNL1        0.0350
     13  C         23.1330  -21.4500  -13.3270 C.2     1  UNL1        0.0300
     14  C         24.4310  -21.4320  -13.8420 C.2     1  UNL1        0.0090
     15  C         25.4610  -22.1450  -13.2140 C.2     1  UNL1       -0.0560
     16  C         26.8480  -22.1050  -13.7950 C.3     1  UNL1        0.0490
     17  C         25.1670  -22.8930  -12.0590 C.2     1  UNL1       -0.0540
     18  C         23.8530  -22.8990  -11.5500 C.2     1  UNL1        0.0370
     19  C         26.2340  -23.6730  -11.3370 C.3     1  UNL1        0.0490
     20  S         17.0210  -23.9800   -7.6930 S.O2    1  UNL1        0.2650
     21  O         18.1140  -24.6530   -7.0330 O.2     1  UNL1       -0.2000
     22  O         15.8970  -24.7510   -8.1880 O.2     1  UNL1       -0.2000
     23  N         16.3520  -22.8300   -6.6590 N.pl3   1  UNL1       -0.2800
     24  H         15.6950  -22.2080   -7.1270 H       1  UNL1        0.1790
     25  C         17.0860  -22.3380   -5.5420 C.2     1  UNL1        0.0480
     26  C         18.1830  -21.4970   -5.7490 C.2     1  UNL1        0.0300
     27  C         18.8950  -20.9840   -4.6660 C.2     1  UNL1        0.0020
     28  C         18.5210  -21.3170   -3.3680 C.2     1  UNL1        0.0010
     29  C         17.4390  -22.1720   -3.1530 C.2     1  UNL1        0.0090
     30  C         16.7130  -22.7000   -4.2340 C.2     1  UNL1       -0.0350
     31  C         15.5610  -23.6260   -3.9510 C.3     1  UNL1        0.0500
@<TRIPOS>BOND
     1    14    13    1
     2    14    15    2
     3    16    15    1
     4    13    12    2
     5    15    17    1
     6    10     9    1
     7    12     9    1
     8    12    18    1
     9    17    18    2
    10    17    19    1
    11     9     8   am
    12     2     3    1
    13     2     1    2
    14     3     4    2
    15     8     1    1
    16     8    11    2
    17     1     7    1
    18     4     5    1
    19     4     6    1
    20     7     6    2
    21     6    20    1
    22    22    20    2
    23    20    21    2
    24    20    23    1
    25    24    23    1
    26    23    25    1
    27    26    25    2
    28    26    27    1
    29    25    30    1
    30    27    28    2
    31    30    31    1
    32    30    29    2
    33    28    29    1
