@<TRIPOS>MOLECULE
57700_out_ligand_01.pdbqt
 31 33 0 0 0
SMALL
GASTEIGER

@<TRIPOS>ATOM
      1  C         18.5320  -22.3150  -10.2280 C.2     1  UNL1        0.0860
      2  C         19.8260  -22.8440  -10.0850 C.2     1  UNL1        0.0420
      3  C         20.8760  -22.3600  -10.8670 C.2     1  UNL1        0.0330
      4  C         20.6350  -21.3500  -11.8020 C.2     1  UNL1        0.0170
      5  C         19.3500  -20.8150  -11.9370 C.2     1  UNL1        0.0090
      6  C         18.2780  -21.2880  -11.1590 C.2     1  UNL1       -0.0390
      7  C         16.9290  -20.6560  -11.3550 C.3     1  UNL1        0.0500
      8  S         17.2520  -22.9930   -9.1720 S.O2    1  UNL1        0.2630
      9  O         16.4940  -21.8910   -8.6200 O.2     1  UNL1       -0.2000
     10  O         16.5800  -24.0470   -9.9020 O.2     1  UNL1       -0.2000
     11  N         18.1200  -23.7430   -7.9360 N.pl3   1  UNL1       -0.2810
     12  H         18.9700  -24.1900   -8.2720 H       1  UNL1        0.1790
     13  C         18.1380  -23.1630   -6.6360 C.2     1  UNL1        0.0430
     14  C         17.4870  -23.7670   -5.5610 C.2     1  UNL1        0.0370
     15  C         17.4810  -23.1540   -4.3020 C.2     1  UNL1       -0.0590
     16  C         18.1260  -21.9210   -4.1390 C.2     1  UNL1        0.0130
     17  C         16.7300  -23.7780   -3.1630 C.3     1  UNL1        0.0480
     18  C         18.7870  -21.3090   -5.2120 C.2     1  UNL1       -0.0590
     19  C         19.5110  -20.0100   -5.0130 C.3     1  UNL1        0.0480
     20  C         18.8020  -21.9480   -6.4570 C.2     1  UNL1        0.0370
     21  C         22.2260  -22.9660  -10.7050 C.2     1  UNL1        0.2560
     22  O         22.4090  -23.7280   -9.7640 O.2     1  UNL1       -0.2670
     23  N         23.1570  -22.5640  -11.6460 N.am    1  UNL1       -0.3230
     24  H         22.8770  -21.8270  -12.2810 H       1  UNL1        0.1690
     25  C         24.4950  -22.9980  -11.7650 C.2     1  UNL1        0.0360
     26  C         25.4560  -22.8470  -10.7630 C.2     1  UNL1        0.0290
     27  C         26.7630  -23.3110  -10.9520 C.2     1  UNL1        0.0040
     28  C         27.1190  -23.9320  -12.1460 C.2     1  UNL1        0.0240
     29  C         26.1650  -24.0880  -13.1470 C.2     1  UNL1        0.0360
     30 CL         26.5940  -24.8590  -14.6240 Cl      1  UNL1       -0.0840
     31  C         24.8600  -23.6270  -12.9630 C.2     1  UNL1        0.0530
@<TRIPOS>BOND
     1    30    29    1
     2    29    31    1
     3    29    28    2
     4    31    25    2
     5    24    23    1
     6    28    27    1
     7     5     4    2
     8     5     6    1
     9     4     3    1
    10    25    23    1
    11    25    26    1
    12    23    21   am
    13     7     6    1
    14     6     1    2
    15    27    26    2
    16     3    21    1
    17     3     2    2
    18    21    22    2
    19     1     2    1
    20     1     8    1
    21    10     8    2
    22     8     9    2
    23     8    11    1
    24    12    11    1
    25    11    13    1
    26    13    20    2
    27    13    14    1
    28    20    18    1
    29    14    15    2
    30    18    19    1
    31    18    16    2
    32    15    16    1
    33    15    17    1
