@<TRIPOS>MOLECULE
57703_out_ligand_01.pdbqt
 37 40 0 0 0
SMALL
GASTEIGER

@<TRIPOS>ATOM
      1  C         19.0780  -23.1400  -10.1870 C.2     1  UNL1        0.0860
      2  C         19.6990  -24.0280   -9.3050 C.2     1  UNL1        0.0390
      3  C         20.9870  -23.7670   -8.8200 C.2     1  UNL1        0.0110
      4  C         21.6790  -22.6150   -9.2100 C.2     1  UNL1       -0.0430
      5  C         21.0550  -21.7200  -10.0890 C.2     1  UNL1        0.0300
      6  C         19.7690  -21.9810  -10.5720 C.2     1  UNL1        0.0440
      7 BR         19.0090  -20.7320  -11.7870 Br      1  UNL1       -0.0480
      8  C         23.0690  -22.3290   -8.6880 C.3     1  UNL1        0.1310
      9  N         23.7210  -21.3650   -9.5630 N.pl3   1  UNL1       -0.2890
     10  H         24.2450  -20.6640   -9.0450 H       1  UNL1        0.1280
     11  C         24.4210  -21.8100  -10.6880 C.2     1  UNL1        0.0080
     12  C         25.5020  -21.0400  -11.1450 C.2     1  UNL1        0.0260
     13  C         26.2090  -21.3840  -12.3020 C.2     1  UNL1        0.0390
     14  C         25.8100  -22.4900  -13.0490 C.2     1  UNL1        0.0760
     15  C         24.7310  -23.2610  -12.6240 C.2     1  UNL1        0.0390
     16  C         24.0290  -22.9070  -11.4650 C.2     1  UNL1        0.0260
     17  O         26.4730  -22.9100  -14.1780 O.2     1  UNL1       -0.3110
     18  C         25.8800  -22.6470  -15.3930 C.2     1  UNL1        0.0760
     19  C         26.0860  -21.3800  -15.9380 C.2     1  UNL1        0.0370
     20  C         25.5400  -21.0600  -17.1820 C.2     1  UNL1        0.0030
     21  C         24.8050  -22.0130  -17.8870 C.2     1  UNL1        0.0000
     22  C         24.6190  -23.2890  -17.3520 C.2     1  UNL1        0.0030
     23  C         25.1640  -23.6120  -16.1080 C.2     1  UNL1        0.0370
     24  O         17.8270  -23.3150  -10.7210 O.2     1  UNL1       -0.3410
     25  C         16.7330  -22.6020  -10.1580 C.3     1  UNL1        0.2780
     26  C         16.3340  -23.0570   -8.7470 C.2     1  UNL1        0.2460
     27  N         16.7100  -22.1390   -7.7810 N.am    1  UNL1       -0.3250
     28  H         17.1190  -21.2880   -8.1530 H       1  UNL1        0.1690
     29  O         15.7740  -24.1340   -8.5750 O.2     1  UNL1       -0.2710
     30  C         16.5240  -22.1980   -6.3800 C.2     1  UNL1        0.0410
     31  C         15.2820  -22.5070   -5.8160 C.2     1  UNL1        0.0300
     32  C         15.1160  -22.5530   -4.4340 C.2     1  UNL1        0.0030
     33  C         16.1900  -22.2850   -3.5940 C.2     1  UNL1        0.0070
     34  C         17.4510  -21.9710   -4.1220 C.2     1  UNL1       -0.0540
     35  C         18.5740  -21.6930   -3.1580 C.3     1  UNL1        0.0490
     36  C         17.6300  -21.9350   -5.5280 C.2     1  UNL1       -0.0290
     37  C         18.9800  -21.5980   -6.1190 C.3     1  UNL1        0.0510
@<TRIPOS>BOND
     1    21    22    2
     2    21    20    1
     3    22    23    1
     4    20    19    2
     5    23    18    2
     6    19    18    1
     7    18    17    1
     8    17    14    1
     9    14    15    2
    10    14    13    1
    11    15    16    1
    12    13    12    2
    13     7     6    1
    14    16    11    2
    15    12    11    1
    16    24     1    1
    17    24    25    1
    18    11     9    1
    19     6     1    2
    20     6     5    1
    21     1     2    1
    22    25    26    1
    23     5     4    2
    24     9    10    1
    25     9     8    1
    26     2     3    2
    27     4     3    1
    28     4     8    1
    29    26    29    2
    30    26    27   am
    31    28    27    1
    32    27    30    1
    33    30    31    2
    34    30    36    1
    35    37    36    1
    36    31    32    1
    37    36    34    2
    38    32    33    2
    39    34    33    1
    40    34    35    1
