@<TRIPOS>MOLECULE
57711_out_ligand_01.pdbqt
 31 33 0 0 0
SMALL
GASTEIGER

@<TRIPOS>ATOM
      1  C         17.4820  -23.0630   -9.0510 C.2     1  UNL1        0.0860
      2  C         18.8720  -23.0490   -9.2580 C.2     1  UNL1        0.0420
      3  C         19.4250  -22.2630  -10.2710 C.2     1  UNL1        0.0330
      4  C         18.5880  -21.5310  -11.1170 C.2     1  UNL1        0.0170
      5  C         17.2040  -21.5640  -10.9270 C.2     1  UNL1        0.0090
      6  C         16.6270  -22.3160   -9.8870 C.2     1  UNL1       -0.0390
      7  C         15.1290  -22.3090   -9.7580 C.3     1  UNL1        0.0500
      8  S         16.8720  -24.0770   -7.7050 S.O2    1  UNL1        0.2630
      9  O         18.0030  -24.7360   -7.0870 O.2     1  UNL1       -0.2000
     10  O         15.7500  -24.8540   -8.1850 O.2     1  UNL1       -0.2000
     11  N         16.2360  -22.9380   -6.6330 N.pl3   1  UNL1       -0.2800
     12  H         15.5360  -22.3420   -7.0660 H       1  UNL1        0.1790
     13  C         17.0380  -22.4090   -5.5780 C.2     1  UNL1        0.0490
     14  C         16.7540  -22.7340   -4.2410 C.2     1  UNL1       -0.0350
     15  C         17.5260  -22.1480   -3.2250 C.2     1  UNL1        0.0090
     16  C         15.6370  -23.6620   -3.8570 C.3     1  UNL1        0.0500
     17  C         18.5700  -21.2730   -3.5300 C.2     1  UNL1        0.0070
     18  C         18.8780  -20.9820   -4.8600 C.2     1  UNL1       -0.0600
     19  C         19.9840  -20.0280   -5.2030 C.3     1  UNL1        0.0480
     20  C         18.1050  -21.5540   -5.8770 C.2     1  UNL1        0.0370
     21  C         20.9050  -22.2510  -10.4370 C.2     1  UNL1        0.2560
     22  O         21.6010  -22.2210   -9.4310 O.2     1  UNL1       -0.2670
     23  N         21.3350  -22.2340  -11.7520 N.am    1  UNL1       -0.3230
     24  H         20.6260  -22.1280  -12.4640 H       1  UNL1        0.1690
     25  C         22.6680  -22.2530  -12.2140 C.2     1  UNL1        0.0350
     26  C         23.6690  -23.0670  -11.6780 C.2     1  UNL1        0.0310
     27  C         24.9690  -23.0310  -12.1960 C.2     1  UNL1        0.0210
     28  C         25.2700  -22.1830  -13.2570 C.2     1  UNL1        0.0110
     29 BR         27.0240  -22.1360  -13.9570 Br      1  UNL1       -0.0510
     30  C         24.2840  -21.3680  -13.8050 C.2     1  UNL1        0.0210
     31  C         22.9860  -21.4060  -13.2840 C.2     1  UNL1        0.0310
@<TRIPOS>BOND
     1    29    28    1
     2    30    31    1
     3    30    28    2
     4    31    25    2
     5    28    27    1
     6    24    23    1
     7    25    23    1
     8    25    26    1
     9    27    26    2
    10    23    21   am
    11     4     5    2
    12     4     3    1
    13     5     6    1
    14    21     3    1
    15    21    22    2
    16     3     2    2
    17     6     7    1
    18     6     1    2
    19     2     1    1
    20     1     8    1
    21    10     8    2
    22     8     9    2
    23     8    11    1
    24    12    11    1
    25    11    13    1
    26    20    13    2
    27    20    18    1
    28    13    14    1
    29    19    18    1
    30    18    17    2
    31    14    16    1
    32    14    15    2
    33    17    15    1
