@<TRIPOS>MOLECULE
5771_out_ligand_01.pdbqt
 30 33 0 0 0
SMALL
GASTEIGER

@<TRIPOS>ATOM
      1  C         19.2520  -23.3260   -9.0750 C.2     1  UNL1        0.0320
      2  C         19.5400  -22.5300  -10.1880 C.2     1  UNL1        0.0190
      3  C         20.8350  -22.5080  -10.7230 C.2     1  UNL1        0.0300
      4  C         21.8510  -23.2840  -10.1610 C.2     1  UNL1        0.0340
      5  C         21.5520  -24.0940   -9.0600 C.2     1  UNL1        0.0300
      6  C         20.2610  -24.1200   -8.5210 C.2     1  UNL1        0.0190
      7  N         23.1730  -23.3160  -10.6400 N.am    1  UNL1       -0.3250
      8  C         24.1620  -22.3550  -10.4900 C.2     1  UNL1        0.2540
      9  O         24.0380  -21.2700   -9.9300 O.2     1  UNL1       -0.2700
     10  H         23.4710  -24.1700  -11.1010 H       1  UNL1        0.1690
     11  C         25.4690  -22.7500  -11.2080 C.3     1  UNL1        0.2450
     12  C         25.1950  -23.4270  -12.5450 C.3     1  UNL1        0.2180
     13  O         24.6830  -22.5070  -13.5170 O.2     1  UNL1       -0.3450
     14  C         25.3760  -21.3280  -13.5140 C.2     1  UNL1        0.1020
     15  C         25.1960  -20.4950  -14.6170 C.2     1  UNL1        0.0390
     16  C         26.2170  -20.9360  -12.4720 C.2     1  UNL1        0.1030
     17  C         25.8850  -19.2830  -14.6940 C.2     1  UNL1        0.0030
     18  C         26.7480  -18.9040  -13.6650 C.2     1  UNL1        0.0030
     19  C         26.9150  -19.7310  -12.5540 C.2     1  UNL1        0.0400
     20  O         26.4040  -21.6740  -11.3330 O.2     1  UNL1       -0.3310
     21  C         17.8930  -23.3880   -8.4690 C.2     1  UNL1        0.2520
     22  O         16.9010  -23.3380   -9.1870 O.2     1  UNL1       -0.2680
     23  N         17.8360  -23.5300   -7.0970 N.am    1  UNL1       -0.3520
     24  H         18.6900  -23.5960   -6.5620 H       1  UNL1        0.1630
     25  C         16.5700  -23.5240   -6.3770 C.3     1  UNL1        0.0840
     26  C         16.8080  -23.7640   -4.8820 C.3     1  UNL1        0.0250
     27  C         15.5060  -23.7030   -4.0870 C.3     1  UNL1        0.0020
     28  C         14.7640  -22.3920   -4.3250 C.3     1  UNL1        0.0000
     29  C         14.5240  -22.1420   -5.8110 C.3     1  UNL1        0.0020
     30  C         15.8240  -22.2040   -6.6100 C.3     1  UNL1        0.0250
@<TRIPOS>BOND
     1    17    15    1
     2    17    18    2
     3    15    14    2
     4    18    19    1
     5    13    14    1
     6    13    12    1
     7    14    16    1
     8    19    16    2
     9    12    11    1
    10    16    20    1
    11    20    11    1
    12    11     8    1
    13    10     7    1
    14     3     2    1
    15     3     4    2
    16     7     8   am
    17     7     4    1
    18     8     9    2
    19     2     1    2
    20     4     5    1
    21    22    21    2
    22     1     6    1
    23     1    21    1
    24     5     6    2
    25    21    23   am
    26    23    24    1
    27    23    25    1
    28    30    25    1
    29    30    29    1
    30    25    26    1
    31    29    28    1
    32    26    27    1
    33    28    27    1
