@<TRIPOS>MOLECULE
57723_out_ligand_01.pdbqt
 31 33 0 0 0
SMALL
GASTEIGER

@<TRIPOS>ATOM
      1  C         20.7930  -22.4290  -10.7650 C.2     1  UNL1        0.0330
      2  C         20.4560  -21.4400  -11.6930 C.2     1  UNL1        0.0170
      3  C         19.1410  -20.9740  -11.7680 C.2     1  UNL1        0.0090
      4  C         18.1360  -21.4940  -10.9320 C.2     1  UNL1       -0.0390
      5  C         16.7450  -20.9370  -11.0610 C.3     1  UNL1        0.0500
      6  C         18.4890  -22.4950  -10.0050 C.2     1  UNL1        0.0810
      7  C         19.8100  -22.9620   -9.9270 C.2     1  UNL1        0.0420
      8  S         17.2930  -23.2090   -8.8790 S.O2    1  UNL1        0.2460
      9  O         17.9850  -24.1710   -8.0490 O.2     1  UNL1       -0.2060
     10  O         16.1300  -23.5820   -9.6560 O.2     1  UNL1       -0.2060
     11  N         16.8680  -21.8310   -7.9700 N.pl3   1  UNL1       -0.1810
     12  H         16.0610  -21.3890   -8.4060 H       1  UNL1        0.1460
     13  C         16.6670  -22.0870   -6.5690 C.2     1  UNL1        0.0290
     14  C         15.3790  -22.4630   -6.1780 C.2     1  UNL1        0.0250
     15  C         15.0840  -22.6810   -4.8380 C.2     1  UNL1        0.0020
     16  C         16.0740  -22.5040   -3.8760 C.2     1  UNL1        0.0070
     17  C         17.3680  -22.1000   -4.2430 C.2     1  UNL1       -0.0540
     18  C         18.3900  -21.8980   -3.1540 C.3     1  UNL1        0.0490
     19  C         17.6850  -21.9040   -5.6110 C.2     1  UNL1       -0.0340
     20  C         19.0680  -21.4360   -5.9920 C.3     1  UNL1        0.0500
     21  C         22.1780  -22.9670  -10.6720 C.2     1  UNL1        0.2560
     22  N         23.0440  -22.5020  -11.6420 N.am    1  UNL1       -0.3230
     23  H         22.7020  -21.7700  -12.2520 H       1  UNL1        0.1690
     24  O         22.4290  -23.7370   -9.7530 O.2     1  UNL1       -0.2670
     25  C         24.3950  -22.8640  -11.8290 C.2     1  UNL1        0.0350
     26  C         25.3120  -22.4380  -10.8600 C.2     1  UNL1        0.0290
     27  C         26.6660  -22.7580  -10.9710 C.2     1  UNL1        0.0030
     28  C         27.1210  -23.5010  -12.0590 C.2     1  UNL1        0.0070
     29  C         26.2240  -23.9210  -13.0460 C.2     1  UNL1       -0.0600
     30  C         26.6970  -24.7480  -14.2050 C.3     1  UNL1        0.0480
     31  C         24.8600  -23.6070  -12.9180 C.2     1  UNL1        0.0360
@<TRIPOS>BOND
     1    30    29    1
     2    29    31    1
     3    29    28    2
     4    31    25    2
     5    23    22    1
     6    28    27    1
     7    25    22    1
     8    25    26    1
     9     3     2    1
    10     3     4    2
    11     2     1    2
    12    22    21   am
    13     5     4    1
    14    27    26    2
    15     4     6    1
    16     1    21    1
    17     1     7    1
    18    21    24    2
    19     6     7    2
    20     6     8    1
    21    10     8    2
    22     8     9    2
    23     8    11    1
    24    12    11    1
    25    11    13    1
    26    13    14    2
    27    13    19    1
    28    14    15    1
    29    20    19    1
    30    19    17    2
    31    15    16    2
    32    17    16    1
    33    17    18    1
