@<TRIPOS>MOLECULE
57721_out_ligand_01.pdbqt
 37 40 0 0 0
SMALL
GASTEIGER

@<TRIPOS>ATOM
      1  O         16.2940  -22.9250  -10.0520 O.2     1  UNL1       -0.3420
      2  C         16.0930  -23.1730   -8.7210 C.2     1  UNL1        0.0690
      3  C         16.2330  -24.4070   -8.0820 C.2     1  UNL1        0.0380
      4  C         16.0170  -24.5130   -6.7040 C.2     1  UNL1        0.0280
      5  C         15.6560  -23.3810   -5.9680 C.2     1  UNL1        0.0800
      6  C         15.5320  -22.1400   -6.5950 C.2     1  UNL1        0.0280
      7  C         15.7470  -22.0440   -7.9710 C.2     1  UNL1        0.0380
      8  S         15.4160  -23.5140   -4.2150 S.O2    1  UNL1        0.2630
      9  O         14.7440  -22.3050   -3.7810 O.2     1  UNL1       -0.2000
     10  O         14.8620  -24.8160   -3.9160 O.2     1  UNL1       -0.2000
     11  N         16.9930  -23.4070   -3.6150 N.pl3   1  UNL1       -0.2810
     12  H         17.3540  -24.3350   -3.3980 H       1  UNL1        0.1790
     13  C         17.8820  -22.4970   -4.2480 C.2     1  UNL1        0.0430
     14  C         18.0720  -21.2290   -3.7020 C.2     1  UNL1        0.0300
     15  C         18.9200  -20.3220   -4.3360 C.2     1  UNL1        0.0030
     16  C         19.5690  -20.6810   -5.5190 C.2     1  UNL1        0.0070
     17  C         19.3650  -21.9460   -6.0850 C.2     1  UNL1       -0.0600
     18  C         20.0740  -22.3420   -7.3450 C.3     1  UNL1        0.0480
     19  C         18.5240  -22.8580   -5.4330 C.2     1  UNL1        0.0370
     20  C         16.6380  -21.5990  -10.4380 C.3     1  UNL1        0.2780
     21  C         17.9220  -21.4790  -11.2690 C.2     1  UNL1        0.2460
     22  O         17.9140  -20.8880  -12.3460 O.2     1  UNL1       -0.2710
     23  N         19.0110  -22.0670  -10.6530 N.am    1  UNL1       -0.3250
     24  H         18.8070  -22.5490   -9.7830 H       1  UNL1        0.1690
     25  C         20.3360  -22.1430  -11.1200 C.2     1  UNL1        0.0350
     26  C         21.2090  -22.9950  -10.4290 C.2     1  UNL1        0.0320
     27  C         22.5400  -23.1310  -10.8320 C.2     1  UNL1        0.0390
     28  C         23.0050  -22.4270  -11.9380 C.2     1  UNL1        0.0760
     29  C         22.1530  -21.5550  -12.6180 C.2     1  UNL1        0.0390
     30  C         20.8210  -21.4210  -12.2130 C.2     1  UNL1        0.0320
     31  O         24.3320  -22.5790  -12.2680 O.2     1  UNL1       -0.3110
     32  C         25.0990  -21.4380  -12.3300 C.2     1  UNL1        0.0760
     33  C         25.3490  -20.7640  -13.5280 C.2     1  UNL1        0.0370
     34  C         26.1640  -19.6310  -13.5280 C.2     1  UNL1        0.0030
     35  C         26.7390  -19.1850  -12.3380 C.2     1  UNL1        0.0000
     36  C         26.5080  -19.8750  -11.1470 C.2     1  UNL1        0.0030
     37  C         25.6940  -21.0060  -11.1440 C.2     1  UNL1        0.0370
@<TRIPOS>BOND
     1    34    33    1
     2    34    35    2
     3    33    32    2
     4    29    30    1
     5    29    28    2
     6    22    21    2
     7    35    36    1
     8    32    31    1
     9    32    37    1
    10    31    28    1
    11    30    25    2
    12    28    27    1
    13    21    23   am
    14    21    20    1
    15    36    37    2
    16    25    23    1
    17    25    26    1
    18    27    26    2
    19    23    24    1
    20    20     1    1
    21     1     2    1
    22     2     3    2
    23     2     7    1
    24     3     4    1
    25     7     6    2
    26    18    17    1
    27     4     5    2
    28     6     5    1
    29    17    16    2
    30    17    19    1
    31     5     8    1
    32    16    15    1
    33    19    13    2
    34    15    14    2
    35    13    14    1
    36    13    11    1
    37     8    10    2
    38     8     9    2
    39     8    11    1
    40    11    12    1
