@<TRIPOS>MOLECULE
57727_out_ligand_01.pdbqt
 34 36 0 0 0
SMALL
GASTEIGER

@<TRIPOS>ATOM
      1  C         15.6290  -23.3610   -5.9390 C.2     1  UNL1        0.0750
      2  C         15.4180  -22.1520   -6.6090 C.2     1  UNL1        0.0270
      3  C         15.6390  -22.0850   -7.9850 C.2     1  UNL1        0.0380
      4  C         16.0760  -23.2180   -8.6690 C.2     1  UNL1        0.0690
      5  C         16.2520  -24.4340   -8.0060 C.2     1  UNL1        0.0380
      6  C         16.0440  -24.5040   -6.6300 C.2     1  UNL1        0.0270
      7  O         16.3000  -23.1600  -10.0150 O.2     1  UNL1       -0.3420
      8  C         16.4080  -21.8140  -10.4820 C.3     1  UNL1        0.2780
      9  C         17.7270  -21.4870  -11.1990 C.2     1  UNL1        0.2460
     10  O         17.7550  -20.7070  -12.1470 O.2     1  UNL1       -0.2710
     11  N         18.8110  -22.1740  -10.6670 N.am    1  UNL1       -0.3250
     12  H         18.6030  -22.8610   -9.9530 H       1  UNL1        0.1690
     13  C         20.1450  -22.1530  -11.1230 C.2     1  UNL1        0.0340
     14  C         20.5860  -21.4070  -12.2140 C.2     1  UNL1        0.0300
     15  C         21.9260  -21.4570  -12.6140 C.2     1  UNL1        0.0180
     16  C         22.8500  -22.2590  -11.9310 C.2     1  UNL1        0.0480
     17  C         22.4070  -22.9960  -10.8270 C.2     1  UNL1        0.0180
     18  C         21.0680  -22.9430  -10.4290 C.2     1  UNL1        0.0300
     19  C         24.2950  -22.2930  -12.3660 C.3     1  UNL1        0.4170
     20  F         24.7810  -23.5620  -12.4420 F       1  UNL1       -0.1660
     21  F         24.5030  -21.7380  -13.5930 F       1  UNL1       -0.1660
     22  F         25.1190  -21.6250  -11.5120 F       1  UNL1       -0.1660
     23  S         15.3820  -23.4630   -4.1800 S.O2    1  UNL1        0.2450
     24  O         14.8340  -24.7710   -3.8880 O.2     1  UNL1       -0.2060
     25  O         14.7170  -22.2400   -3.7890 O.2     1  UNL1       -0.2060
     26  N         16.9980  -23.4730   -3.6320 N.pl3   1  UNL1       -0.1810
     27  H         16.9780  -23.2960   -2.6260 H       1  UNL1        0.1460
     28  C         17.8350  -22.5160   -4.2950 C.2     1  UNL1        0.0230
     29  C         18.0210  -21.2580   -3.7240 C.2     1  UNL1        0.0240
     30  C         18.8640  -20.3360   -4.3420 C.2     1  UNL1        0.0020
     31  C         19.5320  -20.6780   -5.5200 C.2     1  UNL1        0.0070
     32  C         19.3760  -21.9520   -6.0800 C.2     1  UNL1       -0.0600
     33  C         20.0860  -22.3130   -7.3510 C.3     1  UNL1        0.0480
     34  C         18.5180  -22.8700   -5.4600 C.2     1  UNL1        0.0310
@<TRIPOS>BOND
     1    21    19    1
     2    15    14    1
     3    15    16    2
     4    20    19    1
     5    19    16    1
     6    19    22    1
     7    14    13    2
     8    10     9    2
     9    16    17    1
    10     9    11   am
    11     9     8    1
    12    13    11    1
    13    13    18    1
    14    17    18    2
    15    11    12    1
    16     8     7    1
    17     7     4    1
    18     4     5    2
    19     4     3    1
    20     5     6    1
    21     3     2    2
    22    33    32    1
    23     6     1    2
    24     2     1    1
    25    32    31    2
    26    32    34    1
    27     1    23    1
    28    31    30    1
    29    34    28    2
    30    30    29    2
    31    28    29    1
    32    28    26    1
    33    23    24    2
    34    23    25    2
    35    23    26    1
    36    26    27    1
