@<TRIPOS>MOLECULE
57737_out_ligand_01.pdbqt
 32 34 0 0 0
SMALL
GASTEIGER

@<TRIPOS>ATOM
      1  C         17.4970  -23.2960   -8.9240 C.2     1  UNL1        0.0860
      2  C         18.8810  -23.5100   -9.0330 C.2     1  UNL1        0.0420
      3  C         19.6170  -22.8830  -10.0410 C.2     1  UNL1        0.0330
      4  C         18.9750  -22.0380  -10.9460 C.2     1  UNL1        0.0170
      5  C         17.5960  -21.8390  -10.8510 C.2     1  UNL1        0.0090
      6  C         16.8320  -22.4660   -9.8470 C.2     1  UNL1       -0.0390
      7  C         15.3490  -22.2210   -9.8430 C.3     1  UNL1        0.0500
      8  S         16.6810  -24.1750   -7.5940 S.O2    1  UNL1        0.2630
      9  O         17.7260  -24.8140   -6.8180 O.2     1  UNL1       -0.2000
     10  O         15.5840  -24.9550   -8.1160 O.2     1  UNL1       -0.2000
     11  N         16.0860  -22.9260   -6.6250 N.pl3   1  UNL1       -0.2800
     12  H         15.0820  -22.9940   -6.4860 H       1  UNL1        0.1790
     13  C         16.8850  -22.3890   -5.5740 C.2     1  UNL1        0.0490
     14  C         16.5900  -22.6540   -4.2270 C.2     1  UNL1       -0.0350
     15  C         17.4480  -22.1390   -3.2390 C.2     1  UNL1        0.0090
     16  C         15.4420  -23.5140   -3.7790 C.3     1  UNL1        0.0500
     17  C         18.5480  -21.3490   -3.5800 C.2     1  UNL1        0.0070
     18  C         18.8140  -21.0500   -4.9170 C.2     1  UNL1       -0.0600
     19  C         20.0070  -20.2250   -5.2960 C.3     1  UNL1        0.0480
     20  C         17.9810  -21.5850   -5.9080 C.2     1  UNL1        0.0370
     21  C         21.0850  -23.1070  -10.0910 C.2     1  UNL1        0.2560
     22  O         21.5650  -23.8920   -9.2830 O.2     1  UNL1       -0.2670
     23  N         21.7340  -22.4130  -11.0930 N.am    1  UNL1       -0.3220
     24  H         21.1420  -21.9320  -11.7530 H       1  UNL1        0.1690
     25  C         23.1240  -22.3850  -11.3740 C.2     1  UNL1        0.0410
     26  C         24.0660  -22.8700  -10.4590 C.2     1  UNL1        0.0300
     27  C         25.4300  -22.8230  -10.7430 C.2     1  UNL1        0.0030
     28  C         25.8730  -22.2850  -11.9460 C.2     1  UNL1        0.0070
     29  C         24.9600  -21.7820  -12.8840 C.2     1  UNL1       -0.0540
     30  C         25.5070  -21.2170  -14.1690 C.3     1  UNL1        0.0490
     31  C         23.5700  -21.8360  -12.6060 C.2     1  UNL1       -0.0290
     32  C         22.5690  -21.3190  -13.6140 C.3     1  UNL1        0.0510
@<TRIPOS>BOND
     1    30    29    1
     2    32    31    1
     3    29    31    1
     4    29    28    2
     5    31    25    2
     6    28    27    1
     7    24    23    1
     8    25    23    1
     9    25    26    1
    10    23    21   am
    11     4     5    2
    12     4     3    1
    13     5     6    1
    14    27    26    2
    15    21     3    1
    16    21    22    2
    17     3     2    2
    18     6     7    1
    19     6     1    2
    20     2     1    1
    21     1     8    1
    22    10     8    2
    23     8     9    2
    24     8    11    1
    25    11    12    1
    26    11    13    1
    27    20    13    2
    28    20    18    1
    29    13    14    1
    30    19    18    1
    31    18    17    2
    32    14    16    1
    33    14    15    2
    34    17    15    1
