@<TRIPOS>MOLECULE
57742_out_ligand_01.pdbqt
 31 33 0 0 0
SMALL
GASTEIGER

@<TRIPOS>ATOM
      1  C         17.5780  -23.4580   -8.7130 C.2     1  UNL1        0.0810
      2  C         18.9740  -23.5920   -8.7760 C.2     1  UNL1        0.0420
      3  C         19.6940  -22.9530   -9.7880 C.2     1  UNL1        0.0330
      4  C         19.0220  -22.1930  -10.7490 C.2     1  UNL1        0.0170
      5  C         17.6330  -22.0570  -10.6830 C.2     1  UNL1        0.0090
      6  C         16.8870  -22.6890   -9.6720 C.2     1  UNL1       -0.0390
      7  C         15.3960  -22.4900   -9.6570 C.3     1  UNL1        0.0500
      8  S         16.7270  -24.2850   -7.3710 S.O2    1  UNL1        0.2460
      9  O         17.7250  -24.9310   -6.5500 O.2     1  UNL1       -0.2060
     10  O         15.6240  -25.0270   -7.9450 O.2     1  UNL1       -0.2060
     11  N         16.0570  -22.9400   -6.5640 N.pl3   1  UNL1       -0.1810
     12  H         15.1320  -23.2020   -6.2220 H       1  UNL1        0.1460
     13  C         16.8830  -22.3970   -5.5190 C.2     1  UNL1        0.0290
     14  C         16.6380  -22.6860   -4.1660 C.2     1  UNL1       -0.0400
     15  C         17.5040  -22.1510   -3.2000 C.2     1  UNL1        0.0090
     16  C         15.4940  -23.5510   -3.7180 C.3     1  UNL1        0.0500
     17  C         18.5870  -21.3490   -3.5700 C.2     1  UNL1        0.0070
     18  C         18.8240  -21.0570   -4.9150 C.2     1  UNL1       -0.0600
     19  C         20.0110  -20.2350   -5.3210 C.3     1  UNL1        0.0480
     20  C         17.9730  -21.5990   -5.8840 C.2     1  UNL1        0.0310
     21  C         21.1700  -23.1390   -9.8390 C.2     1  UNL1        0.2560
     22  O         21.6670  -23.9750   -9.0960 O.2     1  UNL1       -0.2670
     23  N         21.8280  -22.3040  -10.7240 N.am    1  UNL1       -0.3230
     24  H         21.2740  -21.5860  -11.1730 H       1  UNL1        0.1690
     25  C         23.2110  -22.2800  -11.0060 C.2     1  UNL1        0.0360
     26  C         24.1300  -21.4720  -10.3330 C.2     1  UNL1        0.0290
     27  C         25.4890  -21.5080  -10.6660 C.2     1  UNL1        0.0040
     28  C         25.9400  -22.3560  -11.6750 C.2     1  UNL1        0.0240
     29  C         25.0290  -23.1640  -12.3470 C.2     1  UNL1        0.0360
     30 CL         25.5770  -24.2170  -13.5930 Cl      1  UNL1       -0.0840
     31  C         23.6720  -23.1320  -12.0180 C.2     1  UNL1        0.0530
@<TRIPOS>BOND
     1    30    29    1
     2    29    31    1
     3    29    28    2
     4    31    25    2
     5    28    27    1
     6    24    23    1
     7    25    23    1
     8    25    26    1
     9     4     5    2
    10     4     3    1
    11    23    21   am
    12     5     6    1
    13    27    26    2
    14    21     3    1
    15    21    22    2
    16     3     2    2
    17     6     7    1
    18     6     1    2
    19     2     1    1
    20     1     8    1
    21    10     8    2
    22     8    11    1
    23     8     9    2
    24    11    12    1
    25    11    13    1
    26    20    13    2
    27    20    18    1
    28    13    14    1
    29    19    18    1
    30    18    17    2
    31    14    16    1
    32    14    15    2
    33    17    15    1
