@<TRIPOS>MOLECULE
57752_out_ligand_01.pdbqt
 31 33 0 0 0
SMALL
GASTEIGER

@<TRIPOS>ATOM
      1  C         17.6360  -23.1810   -8.8810 C.2     1  UNL1        0.0860
      2  C         19.0370  -23.1350   -8.9480 C.2     1  UNL1        0.0420
      3  C         19.6660  -22.4260   -9.9730 C.2     1  UNL1        0.0330
      4  C         18.9000  -21.7510  -10.9270 C.2     1  UNL1        0.0170
      5  C         17.5050  -21.7990  -10.8610 C.2     1  UNL1        0.0090
      6  C         16.8500  -22.5070   -9.8370 C.2     1  UNL1       -0.0390
      7  C         15.3460  -22.5190   -9.8340 C.3     1  UNL1        0.0500
      8  S         16.9110  -24.1420   -7.5600 S.O2    1  UNL1        0.2630
      9  O         15.8040  -24.8920   -8.1130 O.2     1  UNL1       -0.2000
     10  O         17.9640  -24.8280   -6.8430 O.2     1  UNL1       -0.2000
     11  N         16.2320  -22.9560   -6.5600 N.pl3   1  UNL1       -0.2810
     12  H         15.2760  -23.2100   -6.3140 H       1  UNL1        0.1790
     13  C         17.0460  -22.4280   -5.5180 C.2     1  UNL1        0.0430
     14  C         16.7750  -22.7610   -4.1930 C.2     1  UNL1        0.0300
     15  C         17.5350  -22.1950   -3.1700 C.2     1  UNL1        0.0030
     16  C         18.5610  -21.3000   -3.4730 C.2     1  UNL1        0.0070
     17  C         18.8430  -20.9660   -4.8040 C.2     1  UNL1       -0.0600
     18  C         19.9100  -19.9630   -5.1270 C.3     1  UNL1        0.0480
     19  C         18.0660  -21.5270   -5.8260 C.2     1  UNL1        0.0370
     20  C         21.1530  -22.3720  -10.0030 C.2     1  UNL1        0.2560
     21  O         21.7400  -22.2230   -8.9400 O.2     1  UNL1       -0.2670
     22  N         21.7030  -22.5270  -11.2620 N.am    1  UNL1       -0.3220
     23  H         21.0610  -22.7680  -12.0020 H       1  UNL1        0.1690
     24  C         23.0720  -22.4760  -11.6250 C.2     1  UNL1        0.0410
     25  C         24.0760  -23.0640  -10.8460 C.2     1  UNL1        0.0370
     26  C         25.4280  -22.9910  -11.2150 C.2     1  UNL1       -0.0600
     27  C         26.4760  -23.6640  -10.3780 C.3     1  UNL1        0.0480
     28  C         25.7760  -22.3360  -12.3960 C.2     1  UNL1        0.0070
     29  C         24.7900  -21.7400  -13.1810 C.2     1  UNL1        0.0090
     30  C         23.4350  -21.7970  -12.8080 C.2     1  UNL1       -0.0350
     31  C         22.4250  -21.1330  -13.7040 C.3     1  UNL1        0.0500
@<TRIPOS>BOND
     1    31    30    1
     2    29    30    1
     3    29    28    2
     4    30    24    2
     5    28    26    1
     6    23    22    1
     7    24    22    1
     8    24    25    1
     9    22    20   am
    10    26    25    2
    11    26    27    1
    12     4     5    2
    13     4     3    1
    14     5     6    1
    15    20     3    1
    16    20    21    2
    17     3     2    2
    18     6     7    1
    19     6     1    2
    20     2     1    1
    21     1     8    1
    22     9     8    2
    23     8    10    2
    24     8    11    1
    25    11    12    1
    26    11    13    1
    27    19    13    2
    28    19    17    1
    29    13    14    1
    30    18    17    1
    31    17    16    2
    32    14    15    2
    33    16    15    1
