@<TRIPOS>MOLECULE
57769_out_ligand_01.pdbqt
 31 33 0 0 0
SMALL
GASTEIGER

@<TRIPOS>ATOM
      1  C         17.5110  -23.3390   -8.9080 C.2     1  UNL1        0.1020
      2  C         18.9050  -23.5290   -8.9870 C.2     1  UNL1        0.0440
      3  C         19.6560  -22.9010   -9.9850 C.2     1  UNL1        0.0340
      4  C         19.0190  -22.0810  -10.9160 C.2     1  UNL1        0.0190
      5  C         17.6330  -21.9040  -10.8470 C.2     1  UNL1        0.0260
      6  C         16.8680  -22.5320   -9.8490 C.2     1  UNL1        0.0570
      7 CL         15.1800  -22.1950   -9.8960 Cl      1  UNL1       -0.0830
      8  S         16.6820  -24.1990   -7.5920 S.O2    1  UNL1        0.2650
      9  O         15.5760  -24.9750   -8.1000 O.2     1  UNL1       -0.2000
     10  O         17.7170  -24.8470   -6.8110 O.2     1  UNL1       -0.2000
     11  N         16.0990  -22.9530   -6.6170 N.pl3   1  UNL1       -0.2800
     12  H         15.0920  -23.0090   -6.4720 H       1  UNL1        0.1790
     13  C         16.9080  -22.3920   -5.5860 C.2     1  UNL1        0.0490
     14  C         16.5990  -22.6420   -4.2380 C.2     1  UNL1       -0.0350
     15  C         17.4360  -22.1080   -3.2450 C.2     1  UNL1        0.0090
     16  C         15.4120  -23.4660   -3.8210 C.3     1  UNL1        0.0500
     17  C         18.5470  -21.3330   -3.5830 C.2     1  UNL1        0.0070
     18  C         18.8330  -21.0540   -4.9220 C.2     1  UNL1       -0.0600
     19  C         20.0410  -20.2460   -5.2930 C.3     1  UNL1        0.0480
     20  C         18.0080  -21.5920   -5.9180 C.2     1  UNL1        0.0370
     21  C         21.1330  -23.0780   -9.9810 C.2     1  UNL1        0.2560
     22  O         21.6230  -23.7380   -9.0750 O.2     1  UNL1       -0.2670
     23  N         21.7920  -22.4840  -11.0400 N.am    1  UNL1       -0.3230
     24  H         21.2210  -22.0990  -11.7820 H       1  UNL1        0.1690
     25  C         23.1880  -22.4310  -11.2520 C.2     1  UNL1        0.0360
     26  C         23.9130  -21.5040  -10.4870 C.2     1  UNL1        0.0290
     27  C         25.2980  -21.3920  -10.6260 C.2     1  UNL1        0.0040
     28  C         25.9740  -22.2120  -11.5280 C.2     1  UNL1        0.0240
     29  C         25.2580  -23.1360  -12.2850 C.2     1  UNL1        0.0360
     30 CL         26.0980  -24.1550  -13.3900 Cl      1  UNL1       -0.0840
     31  C         23.8720  -23.2490  -12.1520 C.2     1  UNL1        0.0530
@<TRIPOS>BOND
     1    30    29    1
     2    29    31    1
     3    29    28    2
     4    31    25    2
     5    24    23    1
     6    28    27    1
     7    25    23    1
     8    25    26    1
     9    23    21   am
    10     4     5    2
    11     4     3    1
    12     5     6    1
    13    27    26    2
    14     3    21    1
    15     3     2    2
    16    21    22    2
    17     7     6    1
    18     6     1    2
    19     2     1    1
    20     1     8    1
    21     9     8    2
    22     8    10    2
    23     8    11    1
    24    11    12    1
    25    11    13    1
    26    20    13    2
    27    20    18    1
    28    13    14    1
    29    19    18    1
    30    18    17    2
    31    14    16    1
    32    14    15    2
    33    17    15    1
