@<TRIPOS>MOLECULE
5776_out_ligand_01.pdbqt
 37 42 0 0 0
SMALL
GASTEIGER

@<TRIPOS>ATOM
      1  C         25.0820  -23.6230   -9.6250 C.3     1  UNL1        0.3310
      2  C         23.6360  -23.7440   -9.4340 C.1     1  UNL1       -0.0780
      3  C         22.4640  -23.9480   -9.2620 C.1     1  UNL1       -0.1010
      4  C         21.0400  -24.2550   -9.0030 C.3     1  UNL1        0.1420
      5  C         20.1680  -23.0110   -8.6980 C.3     1  UNL1        0.1240
      6  C         18.7850  -23.4550   -8.2170 C.2     1  UNL1       -0.0070
      7  C         18.4570  -24.1760   -7.0770 C.2     1  UNL1        0.0110
      8  C         17.7930  -23.0390   -9.1340 C.2     1  UNL1       -0.0160
      9  C         17.1130  -24.4950   -6.8640 C.2     1  UNL1        0.0010
     10  C         16.1270  -24.0930   -7.7800 C.2     1  UNL1        0.0010
     11  C         16.4620  -23.3570   -8.9210 C.2     1  UNL1        0.0130
     12  C         18.4180  -22.2610  -10.1820 C.2     1  UNL1       -0.0160
     13  C         17.8570  -21.6040  -11.2660 C.2     1  UNL1        0.0130
     14  C         19.8040  -22.1740   -9.9260 C.2     1  UNL1       -0.0070
     15  C         18.6860  -20.8300  -12.0850 C.2     1  UNL1        0.0010
     16  C         20.0540  -20.7020  -11.7990 C.2     1  UNL1        0.0010
     17  C         20.6180  -21.3640  -10.7060 C.2     1  UNL1        0.0110
     18  O         20.7870  -22.1790   -7.7210 O.3     1  UNL1       -0.3790
     19  H         21.2860  -21.5000   -8.2090 H       1  UNL1        0.2110
     20  N         25.4620  -22.9520  -10.9620 N.4     1  UNL1       -0.0530
     21  C         26.9650  -23.0900  -11.2410 C.3     1  UNL1        0.2390
     22  C         27.1210  -24.2950  -12.1420 C.3     1  UNL1        0.0390
     23  C         25.8570  -24.3300  -12.9920 C.3     1  UNL1        0.0460
     24  C         24.7720  -23.6160  -12.1680 C.3     1  UNL1        0.2480
     25  C         25.1190  -21.4410  -10.8810 C.3     1  UNL1        0.2770
     26  C         25.5620  -20.5720  -12.0370 C.2     1  UNL1       -0.0320
     27  C         24.8300  -20.6050  -13.2410 C.2     1  UNL1        0.0090
     28  C         25.2130  -19.8260  -14.3350 C.2     1  UNL1        0.0010
     29  C         26.3430  -19.0170  -14.2460 C.2     1  UNL1        0.0000
     30  C         27.0840  -18.9790  -13.0640 C.2     1  UNL1        0.0010
     31  C         26.6910  -19.7410  -11.9620 C.2     1  UNL1        0.0090
     32  C         25.9570  -23.7290  -14.3840 C.2     1  UNL1       -0.0520
     33  C         24.8340  -23.8230  -15.2280 C.2     1  UNL1        0.0070
     34  C         24.8460  -23.2640  -16.5090 C.2     1  UNL1        0.0010
     35  C         25.9800  -22.6010  -16.9660 C.2     1  UNL1        0.0000
     36  C         27.1010  -22.4970  -16.1440 C.2     1  UNL1        0.0010
     37  C         27.0900  -23.0550  -14.8630 C.2     1  UNL1        0.0070
@<TRIPOS>BOND
     1    35    34    2
     2    35    36    1
     3    34    33    1
     4    36    37    2
     5    33    32    2
     6    37    32    1
     7    32    23    1
     8    28    29    2
     9    28    27    1
    10    29    30    1
    11    27    26    2
    12    30    31    2
    13    23    24    1
    14    23    22    1
    15    24    20    1
    16    22    21    1
    17    15    16    2
    18    15    13    1
    19    26    31    1
    20    26    25    1
    21    16    17    1
    22    13    12    2
    23    21    20    1
    24    20    25    1
    25    20     1    1
    26    17    14    2
    27    12    14    1
    28    12     8    1
    29    14     5    1
    30     1     2    1
    31     2     3    3
    32     3     4    1
    33     8    11    1
    34     8     6    2
    35     4     5    1
    36    11    10    2
    37     5     6    1
    38     5    18    1
    39     6     7    1
    40    19    18    1
    41    10     9    1
    42     7     9    2
