@<TRIPOS>MOLECULE
57764_out_ligand_01.pdbqt
 31 33 0 0 0
SMALL
GASTEIGER

@<TRIPOS>ATOM
      1  C         19.4910  -22.7090  -10.0450 C.2     1  UNL1        0.0340
      2  C         18.7680  -21.9040  -10.9310 C.2     1  UNL1        0.0190
      3  C         17.3810  -21.7900  -10.7930 C.2     1  UNL1        0.0260
      4  C         16.7030  -22.4810   -9.7800 C.2     1  UNL1        0.0570
      5 CL         14.9890  -22.2840   -9.7320 Cl      1  UNL1       -0.0830
      6  C         17.4240  -23.2950   -8.9050 C.2     1  UNL1        0.1020
      7  C         18.8190  -23.4080   -9.0370 C.2     1  UNL1        0.0440
      8  S         16.6320  -24.2010   -7.6020 S.O2    1  UNL1        0.2650
      9  O         15.4790  -24.8770   -8.1610 O.2     1  UNL1       -0.2000
     10  O         17.6470  -24.9680   -6.9140 O.2     1  UNL1       -0.2000
     11  N         16.1020  -23.0090   -6.5380 N.pl3   1  UNL1       -0.2800
     12  H         15.1090  -23.1060   -6.3350 H       1  UNL1        0.1790
     13  C         16.9520  -22.4300   -5.5410 C.2     1  UNL1        0.0490
     14  C         18.0170  -21.5910   -5.8910 C.2     1  UNL1        0.0370
     15  C         18.8590  -21.0370   -4.9180 C.2     1  UNL1       -0.0600
     16  C         19.9980  -20.1460   -5.3240 C.3     1  UNL1        0.0480
     17  C         18.5880  -21.2750   -3.5720 C.2     1  UNL1        0.0070
     18  C         17.4950  -22.0620   -3.2060 C.2     1  UNL1        0.0090
     19  C         16.6590  -22.6350   -4.1800 C.2     1  UNL1       -0.0350
     20  C         15.4860  -23.4540   -3.7180 C.3     1  UNL1        0.0500
     21  C         20.9640  -22.8830  -10.1740 C.2     1  UNL1        0.2560
     22  N         21.6030  -21.8930  -10.8950 N.am    1  UNL1       -0.3230
     23  H         21.0500  -21.0950  -11.1780 H       1  UNL1        0.1690
     24  O         21.4730  -23.8510   -9.6240 O.2     1  UNL1       -0.2670
     25  C         22.9760  -21.8190  -11.2130 C.2     1  UNL1        0.0350
     26  C         23.3490  -22.1640  -12.5180 C.2     1  UNL1        0.0300
     27  C         24.6910  -22.1230  -12.9120 C.2     1  UNL1        0.0090
     28  C         25.6850  -21.7490  -12.0050 C.2     1  UNL1       -0.0620
     29  C         27.1190  -21.6690  -12.4310 C.3     1  UNL1        0.0480
     30  C         25.3100  -21.3940  -10.7050 C.2     1  UNL1        0.0090
     31  C         23.9670  -21.4350  -10.3110 C.2     1  UNL1        0.0300
@<TRIPOS>BOND
     1    27    26    1
     2    27    28    2
     3    26    25    2
     4    29    28    1
     5    28    30    1
     6    25    22    1
     7    25    31    1
     8    23    22    1
     9     2     3    1
    10     2     1    2
    11    22    21   am
    12     3     4    2
    13    30    31    2
    14    21     1    1
    15    21    24    2
    16     1     7    1
    17     4     5    1
    18     4     6    1
    19     7     6    2
    20     6     8    1
    21     9     8    2
    22     8    10    2
    23     8    11    1
    24    11    12    1
    25    11    13    1
    26    14    13    2
    27    14    15    1
    28    13    19    1
    29    16    15    1
    30    15    17    2
    31    19    20    1
    32    19    18    2
    33    17    18    1
