@<TRIPOS>MOLECULE
57762_out_ligand_01.pdbqt
 31 33 0 0 0
SMALL
GASTEIGER

@<TRIPOS>ATOM
      1  C         20.9450  -22.3410  -10.9760 C.2     1  UNL1        0.0330
      2  C         20.5110  -21.3970  -11.9090 C.2     1  UNL1        0.0170
      3  C         19.1860  -20.9540  -11.8850 C.2     1  UNL1        0.0090
      4  C         18.2610  -21.4570  -10.9480 C.2     1  UNL1       -0.0390
      5  C         16.8610  -20.9110  -10.9840 C.3     1  UNL1        0.0500
      6  C         18.7020  -22.4360  -10.0380 C.2     1  UNL1        0.0860
      7  C         20.0430  -22.8570  -10.0440 C.2     1  UNL1        0.0420
      8  C         22.3390  -22.8630  -10.9780 C.2     1  UNL1        0.2560
      9  N         23.1110  -22.4450  -12.0450 N.am    1  UNL1       -0.3220
     10  H         22.7000  -21.7450  -12.6470 H       1  UNL1        0.1690
     11  O         22.6770  -23.5770  -10.0420 O.2     1  UNL1       -0.2670
     12  C         24.4460  -22.8080  -12.3480 C.2     1  UNL1        0.0410
     13  C         25.4990  -22.1450  -11.6800 C.2     1  UNL1       -0.0350
     14  C         26.8290  -22.4850  -11.9840 C.2     1  UNL1        0.0090
     15  C         25.2570  -21.0770  -10.6470 C.3     1  UNL1        0.0500
     16  C         27.1210  -23.4670  -12.9300 C.2     1  UNL1        0.0070
     17  C         26.0870  -24.1340  -13.5860 C.2     1  UNL1       -0.0600
     18  C         26.3870  -25.1670  -14.6310 C.3     1  UNL1        0.0480
     19  C         24.7570  -23.7890  -13.2980 C.2     1  UNL1        0.0370
     20  S         17.6550  -23.2120   -8.8100 S.O2    1  UNL1        0.2630
     21  O         16.4540  -23.6370   -9.5000 O.2     1  UNL1       -0.2000
     22  O         18.4210  -24.1550   -8.0260 O.2     1  UNL1       -0.2000
     23  N         17.1910  -21.9230   -7.8240 N.pl3   1  UNL1       -0.2800
     24  H         17.6320  -21.0480   -8.1000 H       1  UNL1        0.1790
     25  C         16.8840  -22.1260   -6.4450 C.2     1  UNL1        0.0480
     26  C         15.6030  -22.5450   -6.0690 C.2     1  UNL1        0.0300
     27  C         15.2920  -22.7600   -4.7260 C.2     1  UNL1        0.0020
     28  C         16.2570  -22.5470   -3.7480 C.2     1  UNL1        0.0010
     29  C         17.5280  -22.1010   -4.1120 C.2     1  UNL1        0.0090
     30  C         17.8560  -21.8790   -5.4600 C.2     1  UNL1       -0.0350
     31  C         19.2290  -21.3630   -5.7940 C.3     1  UNL1        0.0500
@<TRIPOS>BOND
     1    18    17    1
     2    17    19    1
     3    17    16    2
     4    19    12    2
     5    16    14    1
     6    10     9    1
     7    12     9    1
     8    12    13    1
     9     9     8   am
    10    14    13    2
    11     2     3    1
    12     2     1    2
    13     3     4    2
    14    13    15    1
    15     5     4    1
    16     8     1    1
    17     8    11    2
    18     1     7    1
    19     4     6    1
    20     7     6    2
    21     6    20    1
    22    21    20    2
    23    20    22    2
    24    20    23    1
    25    24    23    1
    26    23    25    1
    27    25    26    2
    28    25    30    1
    29    26    27    1
    30    31    30    1
    31    30    29    2
    32    27    28    2
    33    29    28    1
