@<TRIPOS>MOLECULE
57770_out_ligand_01.pdbqt
 33 35 0 0 0
SMALL
GASTEIGER

@<TRIPOS>ATOM
      1  C         17.5510  -23.4560   -8.7450 C.2     1  UNL1        0.0860
      2  C         18.9480  -23.5860   -8.7970 C.2     1  UNL1        0.0420
      3  C         19.6780  -22.9380   -9.7960 C.2     1  UNL1        0.0330
      4  C         19.0130  -22.1680  -10.7530 C.2     1  UNL1        0.0170
      5  C         17.6230  -22.0330  -10.6970 C.2     1  UNL1        0.0090
      6  C         16.8690  -22.6750   -9.6990 C.2     1  UNL1       -0.0390
      7  C         15.3780  -22.4690   -9.6970 C.3     1  UNL1        0.0500
      8  C         21.1560  -23.1170   -9.8320 C.2     1  UNL1        0.2560
      9  O         21.6680  -23.8680   -9.0130 O.2     1  UNL1       -0.2670
     10  N         21.8040  -22.3690  -10.7990 N.am    1  UNL1       -0.3230
     11  H         21.2470  -21.6970  -11.3090 H       1  UNL1        0.1690
     12  C         23.1840  -22.3690  -11.0950 C.2     1  UNL1        0.0350
     13  C         24.0000  -21.5190  -10.3410 C.2     1  UNL1        0.0290
     14  C         25.3750  -21.4560  -10.5730 C.2     1  UNL1        0.0030
     15  C         25.9490  -22.2420  -11.5700 C.2     1  UNL1        0.0160
     16  C         25.1500  -23.0930  -12.3460 C.2     1  UNL1        0.0500
     17  C         23.7660  -23.1510  -12.0960 C.2     1  UNL1        0.0450
     18  C         25.7550  -23.9600  -13.4230 C.3     1  UNL1        0.4170
     19  F         24.8920  -24.9020  -13.9010 F       1  UNL1       -0.1660
     20  F         26.1560  -23.2420  -14.5070 F       1  UNL1       -0.1660
     21  F         26.8500  -24.6490  -12.9980 F       1  UNL1       -0.1660
     22  S         16.7000  -24.3020   -7.4130 S.O2    1  UNL1        0.2630
     23  O         17.6890  -25.0020   -6.6220 O.2     1  UNL1       -0.2000
     24  O         15.5780  -25.0200   -7.9790 O.2     1  UNL1       -0.2000
     25  N         16.1240  -23.0400   -6.4540 N.pl3   1  UNL1       -0.2810
     26  H         15.1310  -23.1250   -6.2500 H       1  UNL1        0.1790
     27  C         16.9660  -22.4680   -5.4610 C.2     1  UNL1        0.0430
     28  C         16.7320  -22.6780   -4.1030 C.2     1  UNL1        0.0300
     29  C         17.5480  -22.0640   -3.1540 C.2     1  UNL1        0.0030
     30  C         18.6040  -21.2490   -3.5610 C.2     1  UNL1        0.0070
     31  C         18.8620  -21.0490   -4.9220 C.2     1  UNL1       -0.0600
     32  C         19.9850  -20.1510   -5.3490 C.3     1  UNL1        0.0480
     33  C         18.0290  -21.6590   -5.8700 C.2     1  UNL1        0.0370
@<TRIPOS>BOND
     1    20    18    1
     2    19    18    1
     3    18    21    1
     4    18    16    1
     5    16    17    1
     6    16    15    2
     7    17    12    2
     8    15    14    1
     9    11    10    1
    10    12    10    1
    11    12    13    1
    12    10     8   am
    13     4     5    2
    14     4     3    1
    15     5     6    1
    16    14    13    2
    17     8     3    1
    18     8     9    2
    19     3     2    2
    20     6     7    1
    21     6     1    2
    22     2     1    1
    23     1    22    1
    24    24    22    2
    25    22    23    2
    26    22    25    1
    27    25    26    1
    28    25    27    1
    29    33    27    2
    30    33    31    1
    31    27    28    1
    32    32    31    1
    33    31    30    2
    34    28    29    2
    35    30    29    1
