@<TRIPOS>MOLECULE
57785_out_ligand_01.pdbqt
 33 36 0 0 0
SMALL
GASTEIGER

@<TRIPOS>ATOM
      1  C         17.4850  -23.5170   -8.6640 C.2     1  UNL1        0.0860
      2  C         18.8740  -23.7050   -8.7320 C.2     1  UNL1        0.0420
      3  C         19.6160  -23.0790   -9.7370 C.2     1  UNL1        0.0330
      4  C         18.9730  -22.2760  -10.6830 C.2     1  UNL1        0.0170
      5  C         17.5900  -22.0890  -10.6130 C.2     1  UNL1        0.0090
      6  C         16.8230  -22.7070   -9.6100 C.2     1  UNL1       -0.0390
      7  C         15.3410  -22.4530   -9.5930 C.3     1  UNL1        0.0500
      8  C         21.0830  -23.3180   -9.8010 C.2     1  UNL1        0.2560
      9  O         21.5500  -24.1920   -9.0830 O.2     1  UNL1       -0.2670
     10  N         21.7590  -22.4800  -10.6680 N.am    1  UNL1       -0.3220
     11  H         21.2160  -21.7310  -11.0670 H       1  UNL1        0.1690
     12  C         23.1430  -22.4870  -10.9940 C.2     1  UNL1        0.0460
     13  C         24.0910  -23.0170  -10.1090 C.2     1  UNL1        0.0300
     14  C         25.4440  -23.0380  -10.4340 C.2     1  UNL1        0.0030
     15  C         25.8730  -22.5320  -11.6540 C.2     1  UNL1        0.0120
     16  C         24.9590  -21.9970  -12.5690 C.2     1  UNL1       -0.0240
     17  C         25.4310  -21.4950  -13.7940 C.2     1  UNL1        0.0120
     18  C         23.5730  -21.9620  -12.2580 C.2     1  UNL1        0.0010
     19  C         24.5580  -20.9520  -14.7330 C.2     1  UNL1        0.0010
     20  C         23.2020  -20.9020  -14.4580 C.2     1  UNL1        0.0010
     21  C         22.7160  -21.3970  -13.2430 C.2     1  UNL1        0.0140
     22  S         16.6150  -24.3250   -7.3280 S.O2    1  UNL1        0.2630
     23  O         17.6010  -24.9600   -6.4770 O.2     1  UNL1       -0.2000
     24  O         15.5240  -25.1010   -7.8780 O.2     1  UNL1       -0.2000
     25  N         15.9890  -23.0240   -6.4450 N.pl3   1  UNL1       -0.2810
     26  H         15.4720  -22.3960   -7.0600 H       1  UNL1        0.1790
     27  C         16.8340  -22.4210   -5.4730 C.2     1  UNL1        0.0430
     28  C         16.6010  -22.6450   -4.1170 C.2     1  UNL1        0.0300
     29  C         17.4660  -22.1040   -3.1690 C.2     1  UNL1        0.0030
     30  C         18.5610  -21.3390   -3.5740 C.2     1  UNL1        0.0070
     31  C         18.7980  -21.1040   -4.9340 C.2     1  UNL1       -0.0600
     32  C         20.0060  -20.3290   -5.3730 C.3     1  UNL1        0.0480
     33  C         17.9330  -21.6650   -5.8840 C.2     1  UNL1        0.0370
@<TRIPOS>BOND
     1    19    20    1
     2    19    17    2
     3    20    21    2
     4    17    16    1
     5    21    18    1
     6    16    18    1
     7    16    15    2
     8    18    12    2
     9    15    14    1
    10    11    10    1
    11    12    10    1
    12    12    13    1
    13     4     5    2
    14     4     3    1
    15    10     8   am
    16     5     6    1
    17    14    13    2
    18     8     3    1
    19     8     9    2
    20     3     2    2
    21     6     7    1
    22     6     1    2
    23     2     1    1
    24     1    22    1
    25    24    22    2
    26    22    23    2
    27    22    25    1
    28    26    25    1
    29    25    27    1
    30    33    27    2
    31    33    31    1
    32    27    28    1
    33    32    31    1
    34    31    30    2
    35    28    29    2
    36    30    29    1
