@<TRIPOS>MOLECULE
57782_out_ligand_01.pdbqt
 31 33 0 0 0
SMALL
GASTEIGER

@<TRIPOS>ATOM
      1  C         19.8140  -21.8810  -11.3620 C.2     1  UNL1        0.0330
      2  C         18.7120  -21.2680  -11.9630 C.2     1  UNL1        0.0170
      3  C         17.4370  -21.4240  -11.4110 C.2     1  UNL1        0.0090
      4  C         17.2360  -22.1770  -10.2400 C.2     1  UNL1       -0.0390
      5  C         15.8350  -22.3090   -9.7140 C.3     1  UNL1        0.0500
      6  C         18.3570  -22.7820   -9.6370 C.2     1  UNL1        0.0860
      7  C         19.6360  -22.6340  -10.1990 C.2     1  UNL1        0.0420
      8  C         21.1910  -21.7250  -11.9080 C.2     1  UNL1        0.2560
      9  N         22.1670  -22.4140  -11.2190 N.am    1  UNL1       -0.3210
     10  H         21.9140  -22.8830  -10.3560 H       1  UNL1        0.1690
     11  O         21.3490  -21.0000  -12.8830 O.2     1  UNL1       -0.2670
     12  C         23.5480  -22.4920  -11.5040 C.2     1  UNL1        0.0680
     13  C         24.0800  -23.2420  -12.5550 C.2     1  UNL1        0.0320
     14  C         25.4580  -23.2710  -12.7720 C.2     1  UNL1        0.0020
     15  C         26.3130  -22.5540  -11.9380 C.2     1  UNL1        0.0030
     16  C         25.7960  -21.8030  -10.8810 C.2     1  UNL1        0.0390
     17  C         24.4160  -21.7660  -10.6580 C.2     1  UNL1        0.0950
     18  O         23.8000  -21.0640   -9.6450 O.2     1  UNL1       -0.3540
     19  C         23.1070  -21.8270   -8.6630 C.3     1  UNL1        0.2100
     20  S         18.2270  -23.7770   -8.1520 S.O2    1  UNL1        0.2630
     21  O         19.4470  -24.5450   -8.0130 O.2     1  UNL1       -0.2000
     22  O         16.9430  -24.4440   -8.1680 O.2     1  UNL1       -0.2000
     23  N         18.1540  -22.6290   -6.9190 N.pl3   1  UNL1       -0.2810
     24  H         19.0750  -22.3510   -6.5900 H       1  UNL1        0.1790
     25  C         17.0850  -22.6550   -5.9790 C.2     1  UNL1        0.0430
     26  C         17.2790  -23.3280   -4.7710 C.2     1  UNL1        0.0300
     27  C         16.2460  -23.3970   -3.8360 C.2     1  UNL1        0.0030
     28  C         15.0180  -22.7920   -4.1060 C.2     1  UNL1        0.0070
     29  C         14.8140  -22.1140   -5.3130 C.2     1  UNL1       -0.0600
     30  C         13.5040  -21.4390   -5.5980 C.3     1  UNL1        0.0480
     31  C         15.8650  -22.0290   -6.2370 C.2     1  UNL1        0.0370
@<TRIPOS>BOND
     1    11     8    2
     2    14    13    1
     3    14    15    2
     4    13    12    2
     5     2     3    1
     6     2     1    2
     7    15    16    1
     8     8     1    1
     9     8     9   am
    10    12     9    1
    11    12    17    1
    12     3     4    2
    13     1     7    1
    14     9    10    1
    15    16    17    2
    16    17    18    1
    17     4     5    1
    18     4     6    1
    19     7     6    2
    20    18    19    1
    21     6    20    1
    22    22    20    2
    23    20    21    2
    24    20    23    1
    25    23    24    1
    26    23    25    1
    27    31    25    2
    28    31    29    1
    29    25    26    1
    30    30    29    1
    31    29    28    2
    32    26    27    2
    33    28    27    1
