@<TRIPOS>MOLECULE
57793_out_ligand_01.pdbqt
 34 36 0 0 0
SMALL
GASTEIGER

@<TRIPOS>ATOM
      1  C         18.6640  -23.1470  -10.2380 C.2     1  UNL1        0.0750
      2  C         19.2700  -23.9800   -9.2940 C.2     1  UNL1        0.0390
      3  C         20.5920  -23.7500   -8.9090 C.2     1  UNL1        0.0280
      4  C         21.2880  -22.6680   -9.4500 C.2     1  UNL1        0.0800
      5  C         20.6830  -21.8280  -10.3880 C.2     1  UNL1        0.0340
      6  C         19.3550  -22.0500  -10.7760 C.2     1  UNL1       -0.0270
      7  C         18.6800  -21.0920  -11.7220 C.3     1  UNL1        0.0510
      8  O         17.3490  -23.3180  -10.5890 O.2     1  UNL1       -0.3420
      9  C         16.4410  -22.6610   -9.7120 C.3     1  UNL1        0.2780
     10  C         16.4700  -23.1320   -8.2470 C.2     1  UNL1        0.2460
     11  N         16.7750  -22.0990   -7.3660 N.am    1  UNL1       -0.3240
     12  H         17.3340  -21.3600   -7.7760 H       1  UNL1        0.1690
     13  O         16.2500  -24.3030   -7.9500 O.2     1  UNL1       -0.2710
     14  C         16.8530  -22.2040   -5.9530 C.2     1  UNL1        0.0470
     15  C         18.1080  -21.9060   -5.3580 C.2     1  UNL1       -0.0350
     16  C         18.2550  -21.9680   -3.9620 C.2     1  UNL1        0.0090
     17  C         19.3300  -21.5500   -6.1690 C.3     1  UNL1        0.0500
     18  C         17.1800  -22.3080   -3.1530 C.2     1  UNL1        0.0010
     19  C         15.9410  -22.5670   -3.7290 C.2     1  UNL1        0.0090
     20  C         15.7460  -22.5080   -5.1260 C.2     1  UNL1       -0.0310
     21  C         14.3150  -22.6630   -5.6020 C.3     1  UNL1        0.0360
     22  C         13.5730  -21.3350   -5.7170 C.3     1  UNL1        0.0100
     23  S         22.9670  -22.3570   -8.9430 S.O2    1  UNL1        0.2630
     24  O         22.9120  -21.4530   -7.8110 O.2     1  UNL1       -0.2000
     25  O         23.6550  -23.6260   -8.8490 O.2     1  UNL1       -0.2000
     26  N         23.5990  -21.4630  -10.2250 N.pl3   1  UNL1       -0.2810
     27  H         22.9460  -20.7580  -10.5610 H       1  UNL1        0.1790
     28  C         24.4430  -22.0980  -11.1810 C.2     1  UNL1        0.0420
     29  C         25.8270  -22.0190  -11.0070 C.2     1  UNL1        0.0300
     30  C         26.6850  -22.6050  -11.9430 C.2     1  UNL1        0.0090
     31  C         26.1670  -23.2660  -13.0630 C.2     1  UNL1       -0.0620
     32  C         27.0890  -23.9220  -14.0480 C.3     1  UNL1        0.0480
     33  C         24.7780  -23.3600  -13.2160 C.2     1  UNL1        0.0090
     34  C         23.9190  -22.7780  -12.2780 C.2     1  UNL1        0.0300
@<TRIPOS>BOND
     1    32    31    1
     2    33    31    2
     3    33    34    1
     4    31    30    1
     5    34    28    2
     6    30    29    2
     7     7     6    1
     8    28    29    1
     9    28    26    1
    10     6     5    1
    11     6     1    2
    12     8     1    1
    13     8     9    1
    14    27    26    1
    15     5     4    2
    16     1     2    1
    17    26    23    1
    18     9    10    1
    19     4    23    1
    20     4     3    1
    21     2     3    2
    22    23    25    2
    23    23    24    2
    24    10    13    2
    25    10    11   am
    26    12    11    1
    27    11    14    1
    28    17    15    1
    29    14    15    2
    30    14    20    1
    31    22    21    1
    32    21    20    1
    33    15    16    1
    34    20    19    2
    35    16    18    2
    36    19    18    1
