@<TRIPOS>MOLECULE
57791_out_ligand_01.pdbqt
 34 37 0 0 0
SMALL
GASTEIGER

@<TRIPOS>ATOM
      1  C         17.4700  -23.0650   -9.0460 C.2     1  UNL1        0.0860
      2  C         18.8610  -22.9780   -9.2350 C.2     1  UNL1        0.0420
      3  C         19.3880  -22.1860  -10.2580 C.2     1  UNL1        0.0330
      4  C         18.5340  -21.4690  -11.0950 C.2     1  UNL1        0.0170
      5  C         17.1500  -21.5410  -10.8960 C.2     1  UNL1        0.0090
      6  C         16.5940  -22.3360   -9.8740 C.2     1  UNL1       -0.0390
      7  C         15.0970  -22.3430   -9.7320 C.3     1  UNL1        0.0500
      8  C         20.8590  -22.1820  -10.4560 C.2     1  UNL1        0.2560
      9  O         21.5640  -22.1480   -9.4530 O.2     1  UNL1       -0.2670
     10  N         21.2620  -22.1820  -11.7790 N.am    1  UNL1       -0.3230
     11  H         20.5370  -22.0940  -12.4800 H       1  UNL1        0.1690
     12  C         22.5880  -22.1650  -12.2650 C.2     1  UNL1        0.0350
     13  C         23.5120  -23.0000  -11.6320 C.2     1  UNL1        0.0300
     14  C         24.8420  -23.0520  -12.0660 C.2     1  UNL1        0.0140
     15  C         25.2740  -22.2690  -13.1460 C.2     1  UNL1       -0.0260
     16  C         26.6010  -22.3150  -13.6070 C.2     1  UNL1        0.0120
     17  C         24.3480  -21.4170  -13.7880 C.2     1  UNL1       -0.0240
     18  C         27.0090  -21.5330  -14.6870 C.2     1  UNL1        0.0010
     19  C         26.0960  -20.6940  -15.3210 C.2     1  UNL1        0.0010
     20  C         24.7750  -20.6340  -14.8720 C.2     1  UNL1        0.0120
     21  C         23.0170  -21.3720  -13.3330 C.2     1  UNL1        0.0420
     22  S         16.9380  -24.0830   -7.6770 S.O2    1  UNL1        0.2630
     23  O         15.8190  -24.8740   -8.1550 O.2     1  UNL1       -0.2000
     24  O         18.0820  -24.7310   -7.0720 O.2     1  UNL1       -0.2000
     25  N         16.2700  -22.9770   -6.6020 N.pl3   1  UNL1       -0.2800
     26  H         15.4980  -22.4410   -6.9940 H       1  UNL1        0.1790
     27  C         17.0350  -22.4150   -5.5480 C.2     1  UNL1        0.0490
     28  C         16.7620  -22.7300   -4.2080 C.2     1  UNL1       -0.0350
     29  C         17.5520  -22.1410   -3.2070 C.2     1  UNL1        0.0090
     30  C         15.6360  -23.6300   -3.7920 C.3     1  UNL1        0.0500
     31  C         18.6000  -21.2770   -3.5310 C.2     1  UNL1        0.0070
     32  C         18.8720  -20.9660   -4.8660 C.2     1  UNL1       -0.0600
     33  C         20.0260  -20.0760   -5.2300 C.3     1  UNL1        0.0480
     34  C         18.0890  -21.5510   -5.8670 C.2     1  UNL1        0.0370
@<TRIPOS>BOND
     1    19    20    2
     2    19    18    1
     3    20    17    1
     4    18    16    2
     5    17    21    1
     6    17    15    2
     7    16    15    1
     8    21    12    2
     9    15    14    1
    10    11    10    1
    11    12    10    1
    12    12    13    1
    13    14    13    2
    14    10     8   am
    15     4     5    2
    16     4     3    1
    17     5     6    1
    18     8     3    1
    19     8     9    2
    20     3     2    2
    21     6     7    1
    22     6     1    2
    23     2     1    1
    24     1    22    1
    25    23    22    2
    26    22    24    2
    27    22    25    1
    28    26    25    1
    29    25    27    1
    30    34    27    2
    31    34    32    1
    32    27    28    1
    33    33    32    1
    34    32    31    2
    35    28    30    1
    36    28    29    2
    37    31    29    1
