@<TRIPOS>MOLECULE
57794_out_ligand_01.pdbqt
 31 33 0 0 0
SMALL
GASTEIGER

@<TRIPOS>ATOM
      1  C         21.4860  -22.3340  -10.1960 C.2     1  UNL1        0.0860
      2  C         20.7980  -22.8130   -9.0670 C.2     1  UNL1        0.0420
      3  C         19.4030  -22.7600   -9.0210 C.2     1  UNL1        0.0330
      4  C         18.6920  -22.2170  -10.0960 C.2     1  UNL1        0.0170
      5  C         19.3760  -21.7430  -11.2180 C.2     1  UNL1        0.0090
      6  C         20.7790  -21.7860  -11.2860 C.2     1  UNL1       -0.0390
      7  C         21.4460  -21.2670  -12.5300 C.3     1  UNL1        0.0500
      8  S         23.2670  -22.4760  -10.1900 S.O2    1  UNL1        0.2630
      9  O         23.6400  -23.3370   -9.0870 O.2     1  UNL1       -0.2000
     10  O         23.8460  -21.1550  -10.3070 O.2     1  UNL1       -0.2000
     11  N         23.5800  -23.3520  -11.6040 N.pl3   1  UNL1       -0.2810
     12  H         23.4270  -24.3470  -11.4420 H       1  UNL1        0.1790
     13  C         24.7310  -22.9940  -12.3600 C.2     1  UNL1        0.0430
     14  C         25.9960  -23.3760  -11.9140 C.2     1  UNL1        0.0300
     15  C         27.1190  -23.0760  -12.6830 C.2     1  UNL1        0.0030
     16  C         26.9770  -22.3960  -13.8940 C.2     1  UNL1        0.0070
     17  C         25.7100  -22.0050  -14.3440 C.2     1  UNL1       -0.0600
     18  C         25.5540  -21.3240  -15.6720 C.3     1  UNL1        0.0480
     19  C         24.5840  -22.3230  -13.5740 C.2     1  UNL1        0.0370
     20  C         18.7020  -23.2550   -7.8040 C.2     1  UNL1        0.2560
     21  O         18.8610  -24.4230   -7.4770 O.2     1  UNL1       -0.2670
     22  N         17.8710  -22.3260   -7.2060 N.am    1  UNL1       -0.3220
     23  H         17.5530  -21.5920   -7.8260 H       1  UNL1        0.1690
     24  C         17.0980  -22.5200   -6.0320 C.2     1  UNL1        0.0460
     25  C         17.5660  -21.9110   -4.8390 C.2     1  UNL1       -0.0350
     26  C         18.8160  -21.0700   -4.7960 C.3     1  UNL1        0.0500
     27  C         16.8320  -22.0520   -3.6490 C.2     1  UNL1        0.0090
     28  C         15.6550  -22.7890   -3.6250 C.2     1  UNL1        0.0010
     29  C         15.2160  -23.4200   -4.7830 C.2     1  UNL1        0.0090
     30  C         15.9400  -23.3260   -5.9880 C.2     1  UNL1       -0.0350
     31  C         15.4270  -24.1490   -7.1390 C.3     1  UNL1        0.0500
@<TRIPOS>BOND
     1    18    17    1
     2    17    16    2
     3    17    19    1
     4    16    15    1
     5    19    13    2
     6    15    14    2
     7     7     6    1
     8    13    14    1
     9    13    11    1
    10    11    12    1
    11    11     8    1
    12     6     5    1
    13     6     1    2
    14     5     4    2
    15    10     8    2
    16     1     8    1
    17     1     2    1
    18     8     9    2
    19     4     3    1
    20     2     3    2
    21     3    20    1
    22    23    22    1
    23    20    21    2
    24    20    22   am
    25    22    24    1
    26    31    30    1
    27    24    30    2
    28    24    25    1
    29    30    29    1
    30    25    26    1
    31    25    27    2
    32    29    28    2
    33    27    28    1
