@<TRIPOS>MOLECULE
5780_out_ligand_01.pdbqt
 35 38 0 0 0
SMALL
GASTEIGER

@<TRIPOS>ATOM
      1  O         21.4590  -25.1040   -9.0730 O.2     1  UNL1       -0.2730
      2  C         20.8630  -24.0850   -8.7440 C.2     1  UNL1        0.2230
      3  N         21.1390  -22.7980   -9.1820 N.am    1  UNL1       -0.3270
      4  H         20.5510  -22.0580   -8.8200 H       1  UNL1        0.1690
      5  C         22.1660  -22.3870  -10.0560 C.2     1  UNL1        0.0340
      6  C         23.4420  -21.9960   -9.6370 C.2     1  UNL1        0.0310
      7  C         24.4080  -21.6040  -10.5700 C.2     1  UNL1        0.0270
      8  C         24.0950  -21.5900  -11.9290 C.2     1  UNL1        0.0750
      9  C         22.8300  -21.9900  -12.3650 C.2     1  UNL1        0.0270
     10  C         21.8720  -22.3840  -11.4280 C.2     1  UNL1        0.0310
     11  S         25.3230  -21.1270  -13.1250 S.O2    1  UNL1        0.2480
     12  O         26.0070  -19.9320  -12.6790 O.2     1  UNL1       -0.2050
     13  O         26.0810  -22.3310  -13.4150 O.2     1  UNL1       -0.2050
     14  N         24.4440  -20.8060  -14.4980 N.pl3   1  UNL1       -0.1480
     15  H         23.4430  -20.8300  -14.3490 H       1  UNL1        0.1490
     16  C         24.8360  -21.4500  -15.6650 C.cat   1  UNL1        0.2150
     17  N         25.7420  -20.8720  -16.4540 N.2     1  UNL1       -0.2300
     18  C         25.9580  -21.4790  -17.6340 C.2     1  UNL1        0.1210
     19  C         25.2740  -22.5990  -18.0450 C.2     1  UNL1        0.0390
     20  C         24.3240  -23.0680  -17.1670 C.2     1  UNL1        0.1210
     21  N         24.0670  -22.4980  -15.9740 N.2     1  UNL1       -0.2300
     22  C         19.6410  -24.1250   -7.8350 C.3     1  UNL1        0.1170
     23  C         18.9660  -22.7470   -7.6900 C.3     1  UNL1        0.0600
     24  C         17.7000  -22.6840   -8.5480 C.2     1  UNL1       -0.0490
     25  C         16.5670  -23.4600   -8.2570 C.2     1  UNL1        0.0080
     26  C         15.4320  -23.3960   -9.0680 C.2     1  UNL1        0.0010
     27  C         15.4150  -22.5620  -10.1830 C.2     1  UNL1        0.0000
     28  C         16.5340  -21.7920  -10.4890 C.2     1  UNL1        0.0010
     29  C         17.6680  -21.8520   -9.6790 C.2     1  UNL1        0.0080
     30  C         18.6990  -22.3300   -6.2390 C.2     1  UNL1       -0.0490
     31  C         17.9610  -23.1130   -5.3380 C.2     1  UNL1        0.0080
     32  C         17.7410  -22.6790   -4.0280 C.2     1  UNL1        0.0010
     33  C         18.2480  -21.4540   -3.6010 C.2     1  UNL1        0.0000
     34  C         18.9730  -20.6600   -4.4840 C.2     1  UNL1        0.0010
     35  C         19.1950  -21.0920   -5.7930 C.2     1  UNL1        0.0080
@<TRIPOS>BOND
     1    19    18    2
     2    19    20    1
     3    18    17    1
     4    20    21    2
     5    17    16    2
     6    21    16    1
     7    16    14    1
     8    14    15    1
     9    14    11    1
    10    13    11    2
    11    11    12    2
    12    11     8    1
    13     9     8    2
    14     9    10    1
    15     8     7    1
    16    10     5    2
    17     7     6    2
    18    28    27    2
    19    28    29    1
    20    27    26    1
    21     5     6    1
    22     5     3    1
    23    29    24    2
    24     3     4    1
    25     3     2   am
    26     1     2    2
    27    26    25    2
    28     2    22    1
    29    24    25    1
    30    24    23    1
    31    22    23    1
    32    23    30    1
    33    30    35    2
    34    30    31    1
    35    35    34    1
    36    31    32    2
    37    34    33    2
    38    32    33    1
