@<TRIPOS>MOLECULE
57802_out_ligand_01.pdbqt
 32 34 0 0 0
SMALL
GASTEIGER

@<TRIPOS>ATOM
      1  C         20.9630  -22.1560  -11.1930 C.2     1  UNL1        0.0330
      2  C         20.7010  -20.9940  -11.9250 C.2     1  UNL1        0.0170
      3  C         19.4130  -20.4520  -11.9370 C.2     1  UNL1        0.0090
      4  C         18.3640  -21.0540  -11.2200 C.2     1  UNL1       -0.0390
      5  C         17.0000  -20.4240  -11.2920 C.3     1  UNL1        0.0500
      6  C         18.6360  -22.2390  -10.5050 C.2     1  UNL1        0.0810
      7  C         19.9280  -22.7890  -10.5000 C.2     1  UNL1        0.0420
      8  S         17.3720  -23.1070   -9.5900 S.O2    1  UNL1        0.2460
      9  O         16.5590  -22.1240   -8.9040 O.2     1  UNL1       -0.2060
     10  O         16.7510  -24.0910  -10.4500 O.2     1  UNL1       -0.2060
     11  N         18.2620  -23.9090   -8.3910 N.pl3   1  UNL1       -0.1810
     12  H         19.1630  -24.2030   -8.7660 H       1  UNL1        0.1460
     13  C         18.2630  -23.3430   -7.0860 C.2     1  UNL1        0.0230
     14  C         17.5290  -23.9540   -6.0750 C.2     1  UNL1        0.0250
     15  C         17.4880  -23.3790   -4.8060 C.2     1  UNL1        0.0090
     16  C         18.1710  -22.1820   -4.5370 C.2     1  UNL1       -0.0560
     17  C         18.1030  -21.5940   -3.1530 C.3     1  UNL1        0.0490
     18  C         18.9220  -21.5690   -5.5620 C.2     1  UNL1       -0.0540
     19  C         19.6570  -20.2770   -5.3330 C.3     1  UNL1        0.0490
     20  C         18.9520  -22.1570   -6.8370 C.2     1  UNL1        0.0310
     21  C         22.3250  -22.7610  -11.1590 C.2     1  UNL1        0.2560
     22  N         23.1510  -22.3700  -12.1980 N.am    1  UNL1       -0.3220
     23  H         22.8000  -21.6360  -12.7950 H       1  UNL1        0.1690
     24  O         22.6000  -23.5030  -10.2260 O.2     1  UNL1       -0.2670
     25  C         24.4710  -22.8050  -12.4670 C.2     1  UNL1        0.0410
     26  C         25.5380  -22.2330  -11.7380 C.2     1  UNL1       -0.0350
     27  C         26.8550  -22.6420  -12.0090 C.2     1  UNL1        0.0090
     28  C         25.3220  -21.1910  -10.6740 C.3     1  UNL1        0.0500
     29  C         27.1210  -23.6030  -12.9840 C.2     1  UNL1        0.0070
     30  C         26.0740  -24.1790  -13.7030 C.2     1  UNL1       -0.0600
     31  C         26.3510  -25.1840  -14.7830 C.3     1  UNL1        0.0480
     32  C         24.7590  -23.7650  -13.4470 C.2     1  UNL1        0.0370
@<TRIPOS>BOND
     1    31    30    1
     2    30    32    1
     3    30    29    2
     4    32    25    2
     5    29    27    1
     6    23    22    1
     7    25    22    1
     8    25    26    1
     9    22    21   am
    10    27    26    2
    11     3     2    1
    12     3     4    2
    13     2     1    2
    14    26    28    1
    15     5     4    1
    16     4     6    1
    17     1    21    1
    18     1     7    1
    19    21    24    2
    20     6     7    2
    21     6     8    1
    22    10     8    2
    23     8     9    2
    24     8    11    1
    25    12    11    1
    26    11    13    1
    27    13    20    2
    28    13    14    1
    29    20    18    1
    30    14    15    2
    31    18    19    1
    32    18    16    2
    33    15    16    1
    34    16    17    1
