@<TRIPOS>MOLECULE
57813_out_ligand_01.pdbqt
 31 33 0 0 0
SMALL
GASTEIGER

@<TRIPOS>ATOM
      1  C         18.3600  -23.1560   -9.0470 C.2     1  UNL1        0.0860
      2  C         19.0430  -22.4410  -10.0450 C.2     1  UNL1        0.0420
      3  C         20.4100  -22.6440  -10.2500 C.2     1  UNL1        0.0330
      4  C         21.1040  -23.5520   -9.4460 C.2     1  UNL1        0.0170
      5  C         20.4240  -24.2670   -8.4570 C.2     1  UNL1        0.0090
      6  C         19.0450  -24.0870   -8.2400 C.2     1  UNL1       -0.0390
      7  C         18.3920  -24.8960   -7.1540 C.3     1  UNL1        0.0500
      8  S         16.6100  -22.8190   -8.9060 S.O2    1  UNL1        0.2630
      9  O         16.2390  -22.0540  -10.0800 O.2     1  UNL1       -0.2000
     10  O         15.8840  -24.0220   -8.5670 O.2     1  UNL1       -0.2000
     11  N         16.5480  -21.7360   -7.6120 N.pl3   1  UNL1       -0.2800
     12  H         16.0300  -20.8940   -7.8540 H       1  UNL1        0.1790
     13  C         16.4020  -22.2550   -6.2950 C.2     1  UNL1        0.0480
     14  C         15.1880  -22.8560   -5.9530 C.2     1  UNL1        0.0300
     15  C         14.9820  -23.3380   -4.6610 C.2     1  UNL1        0.0020
     16  C         15.9880  -23.2140   -3.7080 C.2     1  UNL1        0.0010
     17  C         17.2020  -22.6120   -4.0460 C.2     1  UNL1        0.0090
     18  C         17.4290  -22.1330   -5.3470 C.2     1  UNL1       -0.0350
     19  C         18.7390  -21.4690   -5.6630 C.3     1  UNL1        0.0500
     20  C         21.1020  -21.8510  -11.3020 C.2     1  UNL1        0.2560
     21  O         20.4930  -20.9130  -11.7990 O.2     1  UNL1       -0.2670
     22  N         22.3690  -22.3030  -11.6200 N.am    1  UNL1       -0.3220
     23  H         22.6440  -23.1800  -11.2020 H       1  UNL1        0.1690
     24  C         23.2930  -21.7370  -12.5350 C.2     1  UNL1        0.0410
     25  C         22.9140  -21.3760  -13.8330 C.2     1  UNL1        0.0300
     26  C         23.8310  -20.8130  -14.7170 C.2     1  UNL1        0.0030
     27  C         25.1430  -20.6000  -14.3170 C.2     1  UNL1        0.0070
     28  C         25.5620  -20.9440  -13.0230 C.2     1  UNL1       -0.0540
     29  C         26.9980  -20.6880  -12.6520 C.3     1  UNL1        0.0490
     30  C         24.6330  -21.5190  -12.1170 C.2     1  UNL1       -0.0290
     31  C         25.0640  -21.8990  -10.7190 C.3     1  UNL1        0.0510
@<TRIPOS>BOND
     1    26    27    2
     2    26    25    1
     3    27    28    1
     4    25    24    2
     5    28    29    1
     6    28    30    2
     7    24    30    1
     8    24    22    1
     9    30    31    1
    10    21    20    2
    11    22    20   am
    12    22    23    1
    13    20     3    1
    14     3     2    1
    15     3     4    2
    16     9     8    2
    17     2     1    2
    18     4     5    1
    19     1     8    1
    20     1     6    1
    21     8    10    2
    22     8    11    1
    23     5     6    2
    24     6     7    1
    25    12    11    1
    26    11    13    1
    27    13    14    2
    28    13    18    1
    29    14    15    1
    30    19    18    1
    31    18    17    2
    32    15    16    2
    33    17    16    1
