@<TRIPOS>MOLECULE
57821_out_ligand_01.pdbqt
 30 32 0 0 0
SMALL
GASTEIGER

@<TRIPOS>ATOM
      1  C         17.7330  -23.5640   -8.6310 C.2     1  UNL1        0.0860
      2  C         19.1020  -23.8490   -8.5100 C.2     1  UNL1        0.0420
      3  C         20.0020  -23.3320   -9.4420 C.2     1  UNL1        0.0330
      4  C         19.5520  -22.5480  -10.5040 C.2     1  UNL1        0.0170
      5  C         18.1920  -22.2540  -10.6160 C.2     1  UNL1        0.0090
      6  C         17.2600  -22.7570   -9.6890 C.2     1  UNL1       -0.0390
      7  C         15.8150  -22.3860   -9.8740 C.3     1  UNL1        0.0500
      8  S         16.6520  -24.2360   -7.3710 S.O2    1  UNL1        0.2630
      9  O         15.5120  -24.8340   -8.0340 O.2     1  UNL1       -0.2000
     10  O         17.4510  -25.0210   -6.4540 O.2     1  UNL1       -0.2000
     11  N         16.1550  -22.8680   -6.5170 N.pl3   1  UNL1       -0.2800
     12  H         15.1440  -22.8120   -6.4160 H       1  UNL1        0.1790
     13  C         16.9770  -22.3260   -5.4860 C.2     1  UNL1        0.0480
     14  C         18.0590  -21.5080   -5.8250 C.2     1  UNL1        0.0300
     15  C         18.9050  -21.0050   -4.8370 C.2     1  UNL1        0.0020
     16  C         18.6680  -21.3100   -3.5020 C.2     1  UNL1        0.0010
     17  C         17.5770  -22.1070   -3.1530 C.2     1  UNL1        0.0090
     18  C         16.7120  -22.6160   -4.1360 C.2     1  UNL1       -0.0350
     19  C         15.5590  -23.4790   -3.7070 C.3     1  UNL1        0.0500
     20  C         21.4310  -23.6790   -9.3270 C.2     1  UNL1        0.2530
     21  O         21.7010  -24.7850   -8.8670 O.2     1  UNL1       -0.2670
     22  N         22.3840  -22.7570   -9.7560 N.am    1  UNL1       -0.3480
     23  C         22.1010  -21.3710  -10.1140 C.3     1  UNL1        0.1530
     24  C         23.7890  -23.1600   -9.7360 C.3     1  UNL1        0.1640
     25  C         24.5340  -22.7590  -10.9880 C.2     1  UNL1       -0.0400
     26  C         25.6510  -21.9140  -10.9190 C.2     1  UNL1        0.0090
     27  C         26.3400  -21.5530  -12.0790 C.2     1  UNL1        0.0010
     28  C         25.9180  -22.0300  -13.3180 C.2     1  UNL1        0.0000
     29  C         24.8090  -22.8690  -13.4010 C.2     1  UNL1        0.0010
     30  C         24.1190  -23.2310  -12.2420 C.2     1  UNL1        0.0090
@<TRIPOS>BOND
     1    29    28    2
     2    29    30    1
     3    28    27    1
     4    30    25    2
     5    27    26    2
     6    25    26    1
     7    25    24    1
     8     5     4    2
     9     5     6    1
    10     4     3    1
    11    23    22    1
    12     7     6    1
    13    22    24    1
    14    22    20   am
    15     6     1    2
    16     3    20    1
    17     3     2    2
    18    20    21    2
    19     1     2    1
    20     1     8    1
    21     9     8    2
    22     8    11    1
    23     8    10    2
    24    11    12    1
    25    11    13    1
    26    14    13    2
    27    14    15    1
    28    13    18    1
    29    15    16    2
    30    18    19    1
    31    18    17    2
    32    16    17    1
