@<TRIPOS>MOLECULE
57830_out_ligand_01.pdbqt
 32 34 0 0 0
SMALL
GASTEIGER

@<TRIPOS>ATOM
      1  C         21.4950  -22.8130  -10.0100 C.2     1  UNL1        0.0800
      2  C         20.7690  -23.8460   -9.4180 C.2     1  UNL1        0.0280
      3  C         19.3840  -23.9080   -9.5980 C.2     1  UNL1        0.0390
      4  C         18.7250  -22.9450  -10.3720 C.2     1  UNL1        0.0750
      5  C         19.4660  -21.9140  -10.9820 C.2     1  UNL1       -0.0270
      6  C         18.7860  -20.8700  -11.8270 C.3     1  UNL1        0.0510
      7  C         20.8560  -21.8560  -10.8000 C.2     1  UNL1        0.0340
      8  O         17.3790  -22.9280  -10.6270 O.2     1  UNL1       -0.3420
      9  C         16.5180  -22.2520   -9.7190 C.3     1  UNL1        0.2780
     10  C         16.3050  -22.9530   -8.3710 C.2     1  UNL1        0.2460
     11  O         15.9960  -24.1410   -8.3270 O.2     1  UNL1       -0.2710
     12  N         16.5210  -22.1160   -7.2950 N.am    1  UNL1       -0.3240
     13  H         16.7220  -21.1450   -7.5240 H       1  UNL1        0.1690
     14  C         16.4150  -22.4020   -5.9160 C.2     1  UNL1        0.0520
     15  C         15.2690  -22.9520   -5.3390 C.2     1  UNL1        0.0310
     16  C         15.2200  -23.2170   -3.9650 C.2     1  UNL1        0.0020
     17  C         16.3150  -22.9350   -3.1540 C.2     1  UNL1        0.0020
     18  C         17.4670  -22.3870   -3.7120 C.2     1  UNL1        0.0210
     19  C         17.5160  -22.1230   -5.0840 C.2     1  UNL1        0.0370
     20 BR         19.1180  -21.3660   -5.7820 Br      1  UNL1       -0.0490
     21  S         23.2570  -22.7450   -9.7940 S.O2    1  UNL1        0.2630
     22  O         23.6200  -21.3500   -9.6500 O.2     1  UNL1       -0.2000
     23  O         23.6470  -23.7180   -8.7980 O.2     1  UNL1       -0.2000
     24  N         23.8330  -23.2200  -11.3110 N.pl3   1  UNL1       -0.2810
     25  H         23.2210  -23.9220  -11.7220 H       1  UNL1        0.1790
     26  C         24.3380  -22.2100  -12.1760 C.2     1  UNL1        0.0420
     27  C         23.5290  -21.7070  -13.1910 C.2     1  UNL1        0.0300
     28  C         24.0290  -20.7430  -14.0670 C.2     1  UNL1        0.0090
     29  C         25.3410  -20.2720  -13.9280 C.2     1  UNL1       -0.0620
     30  C         25.8920  -19.2630  -14.8920 C.3     1  UNL1        0.0480
     31  C         26.1520  -20.8010  -12.9160 C.2     1  UNL1        0.0090
     32  C         25.6520  -21.7660  -12.0390 C.2     1  UNL1        0.0300
@<TRIPOS>BOND
     1    30    29    1
     2    28    29    2
     3    28    27    1
     4    29    31    1
     5    27    26    2
     6    31    32    2
     7    26    32    1
     8    26    24    1
     9     6     5    1
    10    25    24    1
    11    24    21    1
    12     5     7    1
    13     5     4    2
    14     7     1    2
    15     8     4    1
    16     8     9    1
    17     4     3    1
    18     1    21    1
    19     1     2    1
    20    21    22    2
    21    21    23    2
    22     9    10    1
    23     3     2    2
    24    10    11    2
    25    10    12   am
    26    13    12    1
    27    12    14    1
    28    14    15    2
    29    14    19    1
    30    20    19    1
    31    15    16    1
    32    19    18    2
    33    16    17    2
    34    18    17    1
