@<TRIPOS>MOLECULE
57840_out_ligand_01.pdbqt
 32 34 0 0 0
SMALL
GASTEIGER

@<TRIPOS>ATOM
      1  C         16.7890  -20.4450  -11.0950 C.3     1  UNL1        0.0500
      2  C         18.1360  -21.1050  -11.0030 C.2     1  UNL1       -0.0390
      3  C         19.1700  -20.6130  -11.8220 C.2     1  UNL1        0.0090
      4  C         20.4500  -21.1710  -11.7880 C.2     1  UNL1        0.0170
      5  C         20.7240  -22.2270  -10.9170 C.2     1  UNL1        0.0330
      6  C         19.7120  -22.7330  -10.0970 C.2     1  UNL1        0.0420
      7  C         18.4220  -22.1770  -10.1350 C.2     1  UNL1        0.0810
      8  S         17.2080  -22.8720   -9.0130 S.O2    1  UNL1        0.2460
      9  O         16.5430  -21.7600   -8.3640 O.2     1  UNL1       -0.2060
     10  O         16.4570  -23.8880   -9.7140 O.2     1  UNL1       -0.2060
     11  N         18.2360  -23.5890   -7.8500 N.pl3   1  UNL1       -0.1810
     12  H         19.1570  -23.6960   -8.2800 H       1  UNL1        0.1460
     13  C         18.3450  -22.8280   -6.6310 C.2     1  UNL1        0.0290
     14  C         19.3280  -21.8350   -6.5490 C.2     1  UNL1        0.0250
     15  C         19.4290  -21.0420   -5.4120 C.2     1  UNL1        0.0020
     16  C         18.5370  -21.2270   -4.3580 C.2     1  UNL1        0.0070
     17  C         17.5320  -22.2060   -4.4280 C.2     1  UNL1       -0.0540
     18  C         16.5810  -22.3460   -3.2690 C.3     1  UNL1        0.0490
     19  C         17.4450  -23.0380   -5.5680 C.2     1  UNL1       -0.0340
     20  C         16.3790  -24.0980   -5.6690 C.3     1  UNL1        0.0500
     21  C         22.0690  -22.8620  -10.8600 C.2     1  UNL1        0.2560
     22  O         22.2780  -23.6810   -9.9750 O.2     1  UNL1       -0.2670
     23  N         22.9610  -22.4210  -11.8200 N.am    1  UNL1       -0.3230
     24  H         22.6610  -21.6480  -12.4010 H       1  UNL1        0.1690
     25  C         24.2870  -22.8660  -12.0210 C.2     1  UNL1        0.0380
     26  C         24.9370  -22.8550  -13.2570 C.2     1  UNL1        0.0530
     27  C         26.2530  -23.3130  -13.3620 C.2     1  UNL1        0.0370
     28 CL         27.0440  -23.2950  -14.8920 Cl      1  UNL1       -0.0840
     29  C         26.9370  -23.7840  -12.2450 C.2     1  UNL1        0.0480
     30  C         26.2920  -23.7910  -11.0150 C.2     1  UNL1        0.0370
     31 CL         27.1200  -24.3670   -9.6210 Cl      1  UNL1       -0.0840
     32  C         24.9770  -23.3360  -10.8960 C.2     1  UNL1        0.0530
@<TRIPOS>BOND
     1    28    27    1
     2    27    26    1
     3    27    29    2
     4    26    25    2
     5    24    23    1
     6    29    30    1
     7    25    23    1
     8    25    32    1
     9     3     4    1
    10     3     2    2
    11    23    21   am
    12     4     5    2
    13     1     2    1
    14    30    32    2
    15    30    31    1
    16     2     7    1
    17     5    21    1
    18     5     6    1
    19    21    22    2
    20     7     6    2
    21     7     8    1
    22    10     8    2
    23     8     9    2
    24     8    11    1
    25    12    11    1
    26    11    13    1
    27    13    14    2
    28    13    19    1
    29    14    15    1
    30    20    19    1
    31    19    17    2
    32    15    16    2
    33    17    16    1
    34    17    18    1
