@<TRIPOS>MOLECULE
57843_out_ligand_01.pdbqt
 32 34 0 0 0
SMALL
GASTEIGER

@<TRIPOS>ATOM
      1  C         19.0640  -22.4260  -10.1640 C.2     1  UNL1        0.0810
      2  C         20.3980  -22.8680  -10.1020 C.2     1  UNL1        0.0420
      3  C         21.3500  -22.3510  -10.9850 C.2     1  UNL1        0.0330
      4  C         20.9750  -21.3770  -11.9120 C.2     1  UNL1        0.0170
      5  C         19.6490  -20.9480  -11.9830 C.2     1  UNL1        0.0090
      6  C         18.6690  -21.4700  -11.1200 C.2     1  UNL1       -0.0390
      7  C         17.2620  -20.9620  -11.2540 C.3     1  UNL1        0.0500
      8  S         17.9110  -23.1430   -8.9950 S.O2    1  UNL1        0.2460
      9  O         16.7060  -23.4890   -9.7140 O.2     1  UNL1       -0.2060
     10  O         18.6450  -24.1350   -8.2330 O.2     1  UNL1       -0.2060
     11  N         17.6280  -21.8290   -7.9390 N.pl3   1  UNL1       -0.1810
     12  H         18.4610  -21.2390   -7.9550 H       1  UNL1        0.1460
     13  C         17.3250  -22.2270   -6.5870 C.2     1  UNL1        0.0290
     14  C         18.1610  -21.8540   -5.5260 C.2     1  UNL1       -0.0400
     15  C         17.7950  -22.2190   -4.2220 C.2     1  UNL1        0.0090
     16  C         19.4250  -21.0740   -5.7440 C.3     1  UNL1        0.0500
     17  C         16.6240  -22.9410   -3.9810 C.2     1  UNL1        0.0070
     18  C         15.7960  -23.3210   -5.0400 C.2     1  UNL1       -0.0600
     19  C         14.5130  -24.0520   -4.7810 C.3     1  UNL1        0.0480
     20  C         16.1480  -22.9480   -6.3420 C.2     1  UNL1        0.0310
     21  C         22.7700  -22.7920  -10.9520 C.2     1  UNL1        0.2520
     22  O         23.2280  -23.3060   -9.9380 O.2     1  UNL1       -0.2680
     23  N         23.5030  -22.5510  -12.0910 N.am    1  UNL1       -0.3490
     24  H         23.1240  -21.9630  -12.8210 H       1  UNL1        0.1630
     25  C         24.9210  -22.8670  -12.1680 C.3     1  UNL1        0.1140
     26  C         25.1910  -23.9170  -13.2500 C.3     1  UNL1        0.0370
     27  C         25.7070  -21.5810  -12.3630 C.2     1  UNL1       -0.0360
     28  C         26.1170  -21.1370  -13.6290 C.2     1  UNL1        0.0090
     29  C         26.8050  -19.9290  -13.7730 C.2     1  UNL1        0.0010
     30  C         27.0760  -19.1410  -12.6570 C.2     1  UNL1        0.0000
     31  C         26.6640  -19.5610  -11.3940 C.2     1  UNL1        0.0010
     32  C         25.9830  -20.7710  -11.2490 C.2     1  UNL1        0.0090
@<TRIPOS>BOND
     1    29    28    1
     2    29    30    2
     3    28    27    2
     4    26    25    1
     5    24    23    1
     6    30    31    1
     7    27    25    1
     8    27    32    1
     9    25    23    1
    10    23    21   am
    11     5     4    2
    12     5     6    1
    13     4     3    1
    14    31    32    2
    15     7     6    1
    16     6     1    2
    17     3    21    1
    18     3     2    2
    19    21    22    2
    20     1     2    1
    21     1     8    1
    22     9     8    2
    23     8    10    2
    24     8    11    1
    25    12    11    1
    26    11    13    1
    27    13    20    2
    28    13    14    1
    29    20    18    1
    30    16    14    1
    31    14    15    2
    32    18    19    1
    33    18    17    2
    34    15    17    1
