@<TRIPOS>MOLECULE
57857_out_ligand_01.pdbqt
 34 36 0 0 0
SMALL
GASTEIGER

@<TRIPOS>ATOM
      1  C         16.7750  -20.4950  -11.2470 C.3     1  UNL1        0.0500
      2  C         18.1160  -21.1520  -11.0640 C.2     1  UNL1       -0.0390
      3  C         19.1960  -20.6810  -11.8310 C.2     1  UNL1        0.0090
      4  C         20.4690  -21.2430  -11.7100 C.2     1  UNL1        0.0170
      5  C         20.6870  -22.2820  -10.8020 C.2     1  UNL1        0.0330
      6  C         19.6300  -22.7640  -10.0260 C.2     1  UNL1        0.0420
      7  C         18.3500  -22.2020  -10.1530 C.2     1  UNL1        0.0860
      8  C         22.0230  -22.9220  -10.6720 C.2     1  UNL1        0.2560
      9  O         22.1690  -23.7790   -9.8090 O.2     1  UNL1       -0.2670
     10  N         22.9770  -22.4450  -11.5510 N.am    1  UNL1       -0.3230
     11  H         22.7180  -21.6470  -12.1160 H       1  UNL1        0.1690
     12  C         24.3080  -22.8920  -11.6920 C.2     1  UNL1        0.0350
     13  C         25.2820  -22.7680  -10.7000 C.2     1  UNL1        0.0290
     14  C         26.5800  -23.2410  -10.9150 C.2     1  UNL1        0.0030
     15  C         26.9160  -23.8470  -12.1250 C.2     1  UNL1        0.0160
     16  C         25.9530  -23.9910  -13.1310 C.2     1  UNL1        0.0500
     17  C         24.6530  -23.5040  -12.9040 C.2     1  UNL1        0.0450
     18  C         26.3040  -24.6270  -14.4520 C.3     1  UNL1        0.4170
     19  F         26.9440  -23.7640  -15.2870 F       1  UNL1       -0.1660
     20  F         25.2070  -25.0620  -15.1330 F       1  UNL1       -0.1660
     21  F         27.1210  -25.7100  -14.3330 F       1  UNL1       -0.1660
     22  S         17.0620  -22.8520   -9.0980 S.O2    1  UNL1        0.2630
     23  O         16.3090  -21.7470   -8.5450 O.2     1  UNL1       -0.2000
     24  O         16.3810  -23.9020   -9.8280 O.2     1  UNL1       -0.2000
     25  N         17.9340  -23.6210   -7.8670 N.pl3   1  UNL1       -0.2800
     26  H         18.1310  -24.5890   -8.1130 H       1  UNL1        0.1790
     27  C         17.5580  -23.3540   -6.5170 C.2     1  UNL1        0.0490
     28  C         16.4890  -24.0750   -5.9820 C.2     1  UNL1        0.0310
     29  C         16.1050  -23.8820   -4.6600 C.2     1  UNL1        0.0030
     30  C         16.7800  -22.9540   -3.8730 C.2     1  UNL1        0.0070
     31  C         17.8510  -22.2100   -4.3950 C.2     1  UNL1       -0.0540
     32  C         18.5400  -21.2150   -3.4980 C.3     1  UNL1        0.0490
     33  C         18.2740  -22.4320   -5.7270 C.2     1  UNL1       -0.0290
     34  C         19.4280  -21.6490   -6.2990 C.3     1  UNL1        0.0510
@<TRIPOS>BOND
     1    19    18    1
     2    20    18    1
     3    18    21    1
     4    18    16    1
     5    16    17    1
     6    16    15    2
     7    17    12    2
     8    15    14    1
     9    11    10    1
    10     3     4    1
    11     3     2    2
    12     4     5    2
    13    12    10    1
    14    12    13    1
    15    10     8   am
    16     1     2    1
    17     2     7    1
    18    14    13    2
    19     5     8    1
    20     5     6    1
    21     8     9    2
    22     7     6    2
    23     7    22    1
    24    24    22    2
    25    22    23    2
    26    22    25    1
    27    26    25    1
    28    25    27    1
    29    27    28    2
    30    27    33    1
    31    34    33    1
    32    28    29    1
    33    33    31    2
    34    29    30    2
    35    31    30    1
    36    31    32    1
