@<TRIPOS>MOLECULE
5785_out_ligand_01.pdbqt
 35 38 0 0 0
SMALL
GASTEIGER

@<TRIPOS>ATOM
      1  C         18.4380  -23.2310   -8.8830 C.2     1  UNL1        0.0740
      2  C         18.5540  -22.2740   -9.8970 C.2     1  UNL1        0.0260
      3  C         19.7560  -22.1580  -10.5980 C.2     1  UNL1        0.0260
      4  C         20.8350  -22.9820  -10.2660 C.2     1  UNL1        0.0220
      5  C         20.7190  -23.9260   -9.2450 C.2     1  UNL1        0.0260
      6  C         19.5230  -24.0430   -8.5370 C.2     1  UNL1        0.0260
      7  N         22.0410  -22.9410  -11.0350 N.pl3   1  UNL1       -0.1810
      8  H         22.3260  -23.8860  -11.3030 H       1  UNL1        0.1460
      9  S         23.3650  -22.2550  -10.2010 S.O2    1  UNL1        0.2450
     10  O         22.9610  -21.0620   -9.4900 O.2     1  UNL1       -0.2060
     11  O         24.0240  -23.3570   -9.5320 O.2     1  UNL1       -0.2060
     12  C         24.3760  -21.7420  -11.5630 C.2     1  UNL1        0.0770
     13  C         25.6660  -21.2500  -11.3420 C.2     1  UNL1        0.0280
     14  C         26.4450  -20.8620  -12.4340 C.2     1  UNL1        0.0410
     15  C         25.9340  -20.9640  -13.7300 C.2     1  UNL1        0.1020
     16  C         24.6290  -21.4270  -13.9370 C.2     1  UNL1        0.1030
     17  O         26.7660  -20.5830  -14.7520 O.2     1  UNL1       -0.3460
     18  C         23.8490  -21.8290  -12.8560 C.2     1  UNL1        0.0640
     19  O         24.0540  -21.5200  -15.1770 O.2     1  UNL1       -0.3460
     20  C         24.7900  -20.7680  -16.1490 C.3     1  UNL1        0.2020
     21  C         26.2790  -21.0360  -16.0200 C.3     1  UNL1        0.2020
     22  S         16.8850  -23.4190   -8.0290 S.O2    1  UNL1        0.2450
     23  O         16.1660  -24.4940   -8.6800 O.2     1  UNL1       -0.2060
     24  O         16.2940  -22.1040   -7.8900 O.2     1  UNL1       -0.2060
     25  N         17.3450  -23.9970   -6.5030 N.pl3   1  UNL1       -0.1790
     26  H         18.0790  -24.6990   -6.6050 H       1  UNL1        0.1460
     27  C         17.6540  -23.0210   -5.5010 C.2     1  UNL1        0.0560
     28  C         18.4970  -21.9520   -5.8030 C.2     1  UNL1        0.0340
     29  C         18.8550  -21.0380   -4.8070 C.2     1  UNL1       -0.0600
     30  C         18.3740  -21.2260   -3.5060 C.2     1  UNL1        0.0090
     31  C         19.7840  -19.9010   -5.1220 C.3     1  UNL1        0.0480
     32  C         17.5280  -22.3000   -3.2020 C.2     1  UNL1        0.0390
     33  C         17.1560  -23.2030   -4.1970 C.2     1  UNL1        0.0900
     34  O         16.3350  -24.2900   -4.0220 O.2     1  UNL1       -0.3540
     35  C         14.9400  -24.0710   -4.2040 C.3     1  UNL1        0.2100
@<TRIPOS>BOND
     1    20    21    1
     2    20    19    1
     3    21    17    1
     4    19    16    1
     5    17    15    1
     6    16    15    2
     7    16    18    1
     8    15    14    1
     9    18    12    2
    10    14    13    2
    11    12    13    1
    12    12     9    1
    13     8     7    1
    14     7     4    1
    15     7     9    1
    16     3     4    2
    17     3     2    1
    18     4     5    1
    19     9    11    2
    20     9    10    2
    21     2     1    2
    22     5     6    2
    23     1     6    1
    24     1    22    1
    25    23    22    2
    26    22    24    2
    27    22    25    1
    28    26    25    1
    29    25    27    1
    30    28    27    2
    31    28    29    1
    32    27    33    1
    33    31    29    1
    34    29    30    2
    35    35    34    1
    36    33    34    1
    37    33    32    2
    38    30    32    1
