@<TRIPOS>MOLECULE
57869_out_ligand_01.pdbqt
 31 33 0 0 0
SMALL
GASTEIGER

@<TRIPOS>ATOM
      1  C         17.1550  -23.0560   -9.0050 C.2     1  UNL1        0.0810
      2  C         18.5360  -23.2670   -9.1370 C.2     1  UNL1        0.0420
      3  C         19.2290  -22.7300  -10.2250 C.2     1  UNL1        0.0330
      4  C         18.5450  -21.9660  -11.1760 C.2     1  UNL1        0.0170
      5  C         17.1690  -21.7590  -11.0460 C.2     1  UNL1        0.0090
      6  C         16.4520  -22.2940   -9.9610 C.2     1  UNL1       -0.0390
      7  C         14.9710  -22.0420   -9.8940 C.3     1  UNL1        0.0500
      8  S         16.3340  -23.8020   -7.6010 S.O2    1  UNL1        0.2460
      9  O         15.7730  -25.0640   -8.0340 O.2     1  UNL1       -0.2060
     10  O         15.5180  -22.7880   -6.9720 O.2     1  UNL1       -0.2060
     11  N         17.6810  -24.1840   -6.6210 N.pl3   1  UNL1       -0.1810
     12  H         17.5210  -25.1190   -6.2430 H       1  UNL1        0.1460
     13  C         17.9040  -23.2450   -5.5600 C.2     1  UNL1        0.0230
     14  C         17.5620  -23.5910   -4.2540 C.2     1  UNL1        0.0240
     15  C         17.8220  -22.7040   -3.2100 C.2     1  UNL1        0.0020
     16  C         18.4310  -21.4750   -3.4730 C.2     1  UNL1        0.0070
     17  C         18.7850  -21.1230   -4.7820 C.2     1  UNL1       -0.0600
     18  C         19.4910  -19.8280   -5.0550 C.3     1  UNL1        0.0480
     19  C         18.5340  -22.0270   -5.8230 C.2     1  UNL1        0.0310
     20  C         20.6980  -22.9590  -10.3160 C.2     1  UNL1        0.2560
     21  O         21.1660  -23.9310   -9.7380 O.2     1  UNL1       -0.2670
     22  N         21.3830  -22.0400  -11.0840 N.am    1  UNL1       -0.3210
     23  H         20.8390  -21.3540  -11.5980 H       1  UNL1        0.1690
     24  C         22.7770  -21.9820  -11.3310 C.2     1  UNL1        0.0580
     25  C         23.3450  -22.2140  -12.5870 C.2     1  UNL1        0.0550
     26  C         24.7320  -22.1420  -12.7560 C.2     1  UNL1        0.0360
     27 CL         25.4200  -22.4300  -14.3070 Cl      1  UNL1       -0.0840
     28  C         25.5680  -21.8420  -11.6820 C.2     1  UNL1        0.0260
     29  C         25.0160  -21.6120  -10.4240 C.2     1  UNL1        0.0280
     30  C         23.6320  -21.6830  -10.2500 C.2     1  UNL1        0.0600
     31 CL         22.9950  -21.3980   -8.6650 Cl      1  UNL1       -0.0820
@<TRIPOS>BOND
     1    27    26    1
     2    26    25    1
     3    26    28    2
     4    25    24    2
     5    28    29    1
     6    23    22    1
     7    24    22    1
     8    24    30    1
     9     4     5    2
    10     4     3    1
    11    22    20   am
    12     5     6    1
    13    29    30    2
    14    20     3    1
    15    20    21    2
    16    30    31    1
    17     3     2    2
    18     6     7    1
    19     6     1    2
    20     2     1    1
    21     1     8    1
    22     9     8    2
    23     8    10    2
    24     8    11    1
    25    11    12    1
    26    11    13    1
    27    19    13    2
    28    19    17    1
    29    13    14    1
    30    18    17    1
    31    17    16    2
    32    14    15    2
    33    16    15    1
