@<TRIPOS>MOLECULE
57863_out_ligand_01.pdbqt
 33 36 0 0 0
SMALL
GASTEIGER

@<TRIPOS>ATOM
      1  C         17.7130  -23.1550   -8.8440 C.2     1  UNL1        0.0810
      2  C         19.1160  -23.1070   -8.8290 C.2     1  UNL1        0.0420
      3  C         19.8030  -22.4290   -9.8380 C.2     1  UNL1        0.0330
      4  C         19.0940  -21.7860  -10.8560 C.2     1  UNL1        0.0170
      5  C         17.6980  -21.8370  -10.8720 C.2     1  UNL1        0.0090
      6  C         16.9840  -22.5150   -9.8670 C.2     1  UNL1       -0.0390
      7  C         15.4820  -22.5390   -9.9540 C.3     1  UNL1        0.0500
      8  C         21.2890  -22.3750   -9.7780 C.2     1  UNL1        0.2560
      9  O         21.8040  -22.1390   -8.6930 O.2     1  UNL1       -0.2670
     10  N         21.9220  -22.6360  -10.9800 N.am    1  UNL1       -0.3220
     11  H         21.3260  -22.9500  -11.7290 H       1  UNL1        0.1690
     12  C         23.3140  -22.6050  -11.2620 C.2     1  UNL1        0.0460
     13  C         24.2410  -23.1810  -10.3840 C.2     1  UNL1        0.0300
     14  C         25.6060  -23.1370  -10.6520 C.2     1  UNL1        0.0030
     15  C         26.0700  -22.5110  -11.8020 C.2     1  UNL1        0.0120
     16  C         25.1770  -21.9210  -12.7040 C.2     1  UNL1       -0.0240
     17  C         25.6820  -21.2960  -13.8580 C.2     1  UNL1        0.0120
     18  C         23.7780  -21.9560  -12.4540 C.2     1  UNL1        0.0010
     19  C         24.8320  -20.6980  -14.7840 C.2     1  UNL1        0.0010
     20  C         23.4630  -20.7200  -14.5690 C.2     1  UNL1        0.0010
     21  C         22.9450  -21.3370  -13.4260 C.2     1  UNL1        0.0140
     22  S         16.9030  -24.0640   -7.5310 S.O2    1  UNL1        0.2460
     23  O         17.9340  -24.6400   -6.6950 O.2     1  UNL1       -0.2060
     24  O         15.8740  -24.8820   -8.1320 O.2     1  UNL1       -0.2060
     25  N         16.2110  -22.7750   -6.6530 N.pl3   1  UNL1       -0.1810
     26  H         16.0170  -22.0140   -7.3030 H       1  UNL1        0.1460
     27  C         16.9870  -22.3350   -5.5250 C.2     1  UNL1        0.0280
     28  C         18.0700  -21.4810   -5.7560 C.2     1  UNL1        0.0250
     29  C         18.8390  -21.0100   -4.6940 C.2     1  UNL1        0.0020
     30  C         18.5250  -21.3880   -3.3920 C.2     1  UNL1        0.0010
     31  C         17.4420  -22.2360   -3.1530 C.2     1  UNL1        0.0080
     32  C         16.6560  -22.7190   -4.2130 C.2     1  UNL1       -0.0400
     33  C         15.4960  -23.6230   -3.9040 C.3     1  UNL1        0.0500
@<TRIPOS>BOND
     1    19    20    1
     2    19    17    2
     3    20    21    2
     4    17    16    1
     5    21    18    1
     6    16    18    1
     7    16    15    2
     8    18    12    2
     9    15    14    1
    10    11    10    1
    11    12    10    1
    12    12    13    1
    13    10     8   am
    14     5     4    2
    15     5     6    1
    16     4     3    1
    17    14    13    2
    18     7     6    1
    19     6     1    2
    20     3     8    1
    21     3     2    2
    22     8     9    2
    23     1     2    1
    24     1    22    1
    25    24    22    2
    26    22    23    2
    27    22    25    1
    28    26    25    1
    29    25    27    1
    30    28    27    2
    31    28    29    1
    32    27    32    1
    33    29    30    2
    34    32    33    1
    35    32    31    2
    36    30    31    1
