@<TRIPOS>MOLECULE
57864_out_ligand_01.pdbqt
 32 34 0 0 0
SMALL
GASTEIGER

@<TRIPOS>ATOM
      1  C         21.5900  -22.4390   -9.3200 C.2     1  UNL1       -0.0430
      2  C         20.9640  -23.6070   -8.8650 C.2     1  UNL1        0.0110
      3  C         19.6800  -23.9530   -9.2990 C.2     1  UNL1        0.0390
      4  C         18.9960  -23.1390  -10.2050 C.2     1  UNL1        0.0860
      5  C         19.6230  -21.9680  -10.6630 C.2     1  UNL1        0.0440
      6 BR         18.7540  -20.7890  -11.8750 Br      1  UNL1       -0.0480
      7  C         20.9080  -21.6230  -10.2300 C.2     1  UNL1        0.0300
      8  O         17.7350  -23.3860  -10.6830 O.2     1  UNL1       -0.3410
      9  C         16.6250  -22.7440  -10.0670 C.3     1  UNL1        0.2780
     10  C         16.3480  -23.1980   -8.6280 C.2     1  UNL1        0.2460
     11  O         15.9290  -24.3290   -8.4010 O.2     1  UNL1       -0.2710
     12  N         16.5980  -22.1930   -7.7080 N.am    1  UNL1       -0.3250
     13  H         16.9890  -21.3500   -8.1130 H       1  UNL1        0.1690
     14  C         16.4520  -22.2220   -6.3020 C.2     1  UNL1        0.0410
     15  C         15.2220  -22.4970   -5.6960 C.2     1  UNL1        0.0300
     16  C         15.0980  -22.5160   -4.3080 C.2     1  UNL1        0.0030
     17  C         16.2040  -22.2580   -3.5070 C.2     1  UNL1        0.0070
     18  C         17.4530  -21.9780   -4.0790 C.2     1  UNL1       -0.0540
     19  C         18.6120  -21.7120   -3.1540 C.3     1  UNL1        0.0490
     20  C         17.5870  -21.9570   -5.4900 C.2     1  UNL1       -0.0290
     21  C         18.9270  -21.6670   -6.1300 C.3     1  UNL1        0.0510
     22  C         22.9840  -22.0880   -8.8550 C.3     1  UNL1        0.1310
     23  N         23.9450  -22.9150   -9.5680 N.pl3   1  UNL1       -0.2890
     24  H         23.6400  -23.8820   -9.6500 H       1  UNL1        0.1280
     25  C         24.5070  -22.4490  -10.7610 C.2     1  UNL1        0.0090
     26  C         24.1770  -22.9510  -12.0210 C.2     1  UNL1        0.0240
     27  C         24.7250  -22.3990  -13.1860 C.2     1  UNL1        0.0090
     28  C         25.5980  -21.3070  -13.1240 C.2     1  UNL1       -0.0560
     29  C         26.1610  -20.7360  -14.3960 C.3     1  UNL1        0.0490
     30  C         25.8990  -20.7490  -11.8690 C.2     1  UNL1       -0.0540
     31  C         25.3430  -21.3250  -10.7110 C.2     1  UNL1        0.0300
     32  C         26.8060  -19.5560  -11.7360 C.3     1  UNL1        0.0490
@<TRIPOS>BOND
     1    29    28    1
     2    27    28    2
     3    27    26    1
     4    28    30    1
     5    26    25    2
     6     6     5    1
     7    30    32    1
     8    30    31    2
     9    25    31    1
    10    25    23    1
    11     8     4    1
    12     8     9    1
    13     5     7    1
    14     5     4    2
    15     7     1    2
    16     4     3    1
    17     9    10    1
    18    24    23    1
    19    23    22    1
    20     1     2    1
    21     1    22    1
    22     3     2    2
    23    10    11    2
    24    10    12   am
    25    13    12    1
    26    12    14    1
    27    14    15    2
    28    14    20    1
    29    21    20    1
    30    15    16    1
    31    20    18    2
    32    16    17    2
    33    18    17    1
    34    18    19    1
