@<TRIPOS>MOLECULE
57867_out_ligand_01.pdbqt
 30 32 0 0 0
SMALL
GASTEIGER

@<TRIPOS>ATOM
      1  C         17.6070  -22.9620   -9.0970 C.2     1  UNL1        0.0860
      2  C         18.9980  -22.9130   -9.2930 C.2     1  UNL1        0.0420
      3  C         19.5330  -22.2020  -10.3690 C.2     1  UNL1        0.0330
      4  C         18.6810  -21.5270  -11.2480 C.2     1  UNL1        0.0170
      5  C         17.2980  -21.5850  -11.0590 C.2     1  UNL1        0.0090
      6  C         16.7360  -22.2970   -9.9840 C.2     1  UNL1       -0.0390
      7  C         15.2380  -22.3230   -9.8620 C.3     1  UNL1        0.0500
      8  S         17.0160  -23.9310   -7.7100 S.O2    1  UNL1        0.2630
      9  O         15.9040  -24.7410   -8.1610 O.2     1  UNL1       -0.2000
     10  O         18.1610  -24.5600   -7.0840 O.2     1  UNL1       -0.2000
     11  N         16.3700  -22.7710   -6.6720 N.pl3   1  UNL1       -0.2800
     12  H         15.7450  -22.1240   -7.1420 H       1  UNL1        0.1790
     13  C         17.1140  -22.3120   -5.5440 C.2     1  UNL1        0.0480
     14  C         18.2120  -21.4660   -5.7340 C.2     1  UNL1        0.0300
     15  C         18.9270  -20.9770   -4.6400 C.2     1  UNL1        0.0020
     16  C         18.5550  -21.3410   -3.3500 C.2     1  UNL1        0.0010
     17  C         17.4760  -22.2020   -3.1540 C.2     1  UNL1        0.0090
     18  C         16.7470  -22.7050   -4.2450 C.2     1  UNL1       -0.0350
     19  C         15.5880  -23.6220   -3.9780 C.3     1  UNL1        0.0500
     20  C         21.0120  -22.1560  -10.5310 C.2     1  UNL1        0.2560
     21  O         21.7000  -22.0530   -9.5240 O.2     1  UNL1       -0.2670
     22  N         21.4530  -22.2700  -11.8370 N.am    1  UNL1       -0.3230
     23  H         20.7560  -22.4810  -12.5380 H       1  UNL1        0.1690
     24  C         22.7860  -22.2220  -12.2950 C.2     1  UNL1        0.0350
     25  C         23.0570  -21.3870  -13.3890 C.2     1  UNL1        0.0310
     26  C         24.3540  -21.2790  -13.9000 C.2     1  UNL1        0.0260
     27  C         25.3890  -22.0040  -13.3160 C.2     1  UNL1        0.0340
     28 CL         26.9850  -21.8700  -13.9420 Cl      1  UNL1       -0.0840
     29  C         25.1360  -22.8330  -12.2280 C.2     1  UNL1        0.0260
     30  C         23.8360  -22.9410  -11.7180 C.2     1  UNL1        0.0310
@<TRIPOS>BOND
     1    28    27    1
     2    26    25    1
     3    26    27    2
     4    25    24    2
     5    27    29    1
     6    23    22    1
     7    24    22    1
     8    24    30    1
     9    29    30    2
    10    22    20   am
    11     4     5    2
    12     4     3    1
    13     5     6    1
    14    20     3    1
    15    20    21    2
    16     3     2    2
    17     6     7    1
    18     6     1    2
    19     2     1    1
    20     1     8    1
    21     9     8    2
    22     8    10    2
    23     8    11    1
    24    12    11    1
    25    11    13    1
    26    14    13    2
    27    14    15    1
    28    13    18    1
    29    15    16    2
    30    18    19    1
    31    18    17    2
    32    16    17    1
