@<TRIPOS>MOLECULE
57884_out_ligand_01.pdbqt
 31 34 0 0 0
SMALL
GASTEIGER

@<TRIPOS>ATOM
      1  C         23.8180  -21.9720  -13.1870 C.2     1  UNL1        0.0540
      2  C         24.9140  -21.8620  -14.0550 C.2     1  UNL1        0.0190
      3  C         26.0170  -22.7040  -13.8960 C.2     1  UNL1        0.0010
      4  C         26.0270  -23.6610  -12.8810 C.2     1  UNL1        0.0020
      5  C         24.9330  -23.7830  -12.0210 C.2     1  UNL1        0.0250
      6  C         23.8230  -22.9490  -12.1760 C.2     1  UNL1        0.0380
      7  N         22.7550  -23.0490  -11.2210 N.pl3   1  UNL1       -0.1800
      8  H         21.9320  -22.4780  -11.4700 H       1  UNL1        0.1460
      9  S         23.1590  -22.6910   -9.6090 S.O2    1  UNL1        0.2450
     10  O         24.1970  -23.5970   -9.1650 O.2     1  UNL1       -0.2060
     11  O         23.3260  -21.2570   -9.5230 O.2     1  UNL1       -0.2060
     12  C         21.6550  -23.0860   -8.7520 C.2     1  UNL1        0.0750
     13  C         21.0490  -24.3240   -8.9760 C.2     1  UNL1        0.0260
     14  C         19.8700  -24.6400   -8.3010 C.2     1  UNL1        0.0140
     15  C         19.2860  -23.7260   -7.4080 C.2     1  UNL1       -0.0260
     16  C         18.1000  -24.0340   -6.7210 C.2     1  UNL1        0.0120
     17  C         19.9000  -22.4670   -7.1960 C.2     1  UNL1       -0.0250
     18  C         17.5290  -23.1160   -5.8380 C.2     1  UNL1        0.0010
     19  C         18.1330  -21.8790   -5.6310 C.2     1  UNL1        0.0010
     20  C         19.3110  -21.5560   -6.3060 C.2     1  UNL1        0.0120
     21  C         21.0840  -22.1550   -7.8800 C.2     1  UNL1        0.0370
     22  C         22.6320  -21.0940  -13.3580 C.2     1  UNL1        0.2530
     23  O         22.5590  -20.3490  -14.3320 O.2     1  UNL1       -0.2680
     24  N         21.6480  -21.2010  -12.4060 N.am    1  UNL1       -0.3510
     25  H         21.6670  -21.9610  -11.7390 H       1  UNL1        0.1630
     26  C         20.4180  -20.4570  -12.5370 C.3     1  UNL1        0.1870
     27  C         19.3400  -21.1730  -11.8160 C.2     1  UNL1        0.0700
     28  C         19.2830  -22.3900  -11.1660 C.2     1  UNL1        0.0360
     29  C         17.9650  -22.5150  -10.6650 C.2     1  UNL1        0.0270
     30  C         17.3030  -21.3680  -11.0360 C.2     1  UNL1        0.1420
     31  O         18.1300  -20.5460  -11.7310 O.2     1  UNL1       -0.3250
@<TRIPOS>BOND
     1    23    22    2
     2     2     3    1
     3     2     1    2
     4     3     4    2
     5    22     1    1
     6    22    24   am
     7     1     6    1
     8     4     5    1
     9    26    24    1
    10    26    27    1
    11    24    25    1
    12     6     5    2
    13     6     7    1
    14    27    31    1
    15    27    28    2
    16    31    30    1
    17     8     7    1
    18     7     9    1
    19    28    29    1
    20    30    29    2
    21     9    11    2
    22     9    10    2
    23     9    12    1
    24    13    12    2
    25    13    14    1
    26    12    21    1
    27    14    15    2
    28    21    17    2
    29    15    17    1
    30    15    16    1
    31    17    20    1
    32    16    18    2
    33    20    19    2
    34    18    19    1
