@<TRIPOS>MOLECULE
57885_out_ligand_01.pdbqt
 31 33 0 0 0
SMALL
GASTEIGER

@<TRIPOS>ATOM
      1  C         21.4920  -22.3230  -10.2290 C.2     1  UNL1        0.1020
      2  C         20.7300  -22.7880   -9.1400 C.2     1  UNL1        0.0440
      3  C         19.3320  -22.7570   -9.1800 C.2     1  UNL1        0.0340
      4  C         18.6850  -22.2570  -10.3120 C.2     1  UNL1        0.0190
      5  C         19.4430  -21.7770  -11.3830 C.2     1  UNL1        0.0260
      6  C         20.8480  -21.8020  -11.3520 C.2     1  UNL1        0.0570
      7 CL         21.6260  -21.1900  -12.7620 Cl      1  UNL1       -0.0830
      8  S         23.2580  -22.4280  -10.0450 S.O2    1  UNL1        0.2650
      9  O         23.8700  -21.1290  -10.1960 O.2     1  UNL1       -0.2000
     10  O         23.5000  -23.2020   -8.8440 O.2     1  UNL1       -0.2000
     11  N         23.7220  -23.4270  -11.3230 N.pl3   1  UNL1       -0.2800
     12  H         22.9500  -23.9780  -11.6910 H       1  UNL1        0.1790
     13  C         24.7680  -23.0360  -12.2080 C.2     1  UNL1        0.0490
     14  C         26.1110  -23.2210  -11.8380 C.2     1  UNL1       -0.0350
     15  C         27.1170  -22.8450  -12.7400 C.2     1  UNL1        0.0090
     16  C         26.5060  -23.7870  -10.5020 C.3     1  UNL1        0.0500
     17  C         26.7970  -22.2980  -13.9840 C.2     1  UNL1        0.0070
     18  C         25.4630  -22.1120  -14.3510 C.2     1  UNL1       -0.0600
     19  C         25.1110  -21.4860  -15.6680 C.3     1  UNL1        0.0480
     20  C         24.4550  -22.4660  -13.4460 C.2     1  UNL1        0.0370
     21  C         18.5780  -23.3170   -8.0250 C.2     1  UNL1        0.2560
     22  O         18.8420  -24.4610   -7.6750 O.2     1  UNL1       -0.2670
     23  N         17.6620  -22.4570   -7.4560 N.am    1  UNL1       -0.3220
     24  H         17.6400  -21.5010   -7.7910 H       1  UNL1        0.1690
     25  C         16.7840  -22.7120   -6.3750 C.2     1  UNL1        0.0520
     26  C         15.6000  -23.4420   -6.5090 C.2     1  UNL1        0.0310
     27  C         14.7680  -23.6610   -5.4060 C.2     1  UNL1        0.0020
     28  C         15.1070  -23.1510   -4.1540 C.2     1  UNL1        0.0020
     29  C         16.2810  -22.4180   -4.0020 C.2     1  UNL1        0.0210
     30  C         17.1120  -22.2000   -5.1060 C.2     1  UNL1        0.0370
     31 BR         18.6990  -21.1840   -4.8290 Br      1  UNL1       -0.0490
@<TRIPOS>BOND
     1    19    18    1
     2    18    17    2
     3    18    20    1
     4    17    15    1
     5    20    13    2
     6     7     6    1
     7    15    14    2
     8    13    14    1
     9    13    11    1
    10    14    16    1
    11    12    11    1
    12     5     6    1
    13     5     4    2
    14     6     1    2
    15    11     8    1
    16     4     3    1
    17     1     8    1
    18     1     2    1
    19     9     8    2
    20     8    10    2
    21     3     2    2
    22     3    21    1
    23    21    22    2
    24    21    23   am
    25    24    23    1
    26    23    25    1
    27    26    25    2
    28    26    27    1
    29    25    30    1
    30    27    28    2
    31    30    31    1
    32    30    29    2
    33    28    29    1
