@<TRIPOS>MOLECULE
57881_out_ligand_01.pdbqt
 31 33 0 0 0
SMALL
GASTEIGER

@<TRIPOS>ATOM
      1  C         16.9160  -20.6950  -11.3530 C.3     1  UNL1        0.0500
      2  C         18.2770  -21.3010  -11.1480 C.2     1  UNL1       -0.0390
      3  C         19.3090  -20.9270  -12.0250 C.2     1  UNL1        0.0090
      4  C         20.5930  -21.4660  -11.9060 C.2     1  UNL1        0.0170
      5  C         20.8700  -22.3950  -10.8990 C.2     1  UNL1        0.0330
      6  C         19.8480  -22.8070  -10.0370 C.2     1  UNL1        0.0420
      7  C         18.5600  -22.2610  -10.1560 C.2     1  UNL1        0.0810
      8  S         17.3040  -22.8450   -9.0170 S.O2    1  UNL1        0.2460
      9  O         16.5930  -23.9260   -9.6660 O.2     1  UNL1       -0.2060
     10  O         16.6140  -21.6900   -8.4880 O.2     1  UNL1       -0.2060
     11  N         18.2880  -23.5570   -7.8180 N.pl3   1  UNL1       -0.1810
     12  H         17.9640  -24.5090   -7.6610 H       1  UNL1        0.1460
     13  C         18.3650  -22.8040   -6.5940 C.2     1  UNL1        0.0290
     14  C         19.3100  -21.7730   -6.5490 C.2     1  UNL1        0.0250
     15  C         19.4220  -20.9670   -5.4220 C.2     1  UNL1        0.0020
     16  C         18.5740  -21.1740   -4.3390 C.2     1  UNL1        0.0070
     17  C         17.5990  -22.1850   -4.3710 C.2     1  UNL1       -0.0540
     18  C         16.6910  -22.3420   -3.1790 C.3     1  UNL1        0.0490
     19  C         17.4950  -23.0290   -5.5050 C.2     1  UNL1       -0.0340
     20  C         16.4180  -24.0850   -5.5490 C.3     1  UNL1        0.0500
     21  C         22.2270  -22.9940  -10.7320 C.2     1  UNL1        0.2560
     22  O         22.4250  -23.7080   -9.7580 O.2     1  UNL1       -0.2670
     23  N         23.1490  -22.6320  -11.6980 N.am    1  UNL1       -0.3230
     24  H         22.8620  -21.9330  -12.3700 H       1  UNL1        0.1690
     25  C         24.4890  -23.0650  -11.8050 C.2     1  UNL1        0.0360
     26  C         25.4370  -22.9280  -10.7860 C.2     1  UNL1        0.0290
     27  C         26.7470  -23.3850  -10.9660 C.2     1  UNL1        0.0040
     28  C         27.1210  -23.9870  -12.1650 C.2     1  UNL1        0.0240
     29  C         26.1800  -24.1300  -13.1810 C.2     1  UNL1        0.0360
     30 CL         26.6300  -24.8740  -14.6650 Cl      1  UNL1       -0.0840
     31  C         24.8710  -23.6730  -13.0060 C.2     1  UNL1        0.0530
@<TRIPOS>BOND
     1    30    29    1
     2    29    31    1
     3    29    28    2
     4    31    25    2
     5    24    23    1
     6    28    27    1
     7     3     4    1
     8     3     2    2
     9     4     5    2
    10    25    23    1
    11    25    26    1
    12    23    21   am
    13     1     2    1
    14     2     7    1
    15    27    26    2
    16     5    21    1
    17     5     6    1
    18    21    22    2
    19     7     6    2
    20     7     8    1
    21     9     8    2
    22     8    10    2
    23     8    11    1
    24    11    12    1
    25    11    13    1
    26    13    14    2
    27    13    19    1
    28    14    15    1
    29    20    19    1
    30    19    17    2
    31    15    16    2
    32    17    16    1
    33    17    18    1
