@<TRIPOS>MOLECULE
57889_out_ligand_01.pdbqt
 29 31 0 0 0
SMALL
GASTEIGER

@<TRIPOS>ATOM
      1  C         19.8600  -22.8790   -9.8990 C.2     1  UNL1        0.0330
      2  C         19.2000  -22.1440  -10.8860 C.2     1  UNL1        0.0170
      3  C         17.8120  -21.9940  -10.8330 C.2     1  UNL1        0.0090
      4  C         17.0570  -22.5860   -9.8040 C.2     1  UNL1       -0.0390
      5  C         15.5680  -22.3720   -9.8020 C.3     1  UNL1        0.0500
      6  C         17.7360  -23.3310   -8.8190 C.2     1  UNL1        0.0810
      7  C         19.1300  -23.4800   -8.8700 C.2     1  UNL1        0.0420
      8  C         21.3350  -23.0760   -9.9340 C.2     1  UNL1        0.2560
      9  N         21.9950  -22.3070  -10.8730 N.am    1  UNL1       -0.3230
     10  H         21.4460  -21.6200  -11.3730 H       1  UNL1        0.1690
     11  O         21.8250  -23.8610   -9.1330 O.2     1  UNL1       -0.2670
     12  C         23.3770  -22.3030  -11.1550 C.2     1  UNL1        0.0350
     13  C         24.3080  -21.5140  -10.4810 C.2     1  UNL1        0.0290
     14  C         25.6620  -21.5660  -10.8240 C.2     1  UNL1        0.0030
     15  C         26.0970  -22.4130  -11.8420 C.2     1  UNL1        0.0070
     16  C         25.1840  -23.2270  -12.5180 C.2     1  UNL1       -0.0600
     17  C         25.6380  -24.1210  -13.6340 C.3     1  UNL1        0.0480
     18  C         23.8250  -23.1560  -12.1750 C.2     1  UNL1        0.0360
     19  S         16.8730  -24.1020   -7.4540 S.O2    1  UNL1        0.2460
     20  O         17.8530  -24.7690   -6.6270 O.2     1  UNL1       -0.2060
     21  O         15.7310  -24.8110   -7.9950 O.2     1  UNL1       -0.2060
     22  N         16.2530  -22.7240   -6.6590 N.pl3   1  UNL1       -0.1810
     23  H         15.3020  -22.9490   -6.3620 H       1  UNL1        0.1460
     24  C         17.0440  -22.2990   -5.5410 C.2     1  UNL1        0.0220
     25  C         18.1600  -21.4850   -5.7440 C.2     1  UNL1        0.0240
     26  C         18.9040  -21.0420   -4.6480 C.2     1  UNL1        0.0020
     27  C         18.5220  -21.4000   -3.3550 C.2     1  UNL1        0.0000
     28  C         17.3930  -22.1950   -3.1540 C.2     1  UNL1        0.0020
     29  C         16.6500  -22.6400   -4.2480 C.2     1  UNL1        0.0240
@<TRIPOS>BOND
     1    17    16    1
     2    16    18    1
     3    16    15    2
     4    18    12    2
     5    15    14    1
     6    10     9    1
     7    12     9    1
     8    12    13    1
     9     2     3    1
    10     2     1    2
    11     9     8   am
    12     3     4    2
    13    14    13    2
    14     8     1    1
    15     8    11    2
    16     1     7    1
    17     4     5    1
    18     4     6    1
    19     7     6    2
    20     6    19    1
    21    21    19    2
    22    19    22    1
    23    19    20    2
    24    22    23    1
    25    22    24    1
    26    25    24    2
    27    25    26    1
    28    24    29    1
    29    26    27    2
    30    29    28    2
    31    27    28    1
