@<TRIPOS>MOLECULE
57899_out_ligand_01.pdbqt
 31 33 0 0 0
SMALL
GASTEIGER

@<TRIPOS>ATOM
      1  C         17.5690  -23.3630   -8.9240 C.2     1  UNL1        0.0970
      2  C         18.9590  -23.5380   -9.0270 C.2     1  UNL1        0.0430
      3  C         19.6780  -22.9090  -10.0510 C.2     1  UNL1        0.0340
      4  C         19.0100  -22.0730  -10.9520 C.2     1  UNL1        0.0190
      5  C         17.6260  -21.8970  -10.8430 C.2     1  UNL1        0.0260
      6  C         16.8970  -22.5420   -9.8340 C.2     1  UNL1        0.0570
      7 CL         15.1970  -22.2570   -9.8190 Cl      1  UNL1       -0.0830
      8  S         16.7160  -24.1820   -7.6030 S.O2    1  UNL1        0.2470
      9  O         17.6990  -24.8870   -6.8130 O.2     1  UNL1       -0.2050
     10  O         15.5740  -24.8660   -8.1760 O.2     1  UNL1       -0.2050
     11  N         16.0550  -22.8600   -6.7430 N.pl3   1  UNL1       -0.1810
     12  H         15.1750  -23.1890   -6.3410 H       1  UNL1        0.1460
     13  C         16.9100  -22.3730   -5.6960 C.2     1  UNL1        0.0230
     14  C         16.5670  -22.6100   -4.3670 C.2     1  UNL1        0.0240
     15  C         17.3650  -22.0980   -3.3450 C.2     1  UNL1        0.0020
     16  C         18.4970  -21.3420   -3.6530 C.2     1  UNL1        0.0070
     17  C         18.8430  -21.0910   -4.9880 C.2     1  UNL1       -0.0600
     18  C         20.0260  -20.2290   -5.3150 C.3     1  UNL1        0.0480
     19  C         18.0290  -21.5980   -6.0100 C.2     1  UNL1        0.0310
     20  C         21.1530  -23.1180  -10.1230 C.2     1  UNL1        0.2560
     21  O         21.6520  -23.9040   -9.3290 O.2     1  UNL1       -0.2670
     22  N         21.7910  -22.4130  -11.1270 N.am    1  UNL1       -0.3220
     23  H         21.1970  -21.9230  -11.7770 H       1  UNL1        0.1690
     24  C         23.1810  -22.3680  -11.4120 C.2     1  UNL1        0.0410
     25  C         24.1330  -22.8420  -10.5030 C.2     1  UNL1        0.0300
     26  C         25.4940  -22.7840  -10.7950 C.2     1  UNL1        0.0030
     27  C         25.9250  -22.2470  -12.0010 C.2     1  UNL1        0.0070
     28  C         25.0020  -21.7560  -12.9360 C.2     1  UNL1       -0.0540
     29  C         25.5360  -21.1840  -14.2240 C.3     1  UNL1        0.0490
     30  C         23.6150  -21.8130  -12.6460 C.2     1  UNL1       -0.0290
     31  C         22.6050  -21.2900  -13.6410 C.3     1  UNL1        0.0510
@<TRIPOS>BOND
     1    29    28    1
     2    31    30    1
     3    28    30    1
     4    28    27    2
     5    30    24    2
     6    27    26    1
     7    23    22    1
     8    24    22    1
     9    24    25    1
    10    22    20   am
    11     4     5    2
    12     4     3    1
    13     5     6    1
    14    26    25    2
    15    20     3    1
    16    20    21    2
    17     3     2    2
    18     6     7    1
    19     6     1    2
    20     2     1    1
    21     1     8    1
    22    10     8    2
    23     8     9    2
    24     8    11    1
    25    11    12    1
    26    11    13    1
    27    19    13    2
    28    19    17    1
    29    13    14    1
    30    18    17    1
    31    17    16    2
    32    14    15    2
    33    16    15    1
