@<TRIPOS>MOLECULE
57895_out_ligand_01.pdbqt
 31 33 0 0 0
SMALL
GASTEIGER

@<TRIPOS>ATOM
      1  C         20.7520  -22.3910  -10.9030 C.2     1  UNL1        0.0340
      2  C         20.4420  -21.3400  -11.7670 C.2     1  UNL1        0.0190
      3  C         19.1390  -20.8340  -11.7970 C.2     1  UNL1        0.0260
      4  C         18.1370  -21.3570  -10.9650 C.2     1  UNL1        0.0570
      5 CL         16.5940  -20.6010  -11.1040 Cl      1  UNL1       -0.0830
      6  C         18.4540  -22.3970  -10.0890 C.2     1  UNL1        0.1020
      7  C         19.7610  -22.9180  -10.0690 C.2     1  UNL1        0.0440
      8  S         17.2920  -23.1510   -8.9740 S.O2    1  UNL1        0.2650
      9  O         16.1250  -23.6130   -9.6870 O.2     1  UNL1       -0.2000
     10  O         18.0470  -24.0780   -8.1550 O.2     1  UNL1       -0.2000
     11  N         16.8640  -21.8890   -7.9430 N.pl3   1  UNL1       -0.2800
     12  H         16.3430  -21.1470   -8.4040 H       1  UNL1        0.1790
     13  C         16.6390  -22.1410   -6.5600 C.2     1  UNL1        0.0490
     14  C         15.3650  -22.5600   -6.1670 C.2     1  UNL1        0.0310
     15  C         15.0790  -22.7790   -4.8230 C.2     1  UNL1        0.0030
     16  C         16.0650  -22.5770   -3.8650 C.2     1  UNL1        0.0070
     17  C         17.3520  -22.1570   -4.2370 C.2     1  UNL1       -0.0540
     18  C         18.3850  -21.9560   -3.1580 C.3     1  UNL1        0.0490
     19  C         17.6550  -21.9420   -5.6050 C.2     1  UNL1       -0.0290
     20  C         19.0430  -21.4870   -5.9840 C.3     1  UNL1        0.0510
     21  C         22.1340  -22.9290  -10.7920 C.2     1  UNL1        0.2560
     22  N         22.9990  -22.5190  -11.7880 N.am    1  UNL1       -0.3230
     23  H         22.6060  -21.9860  -12.5530 H       1  UNL1        0.1690
     24  O         22.3710  -23.6850   -9.8580 O.2     1  UNL1       -0.2670
     25  C         24.3690  -22.8330  -11.9130 C.2     1  UNL1        0.0350
     26  C         25.2310  -22.3350  -10.9280 C.2     1  UNL1        0.0290
     27  C         26.5990  -22.6110  -10.9720 C.2     1  UNL1        0.0030
     28  C         27.1200  -23.3880  -12.0050 C.2     1  UNL1        0.0070
     29  C         26.2790  -23.8840  -13.0040 C.2     1  UNL1       -0.0600
     30  C         26.8260  -24.7490  -14.1020 C.3     1  UNL1        0.0480
     31  C         24.9010  -23.6130  -12.9430 C.2     1  UNL1        0.0360
@<TRIPOS>BOND
     1    30    29    1
     2    29    31    1
     3    29    28    2
     4    31    25    2
     5    23    22    1
     6    28    27    1
     7    25    22    1
     8    25    26    1
     9     3     2    1
    10     3     4    2
    11    22    21   am
    12     2     1    2
    13     5     4    1
    14    27    26    2
    15     4     6    1
    16     1    21    1
    17     1     7    1
    18    21    24    2
    19     6     7    2
    20     6     8    1
    21     9     8    2
    22     8    10    2
    23     8    11    1
    24    12    11    1
    25    11    13    1
    26    13    14    2
    27    13    19    1
    28    14    15    1
    29    20    19    1
    30    19    17    2
    31    15    16    2
    32    17    16    1
    33    17    18    1
