@<TRIPOS>MOLECULE
57893_out_ligand_01.pdbqt
 31 33 0 0 0
SMALL
GASTEIGER

@<TRIPOS>ATOM
      1  C         16.7620  -20.9340  -11.0330 C.3     1  UNL1        0.0500
      2  C         18.1590  -21.4730  -10.9060 C.2     1  UNL1       -0.0390
      3  C         19.1520  -20.9350  -11.7470 C.2     1  UNL1        0.0090
      4  C         20.4750  -21.3810  -11.6890 C.2     1  UNL1        0.0170
      5  C         20.8370  -22.3720  -10.7740 C.2     1  UNL1        0.0330
      6  C         19.8670  -22.9240   -9.9340 C.2     1  UNL1        0.0420
      7  C         18.5350  -22.4790   -9.9940 C.2     1  UNL1        0.0860
      8  S         17.3990  -23.2480   -8.8470 S.O2    1  UNL1        0.2630
      9  O         18.0880  -24.2090   -8.0160 O.2     1  UNL1       -0.2000
     10  O         16.2390  -23.6570   -9.6160 O.2     1  UNL1       -0.2000
     11  N         16.8890  -21.9430   -7.9100 N.pl3   1  UNL1       -0.2800
     12  H         16.2320  -21.3410   -8.4050 H       1  UNL1        0.1790
     13  C         16.7070  -22.1300   -6.5110 C.2     1  UNL1        0.0490
     14  C         15.4520  -22.5720   -6.0850 C.2     1  UNL1        0.0310
     15  C         15.1940  -22.7450   -4.7290 C.2     1  UNL1        0.0030
     16  C         16.1890  -22.4660   -3.7960 C.2     1  UNL1        0.0070
     17  C         17.4550  -22.0160   -4.2050 C.2     1  UNL1       -0.0540
     18  C         18.4920  -21.7240   -3.1530 C.3     1  UNL1        0.0490
     19  C         17.7340  -21.8640   -5.5850 C.2     1  UNL1       -0.0290
     20  C         19.0880  -21.3700   -6.0280 C.3     1  UNL1        0.0510
     21  C         22.2300  -22.8870  -10.6850 C.2     1  UNL1        0.2510
     22  O         22.5770  -23.5350   -9.7040 O.2     1  UNL1       -0.2680
     23  N         23.0630  -22.5650  -11.7340 N.am    1  UNL1       -0.3530
     24  H         22.7790  -21.8340  -12.3700 H       1  UNL1        0.1630
     25  C         24.4790  -22.8590  -11.6840 C.3     1  UNL1        0.1610
     26  C         25.2880  -21.6390  -12.0430 C.2     1  UNL1       -0.0410
     27  C         25.4920  -21.3010  -13.3880 C.2     1  UNL1        0.0090
     28  C         26.2590  -20.1880  -13.7310 C.2     1  UNL1        0.0010
     29  C         26.8340  -19.4030  -12.7330 C.2     1  UNL1        0.0000
     30  C         26.6420  -19.7330  -11.3920 C.2     1  UNL1        0.0010
     31  C         25.8750  -20.8470  -11.0470 C.2     1  UNL1        0.0090
@<TRIPOS>BOND
     1    28    27    1
     2    28    29    2
     3    27    26    2
     4    29    30    1
     5    24    23    1
     6    26    25    1
     7    26    31    1
     8     3     4    1
     9     3     2    2
    10    23    25    1
    11    23    21   am
    12     4     5    2
    13    30    31    2
    14     1     2    1
    15     2     7    1
    16     5    21    1
    17     5     6    1
    18    21    22    2
    19     7     6    2
    20     7     8    1
    21    10     8    2
    22     8     9    2
    23     8    11    1
    24    12    11    1
    25    11    13    1
    26    13    14    2
    27    13    19    1
    28    14    15    1
    29    20    19    1
    30    19    17    2
    31    15    16    2
    32    17    16    1
    33    17    18    1
