@<TRIPOS>MOLECULE
57894_out_ligand_01.pdbqt
 31 33 0 0 0
SMALL
GASTEIGER

@<TRIPOS>ATOM
      1  C         20.7580  -22.3650  -10.7200 C.2     1  UNL1        0.0330
      2  C         20.3870  -21.4230  -11.6810 C.2     1  UNL1        0.0170
      3  C         19.0610  -20.9890  -11.7520 C.2     1  UNL1        0.0090
      4  C         18.0740  -21.4950  -10.8850 C.2     1  UNL1       -0.0390
      5  C         16.6760  -20.9640  -11.0270 C.3     1  UNL1        0.0500
      6  C         18.4560  -22.4650   -9.9380 C.2     1  UNL1        0.0860
      7  C         19.7960  -22.8820   -9.8510 C.2     1  UNL1        0.0420
      8  C         22.1460  -22.8890  -10.6340 C.2     1  UNL1        0.2560
      9  N         23.0210  -22.3640  -11.5660 N.am    1  UNL1       -0.3230
     10  H         22.6790  -21.6050  -12.1410 H       1  UNL1        0.1690
     11  O         22.3920  -23.7010   -9.7510 O.2     1  UNL1       -0.2670
     12  C         24.3790  -22.7040  -11.7500 C.2     1  UNL1        0.0370
     13  C         25.3190  -22.0010  -10.9850 C.2     1  UNL1        0.0290
     14  C         26.6820  -22.2720  -11.1130 C.2     1  UNL1        0.0050
     15  C         27.1130  -23.2460  -12.0090 C.2     1  UNL1        0.0370
     16  C         26.1910  -23.9540  -12.7820 C.2     1  UNL1        0.0700
     17  C         24.8260  -23.6780  -12.6490 C.2     1  UNL1        0.0660
     18  O         26.7470  -24.8790  -13.6250 O.2     1  UNL1       -0.3560
     19  C         26.1350  -25.0350  -14.9000 C.3     1  UNL1        0.2100
     20  S         17.3340  -23.2260   -8.7680 S.O2    1  UNL1        0.2630
     21  O         16.1380  -23.5750   -9.5100 O.2     1  UNL1       -0.2000
     22  O         18.0300  -24.2280   -7.9920 O.2     1  UNL1       -0.2000
     23  N         16.9000  -21.9420   -7.7660 N.pl3   1  UNL1       -0.2800
     24  H         17.2070  -21.0390   -8.1200 H       1  UNL1        0.1790
     25  C         16.7800  -22.1280   -6.3590 C.2     1  UNL1        0.0480
     26  C         15.5540  -22.5470   -5.8340 C.2     1  UNL1        0.0300
     27  C         15.4030  -22.7700   -4.4650 C.2     1  UNL1        0.0020
     28  C         16.4820  -22.5730   -3.6110 C.2     1  UNL1        0.0010
     29  C         17.7050  -22.1390   -4.1250 C.2     1  UNL1        0.0090
     30  C         17.8680  -21.8930   -5.5000 C.2     1  UNL1       -0.0350
     31  C         19.2230  -21.4490   -5.9780 C.3     1  UNL1        0.0500
@<TRIPOS>BOND
     1    19    18    1
     2    18    16    1
     3    16    17    1
     4    16    15    2
     5    17    12    2
     6    10     9    1
     7    15    14    1
     8     3     2    1
     9     3     4    2
    10    12     9    1
    11    12    13    1
    12     2     1    2
    13     9     8   am
    14    14    13    2
    15     5     4    1
    16     4     6    1
    17     1     8    1
    18     1     7    1
    19     8    11    2
    20     6     7    2
    21     6    20    1
    22    21    20    2
    23    20    22    2
    24    20    23    1
    25    24    23    1
    26    23    25    1
    27    25    26    2
    28    25    30    1
    29    31    30    1
    30    26    27    1
    31    30    29    2
    32    27    28    2
    33    29    28    1
