@<TRIPOS>MOLECULE
57896_out_ligand_01.pdbqt
 34 37 0 0 0
SMALL
GASTEIGER

@<TRIPOS>ATOM
      1  C         18.1530  -24.7980   -7.2810 C.3     1  UNL1        0.0500
      2  C         19.0060  -24.0390   -8.2580 C.2     1  UNL1       -0.0390
      3  C         20.3850  -24.3230   -8.2930 C.2     1  UNL1        0.0090
      4  C         21.2420  -23.6540   -9.1720 C.2     1  UNL1        0.0170
      5  C         20.7340  -22.6750  -10.0310 C.2     1  UNL1        0.0330
      6  C         19.3770  -22.3500   -9.9830 C.2     1  UNL1        0.0420
      7  C         18.5110  -23.0380   -9.1170 C.2     1  UNL1        0.0860
      8  C         21.6070  -21.9440  -10.9900 C.2     1  UNL1        0.2560
      9  O         21.1030  -21.0550  -11.6650 O.2     1  UNL1       -0.2670
     10  N         22.9150  -22.3930  -11.0410 N.am    1  UNL1       -0.3230
     11  H         23.1350  -23.2240  -10.5090 H       1  UNL1        0.1690
     12  C         23.9590  -21.8880  -11.8460 C.2     1  UNL1        0.0350
     13  C         25.1340  -21.3360  -11.3390 C.2     1  UNL1        0.0300
     14  C         26.1230  -20.8560  -12.2040 C.2     1  UNL1        0.0140
     15  C         25.9590  -20.9220  -13.5950 C.2     1  UNL1       -0.0260
     16  C         26.9460  -20.4450  -14.4720 C.2     1  UNL1        0.0120
     17  C         24.7760  -21.4850  -14.1210 C.2     1  UNL1       -0.0240
     18  C         26.7690  -20.5250  -15.8530 C.2     1  UNL1        0.0010
     19  C         25.6040  -21.0800  -16.3750 C.2     1  UNL1        0.0010
     20  C         24.6130  -21.5570  -15.5150 C.2     1  UNL1        0.0120
     21  C         23.7900  -21.9620  -13.2350 C.2     1  UNL1        0.0420
     22  S         16.7830  -22.5690   -9.1600 S.O2    1  UNL1        0.2630
     23  O         15.9870  -23.7630   -8.9740 O.2     1  UNL1       -0.2000
     24  O         16.5630  -21.7200  -10.3120 O.2     1  UNL1       -0.2000
     25  N         16.6200  -21.5760   -7.8040 N.pl3   1  UNL1       -0.2800
     26  H         17.1870  -20.7360   -7.8640 H       1  UNL1        0.1790
     27  C         16.3450  -22.1470   -6.5230 C.2     1  UNL1        0.0490
     28  C         15.1050  -22.7570   -6.3090 C.2     1  UNL1        0.0310
     29  C         14.8280  -23.3880   -5.1000 C.2     1  UNL1        0.0030
     30  C         15.7910  -23.4130   -4.0950 C.2     1  UNL1        0.0070
     31  C         17.0400  -22.7980   -4.2810 C.2     1  UNL1       -0.0540
     32  C         18.0380  -22.8570   -3.1540 C.3     1  UNL1        0.0490
     33  C         17.3170  -22.1250   -5.4980 C.2     1  UNL1       -0.0290
     34  C         18.6570  -21.4610   -5.7020 C.3     1  UNL1        0.0510
@<TRIPOS>BOND
     1    19    18    2
     2    19    20    1
     3    18    16    1
     4    20    17    2
     5    16    15    2
     6    17    15    1
     7    17    21    1
     8    15    14    1
     9    21    12    2
    10    14    13    2
    11    12    13    1
    12    12    10    1
    13     9     8    2
    14    10     8   am
    15    10    11    1
    16     8     5    1
    17    24    22    2
    18     5     6    2
    19     5     4    1
    20     6     7    1
    21     4     3    2
    22    22     7    1
    23    22    23    2
    24    22    25    1
    25     7     2    2
    26     3     2    1
    27     2     1    1
    28    26    25    1
    29    25    27    1
    30    27    28    2
    31    27    33    1
    32    28    29    1
    33    34    33    1
    34    33    31    2
    35    29    30    2
    36    31    30    1
    37    31    32    1
