@<TRIPOS>MOLECULE
57909_out_ligand_01.pdbqt
 31 33 0 0 0
SMALL
GASTEIGER

@<TRIPOS>ATOM
      1  C         17.5790  -23.4100   -8.8190 C.2     1  UNL1        0.0810
      2  C         18.9720  -23.5750   -8.8780 C.2     1  UNL1        0.0420
      3  C         19.7080  -22.9560   -9.8920 C.2     1  UNL1        0.0330
      4  C         19.0570  -22.1590  -10.8380 C.2     1  UNL1        0.0170
      5  C         17.6710  -21.9980  -10.7800 C.2     1  UNL1        0.0090
      6  C         16.9090  -22.6140   -9.7700 C.2     1  UNL1       -0.0390
      7  C         15.4190  -22.4050   -9.7750 C.3     1  UNL1        0.0500
      8  S         16.7010  -24.2560   -7.5060 S.O2    1  UNL1        0.2460
      9  O         15.6410  -25.0300   -8.1130 O.2     1  UNL1       -0.2060
     10  O         17.6880  -24.8730   -6.6450 O.2     1  UNL1       -0.2060
     11  N         16.0650  -22.9200   -6.6590 N.pl3   1  UNL1       -0.1810
     12  H         15.8480  -22.1870   -7.3340 H       1  UNL1        0.1460
     13  C         16.8970  -22.4370   -5.5900 C.2     1  UNL1        0.0290
     14  C         16.6270  -22.7550   -4.2490 C.2     1  UNL1       -0.0400
     15  C         17.4600  -22.2190   -3.2540 C.2     1  UNL1        0.0090
     16  C         15.4800  -23.6330   -3.8420 C.3     1  UNL1        0.0500
     17  C         18.5320  -21.3880   -3.5830 C.2     1  UNL1        0.0070
     18  C         18.8050  -21.0800   -4.9180 C.2     1  UNL1       -0.0600
     19  C         19.9280  -20.1530   -5.2740 C.3     1  UNL1        0.0480
     20  C         17.9710  -21.5990   -5.9150 C.2     1  UNL1        0.0310
     21  C         21.1840  -23.1340   -9.9090 C.2     1  UNL1        0.2560
     22  O         21.6770  -23.9030   -9.0940 O.2     1  UNL1       -0.2670
     23  N         21.8430  -22.4110  -10.8870 N.am    1  UNL1       -0.3230
     24  H         21.2680  -21.9170  -11.5560 H       1  UNL1        0.1690
     25  C         23.2350  -22.3550  -11.1160 C.2     1  UNL1        0.0360
     26  C         24.1190  -21.5800  -10.3620 C.2     1  UNL1        0.0290
     27  C         25.4870  -21.5720  -10.6550 C.2     1  UNL1        0.0040
     28  C         25.9830  -22.3370  -11.7070 C.2     1  UNL1        0.0190
     29  C         25.1050  -23.1070  -12.4640 C.2     1  UNL1        0.0130
     30 BR         25.7690  -24.1480  -13.8970 Br      1  UNL1       -0.0510
     31  C         23.7390  -23.1200  -12.1760 C.2     1  UNL1        0.0480
@<TRIPOS>BOND
     1    30    29    1
     2    29    31    1
     3    29    28    2
     4    31    25    2
     5    28    27    1
     6    24    23    1
     7    25    23    1
     8    25    26    1
     9    23    21   am
    10     4     5    2
    11     4     3    1
    12     5     6    1
    13    27    26    2
    14    21     3    1
    15    21    22    2
    16     3     2    2
    17     7     6    1
    18     6     1    2
    19     2     1    1
    20     1     8    1
    21     9     8    2
    22     8    11    1
    23     8    10    2
    24    12    11    1
    25    11    13    1
    26    20    13    2
    27    20    18    1
    28    13    14    1
    29    19    18    1
    30    18    17    2
    31    14    16    1
    32    14    15    2
    33    17    15    1
