@<TRIPOS>MOLECULE
57903_out_ligand_01.pdbqt
 30 32 0 0 0
SMALL
GASTEIGER

@<TRIPOS>ATOM
      1  C         21.4020  -22.3150  -10.1970 C.2     1  UNL1        0.0860
      2  C         20.6450  -22.7790   -9.1070 C.2     1  UNL1        0.0420
      3  C         19.2490  -22.7520   -9.1510 C.2     1  UNL1        0.0330
      4  C         18.6010  -22.2590  -10.2840 C.2     1  UNL1        0.0170
      5  C         19.3530  -21.7760  -11.3590 C.2     1  UNL1        0.0090
      6  C         20.7620  -21.7910  -11.3360 C.2     1  UNL1       -0.0390
      7  C         21.4880  -21.2410  -12.5310 C.3     1  UNL1        0.0500
      8  S         23.1790  -22.4200  -10.0030 S.O2    1  UNL1        0.2630
      9  O         23.7730  -21.1110  -10.1350 O.2     1  UNL1       -0.2000
     10  O         23.4180  -23.2160   -8.8150 O.2     1  UNL1       -0.2000
     11  N         23.6510  -23.3820  -11.3050 N.pl3   1  UNL1       -0.2800
     12  H         22.8770  -23.8980  -11.7180 H       1  UNL1        0.1790
     13  C         24.7500  -23.0060  -12.1290 C.2     1  UNL1        0.0480
     14  C         24.4960  -22.4060  -13.3680 C.2     1  UNL1        0.0300
     15  C         25.5460  -22.0450  -14.2130 C.2     1  UNL1        0.0020
     16  C         26.8580  -22.2780  -13.8210 C.2     1  UNL1        0.0010
     17  C         27.1210  -22.8620  -12.5810 C.2     1  UNL1        0.0090
     18  C         26.0740  -23.2160  -11.7110 C.2     1  UNL1       -0.0350
     19  C         26.4380  -23.8620  -10.4030 C.3     1  UNL1        0.0500
     20  C         18.4950  -23.3080   -7.9960 C.2     1  UNL1        0.2560
     21  O         18.7190  -24.4680   -7.6720 O.2     1  UNL1       -0.2670
     22  N         17.6240  -22.4240   -7.3930 N.am    1  UNL1       -0.3220
     23  H         17.6370  -21.4610   -7.7120 H       1  UNL1        0.1690
     24  C         16.7580  -22.6620   -6.3010 C.2     1  UNL1        0.0520
     25  C         15.5600  -23.3730   -6.4160 C.2     1  UNL1        0.0310
     26  C         14.7410  -23.5770   -5.3000 C.2     1  UNL1        0.0020
     27  C         15.1060  -23.0710   -4.0560 C.2     1  UNL1        0.0020
     28  C         16.2930  -22.3550   -3.9210 C.2     1  UNL1        0.0210
     29  C         17.1120  -22.1520   -5.0370 C.2     1  UNL1        0.0370
     30 BR         18.7180  -21.1590   -4.7840 Br      1  UNL1       -0.0490
@<TRIPOS>BOND
     1    15    16    2
     2    15    14    1
     3    16    17    1
     4    14    13    2
     5    17    18    2
     6     7     6    1
     7    13    18    1
     8    13    11    1
     9    12    11    1
    10    18    19    1
    11     5     6    1
    12     5     4    2
    13     6     1    2
    14    11     8    1
    15     4     3    1
    16     1     8    1
    17     1     2    1
    18     9     8    2
    19     8    10    2
    20     3     2    2
    21     3    20    1
    22    20    21    2
    23    20    22   am
    24    23    22    1
    25    22    24    1
    26    25    24    2
    27    25    26    1
    28    24    29    1
    29    26    27    2
    30    29    30    1
    31    29    28    2
    32    27    28    1
