@<TRIPOS>MOLECULE
57901_out_ligand_01.pdbqt
 33 36 0 0 0
SMALL
GASTEIGER

@<TRIPOS>ATOM
      1  C         22.8030  -22.3360  -11.6950 C.2     1  UNL1        0.0860
      2  C         22.1260  -22.9190  -10.6120 C.2     1  UNL1        0.0420
      3  C         20.7490  -22.7410  -10.4630 C.2     1  UNL1        0.0330
      4  C         20.0420  -21.9870  -11.4040 C.2     1  UNL1        0.0170
      5  C         20.7150  -21.3990  -12.4770 C.2     1  UNL1        0.0090
      6  C         22.1020  -21.5650  -12.6460 C.2     1  UNL1       -0.0390
      7  C         22.7580  -20.8920  -13.8200 C.3     1  UNL1        0.0500
      8  C         20.0610  -23.3920   -9.3150 C.2     1  UNL1        0.2560
      9  O         20.4760  -24.4810   -8.9430 O.2     1  UNL1       -0.2670
     10  N         19.0280  -22.6500   -8.7730 N.am    1  UNL1       -0.3220
     11  H         18.9330  -21.7100   -9.1240 H       1  UNL1        0.1690
     12  C         18.1450  -23.0140   -7.7210 C.2     1  UNL1        0.0460
     13  C         17.1560  -23.9870   -7.9130 C.2     1  UNL1        0.0300
     14  C         16.2790  -24.3320   -6.8880 C.2     1  UNL1        0.0030
     15  C         16.3740  -23.7060   -5.6530 C.2     1  UNL1        0.0120
     16  C         17.3460  -22.7250   -5.4200 C.2     1  UNL1       -0.0240
     17  C         17.4100  -22.1120   -4.1570 C.2     1  UNL1        0.0120
     18  C         18.2540  -22.3580   -6.4500 C.2     1  UNL1        0.0010
     19  C         18.3620  -21.1360   -3.8790 C.2     1  UNL1        0.0010
     20  C         19.2630  -20.7600   -4.8620 C.2     1  UNL1        0.0010
     21  C         19.2110  -21.3600   -6.1240 C.2     1  UNL1        0.0140
     22  S         24.5730  -22.6000  -11.7930 S.O2    1  UNL1        0.2630
     23  O         25.1780  -21.4030  -12.3360 O.2     1  UNL1       -0.2000
     24  O         25.0200  -23.1300  -10.5220 O.2     1  UNL1       -0.2000
     25  N         24.7240  -23.7940  -12.9740 N.pl3   1  UNL1       -0.2810
     26  H         24.9760  -24.6990  -12.5850 H       1  UNL1        0.1790
     27  C         25.2240  -23.4540  -14.2620 C.2     1  UNL1        0.0420
     28  C         24.3700  -23.2570  -15.3440 C.2     1  UNL1        0.0300
     29  C         24.8880  -22.8760  -16.5840 C.2     1  UNL1        0.0090
     30  C         26.2670  -22.7090  -16.7560 C.2     1  UNL1       -0.0620
     31  C         26.8160  -22.2580  -18.0780 C.3     1  UNL1        0.0480
     32  C         27.1190  -22.9100  -15.6640 C.2     1  UNL1        0.0090
     33  C         26.6000  -23.2880  -14.4230 C.2     1  UNL1        0.0300
@<TRIPOS>BOND
     1    31    30    1
     2    30    29    2
     3    30    32    1
     4    29    28    1
     5    32    33    2
     6    28    27    2
     7    33    27    1
     8    27    25    1
     9     7     6    1
    10    25    26    1
    11    25    22    1
    12     6     5    1
    13     6     1    2
    14     5     4    2
    15    23    22    2
    16    22     1    1
    17    22    24    2
    18     1     2    1
    19     4     3    1
    20     2     3    2
    21     3     8    1
    22     8     9    2
    23     8    10   am
    24    11    10    1
    25    10    12    1
    26    13    12    2
    27    13    14    1
    28    12    18    1
    29    14    15    2
    30    18    21    1
    31    18    16    2
    32    21    20    2
    33    15    16    1
    34    16    17    1
    35    20    19    1
    36    17    19    2
