@<TRIPOS>MOLECULE
57905_out_ligand_01.pdbqt
 30 32 0 0 0
SMALL
GASTEIGER

@<TRIPOS>ATOM
      1  C         17.7030  -23.4670   -8.5860 C.2     1  UNL1        0.0810
      2  C         19.0690  -23.7710   -8.4640 C.2     1  UNL1        0.0420
      3  C         19.9820  -23.3200   -9.4220 C.2     1  UNL1        0.0330
      4  C         19.5320  -22.5570  -10.5020 C.2     1  UNL1        0.0170
      5  C         18.1730  -22.2590  -10.6270 C.2     1  UNL1        0.0090
      6  C         17.2380  -22.7020   -9.6740 C.2     1  UNL1       -0.0390
      7  C         15.7930  -22.3460   -9.8820 C.3     1  UNL1        0.0500
      8  S         16.6060  -24.1170   -7.3260 S.O2    1  UNL1        0.2460
      9  O         17.4300  -24.7960   -6.3470 O.2     1  UNL1       -0.2060
     10  O         15.5070  -24.7910   -7.9760 O.2     1  UNL1       -0.2060
     11  N         16.0670  -22.6640   -6.6020 N.pl3   1  UNL1       -0.1810
     12  H         16.0410  -21.9510   -7.3340 H       1  UNL1        0.1460
     13  C         16.8920  -22.2230   -5.5070 C.2     1  UNL1        0.0280
     14  C         18.0580  -21.5020   -5.7860 C.2     1  UNL1        0.0250
     15  C         18.9000  -21.0980   -4.7490 C.2     1  UNL1        0.0020
     16  C         18.5820  -21.4210   -3.4330 C.2     1  UNL1        0.0010
     17  C         17.4230  -22.1470   -3.1530 C.2     1  UNL1        0.0080
     18  C         16.5600  -22.5510   -4.1840 C.2     1  UNL1       -0.0400
     19  C         15.3300  -23.3410   -3.8430 C.3     1  UNL1        0.0500
     20  C         21.4220  -23.6450   -9.2370 C.2     1  UNL1        0.2510
     21  O         21.7450  -24.7610   -8.8470 O.2     1  UNL1       -0.2680
     22  N         22.3150  -22.6460   -9.5530 N.am    1  UNL1       -0.3530
     23  H         21.9880  -21.8560  -10.0920 H       1  UNL1        0.1630
     24  C         23.7410  -22.8920   -9.5750 C.3     1  UNL1        0.1610
     25  C         24.3470  -22.3890  -10.8590 C.2     1  UNL1       -0.0410
     26  C         25.3340  -21.3950  -10.8480 C.2     1  UNL1        0.0090
     27  C         25.8730  -20.9190  -12.0450 C.2     1  UNL1        0.0010
     28  C         25.4250  -21.4270  -13.2630 C.2     1  UNL1        0.0000
     29  C         24.4390  -22.4110  -13.2870 C.2     1  UNL1        0.0010
     30  C         23.9010  -22.8890  -12.0920 C.2     1  UNL1        0.0090
@<TRIPOS>BOND
     1    29    28    2
     2    29    30    1
     3    28    27    1
     4    30    25    2
     5    27    26    2
     6    25    26    1
     7    25    24    1
     8     5     4    2
     9     5     6    1
    10     4     3    1
    11    23    22    1
    12     7     6    1
    13     6     1    2
    14    24    22    1
    15    22    20   am
    16     3    20    1
    17     3     2    2
    18    20    21    2
    19     1     2    1
    20     1     8    1
    21    10     8    2
    22    12    11    1
    23     8    11    1
    24     8     9    2
    25    11    13    1
    26    14    13    2
    27    14    15    1
    28    13    18    1
    29    15    16    2
    30    18    19    1
    31    18    17    2
    32    16    17    1
