@<TRIPOS>MOLECULE
57919_out_ligand_01.pdbqt
 33 36 0 0 0
SMALL
GASTEIGER

@<TRIPOS>ATOM
      1  C         19.3510  -22.3040   -6.9580 C.2     1  UNL1        0.0860
      2  C         20.3120  -22.7740   -7.8690 C.2     1  UNL1        0.0420
      3  C         21.5750  -22.1790   -7.9230 C.2     1  UNL1        0.0330
      4  C         21.8890  -21.1290   -7.0570 C.2     1  UNL1        0.0170
      5  C         20.9320  -20.6620   -6.1520 C.2     1  UNL1        0.0090
      6  C         19.6530  -21.2420   -6.0830 C.2     1  UNL1       -0.0390
      7  C         18.6720  -20.6770   -5.0930 C.3     1  UNL1        0.0500
      8  C         22.5760  -22.7110   -8.8880 C.2     1  UNL1        0.2560
      9  O         22.8610  -23.9000   -8.8220 O.2     1  UNL1       -0.2670
     10  N         23.0610  -21.7780   -9.7840 N.am    1  UNL1       -0.3230
     11  H         22.6290  -20.8620   -9.7730 H       1  UNL1        0.1690
     12  C         24.0400  -21.9770  -10.7820 C.2     1  UNL1        0.0350
     13  C         25.1770  -21.1630  -10.7280 C.2     1  UNL1        0.0300
     14  C         26.1990  -21.3010  -11.6720 C.2     1  UNL1        0.0140
     15  C         26.1040  -22.2590  -12.6910 C.2     1  UNL1       -0.0260
     16  C         27.1210  -22.4140  -13.6490 C.2     1  UNL1        0.0120
     17  C         24.9600  -23.0840  -12.7550 C.2     1  UNL1       -0.0240
     18  C         27.0090  -23.3730  -14.6580 C.2     1  UNL1        0.0010
     19  C         25.8810  -24.1840  -14.7220 C.2     1  UNL1        0.0010
     20  C         24.8640  -24.0420  -13.7780 C.2     1  UNL1        0.0120
     21  C         23.9420  -22.9320  -11.7950 C.2     1  UNL1        0.0420
     22  S         17.7470  -23.0910   -6.9820 S.O2    1  UNL1        0.2630
     23  O         17.8180  -24.2630   -6.1350 O.2     1  UNL1       -0.2000
     24  O         16.7280  -22.0910   -6.7510 O.2     1  UNL1       -0.2000
     25  N         17.6260  -23.6570   -8.5730 N.pl3   1  UNL1       -0.2810
     26  H         16.8690  -24.3350   -8.6490 H       1  UNL1        0.1790
     27  C         17.7430  -22.7030   -9.6210 C.2     1  UNL1        0.0430
     28  C         16.6400  -21.9290   -9.9750 C.2     1  UNL1        0.0300
     29  C         16.7410  -21.0220  -11.0290 C.2     1  UNL1        0.0030
     30  C         17.9400  -20.8990  -11.7330 C.2     1  UNL1        0.0070
     31  C         19.0450  -21.6920  -11.3990 C.2     1  UNL1       -0.0600
     32  C         20.3360  -21.5500  -12.1470 C.3     1  UNL1        0.0480
     33  C         18.9400  -22.5900  -10.3280 C.2     1  UNL1        0.0370
@<TRIPOS>BOND
     1    19    18    2
     2    19    20    1
     3    18    16    1
     4    20    17    2
     5    16    15    2
     6    17    15    1
     7    17    21    1
     8    15    14    1
     9    32    31    1
    10    21    12    2
    11    30    31    2
    12    30    29    1
    13    14    13    2
    14    31    33    1
    15    29    28    2
    16    12    13    1
    17    12    10    1
    18    33    27    2
    19    28    27    1
    20    10    11    1
    21    10     8   am
    22    27    25    1
    23     8     9    2
    24     8     3    1
    25    26    25    1
    26    25    22    1
    27     3     2    1
    28     3     4    2
    29     2     1    2
    30     4     5    1
    31    22     1    1
    32    22    24    2
    33    22    23    2
    34     1     6    1
    35     5     6    2
    36     6     7    1
