@<TRIPOS>MOLECULE
57916_out_ligand_01.pdbqt
 30 32 0 0 0
SMALL
GASTEIGER

@<TRIPOS>ATOM
      1  C         17.6740  -23.3230   -8.8920 C.2     1  UNL1        0.0860
      2  C         19.0710  -23.4720   -8.9320 C.2     1  UNL1        0.0420
      3  C         19.8150  -22.8670   -9.9480 C.2     1  UNL1        0.0330
      4  C         19.1630  -22.1200  -10.9340 C.2     1  UNL1        0.0170
      5  C         17.7750  -21.9630  -10.8870 C.2     1  UNL1        0.0090
      6  C         17.0070  -22.5610   -9.8720 C.2     1  UNL1       -0.0390
      7  C         15.5210  -22.3290   -9.8830 C.3     1  UNL1        0.0500
      8  S         16.8140  -24.1060   -7.5270 S.O2    1  UNL1        0.2630
      9  O         17.7900  -24.7880   -6.7040 O.2     1  UNL1       -0.2000
     10  O         15.6880  -24.8380   -8.0700 O.2     1  UNL1       -0.2000
     11  N         16.2550  -22.7990   -6.6210 N.pl3   1  UNL1       -0.2800
     12  H         15.2410  -22.7580   -6.5710 H       1  UNL1        0.1790
     13  C         17.0190  -22.2940   -5.5280 C.2     1  UNL1        0.0480
     14  C         18.1280  -21.4770   -5.7720 C.2     1  UNL1        0.0300
     15  C         18.9080  -21.0050   -4.7170 C.2     1  UNL1        0.0020
     16  C         18.5780  -21.3380   -3.4080 C.2     1  UNL1        0.0010
     17  C         17.4600  -22.1330   -3.1530 C.2     1  UNL1        0.0090
     18  C         16.6620  -22.6130   -4.2060 C.2     1  UNL1       -0.0350
     19  C         15.4740  -23.4720   -3.8780 C.3     1  UNL1        0.0500
     20  C         21.2900  -23.0640   -9.9680 C.2     1  UNL1        0.2560
     21  O         21.7780  -23.8490   -9.1660 O.2     1  UNL1       -0.2670
     22  N         21.9630  -22.2930  -10.8980 N.am    1  UNL1       -0.3230
     23  H         21.4190  -21.6000  -11.3970 H       1  UNL1        0.1690
     24  C         23.3490  -22.2970  -11.1700 C.2     1  UNL1        0.0360
     25  C         24.2780  -21.5050  -10.4910 C.2     1  UNL1        0.0290
     26  C         25.6370  -21.5680  -10.8140 C.2     1  UNL1        0.0040
     27  C         26.0810  -22.4260  -11.8170 C.2     1  UNL1        0.0240
     28  C         25.1600  -23.2200  -12.4930 C.2     1  UNL1        0.0360
     29 CL         25.6980  -24.2870  -13.7320 Cl      1  UNL1       -0.0840
     30  C         23.8020  -23.1600  -12.1750 C.2     1  UNL1        0.0530
@<TRIPOS>BOND
     1    29    28    1
     2    28    30    1
     3    28    27    2
     4    30    24    2
     5    27    26    1
     6    23    22    1
     7    24    22    1
     8    24    25    1
     9     4     5    2
    10     4     3    1
    11    22    20   am
    12     5     6    1
    13    26    25    2
    14    20     3    1
    15    20    21    2
    16     3     2    2
    17     7     6    1
    18     6     1    2
    19     2     1    1
    20     1     8    1
    21    10     8    2
    22     8     9    2
    23     8    11    1
    24    11    12    1
    25    11    13    1
    26    14    13    2
    27    14    15    1
    28    13    18    1
    29    15    16    2
    30    18    19    1
    31    18    17    2
    32    16    17    1
