@<TRIPOS>MOLECULE
57911_out_ligand_01.pdbqt
 37 40 0 0 0
SMALL
GASTEIGER

@<TRIPOS>ATOM
      1  C         17.4940  -22.9930   -9.1280 C.2     1  UNL1        0.0860
      2  C         18.8730  -22.9150   -9.3890 C.2     1  UNL1        0.0420
      3  C         19.3480  -22.1390  -10.4480 C.2     1  UNL1        0.0330
      4  C         18.4470  -21.4310  -11.2480 C.2     1  UNL1        0.0170
      5  C         17.0750  -21.5180  -10.9970 C.2     1  UNL1        0.0090
      6  C         16.5740  -22.2940   -9.9350 C.2     1  UNL1       -0.0390
      7  C         15.0850  -22.3470   -9.7420 C.3     1  UNL1        0.0500
      8  C         20.8180  -22.0610  -10.6750 C.2     1  UNL1        0.2560
      9  O         21.5560  -22.1250   -9.7010 O.2     1  UNL1       -0.2670
     10  N         21.1910  -21.9560  -12.0030 N.am    1  UNL1       -0.3230
     11  H         20.4610  -22.0580  -12.6950 H       1  UNL1        0.1690
     12  C         22.4990  -21.8170  -12.5130 C.2     1  UNL1        0.0350
     13  C         23.6450  -22.2680  -11.8540 C.2     1  UNL1        0.0320
     14  C         24.9100  -22.0850  -12.4240 C.2     1  UNL1        0.0390
     15  C         25.0340  -21.4610  -13.6630 C.2     1  UNL1        0.0760
     16  C         23.9010  -20.9820  -14.3190 C.2     1  UNL1        0.0390
     17  C         22.6380  -21.1670  -13.7470 C.2     1  UNL1        0.0320
     18  O         26.3070  -21.2830  -14.1530 O.2     1  UNL1       -0.3110
     19  C         26.5410  -20.1460  -14.8950 C.2     1  UNL1        0.0760
     20  C         26.6550  -20.3040  -16.2760 C.2     1  UNL1        0.0370
     21  C         26.8590  -19.1880  -17.0890 C.2     1  UNL1        0.0030
     22  C         26.9330  -17.9160  -16.5210 C.2     1  UNL1        0.0000
     23  C         26.7950  -17.7570  -15.1410 C.2     1  UNL1        0.0030
     24  C         26.5910  -18.8710  -14.3260 C.2     1  UNL1        0.0370
     25  S         16.9850  -24.0370   -7.7630 S.O2    1  UNL1        0.2630
     26  O         18.1730  -24.6300   -7.1860 O.2     1  UNL1       -0.2000
     27  O         15.9030  -24.8840   -8.2170 O.2     1  UNL1       -0.2000
     28  N         16.3090  -22.9460   -6.6700 N.pl3   1  UNL1       -0.2800
     29  H         15.5880  -22.3670   -7.0900 H       1  UNL1        0.1790
     30  C         17.0920  -22.4040   -5.6070 C.2     1  UNL1        0.0490
     31  C         16.7860  -22.7190   -4.2710 C.2     1  UNL1       -0.0350
     32  C         17.5370  -22.1210   -3.2480 C.2     1  UNL1        0.0090
     33  C         15.6610  -23.6410   -3.8980 C.3     1  UNL1        0.0500
     34  C         18.5840  -21.2450   -3.5430 C.2     1  UNL1        0.0070
     35  C         18.9150  -20.9650   -4.8690 C.2     1  UNL1       -0.0600
     36  C         20.0130  -19.9960   -5.1940 C.3     1  UNL1        0.0480
     37  C         18.1620  -21.5500   -5.8950 C.2     1  UNL1        0.0370
@<TRIPOS>BOND
     1    21    22    2
     2    21    20    1
     3    22    23    1
     4    20    19    2
     5    23    24    2
     6    19    24    1
     7    19    18    1
     8    16    17    1
     9    16    15    2
    10    18    15    1
    11    17    12    2
    12    15    14    1
    13    11    10    1
    14    12    10    1
    15    12    13    1
    16    14    13    2
    17    10     8   am
    18     4     5    2
    19     4     3    1
    20     5     6    1
    21     8     3    1
    22     8     9    2
    23     3     2    2
    24     6     7    1
    25     6     1    2
    26     2     1    1
    27     1    25    1
    28    27    25    2
    29    25    26    2
    30    25    28    1
    31    29    28    1
    32    28    30    1
    33    37    30    2
    34    37    35    1
    35    30    31    1
    36    36    35    1
    37    35    34    2
    38    31    33    1
    39    31    32    2
    40    34    32    1
