@<TRIPOS>MOLECULE
57912_out_ligand_01.pdbqt
 31 33 0 0 0
SMALL
GASTEIGER

@<TRIPOS>ATOM
      1  C         17.6360  -23.4130   -8.8150 C.2     1  UNL1        0.1020
      2  C         19.0340  -23.5450   -8.8680 C.2     1  UNL1        0.0440
      3  C         19.7610  -22.9310   -9.8940 C.2     1  UNL1        0.0340
      4  C         19.0980  -22.1440  -10.8400 C.2     1  UNL1        0.0190
      5  C         17.7090  -22.0030  -10.7730 C.2     1  UNL1        0.0260
      6  C         16.9690  -22.6400   -9.7680 C.2     1  UNL1        0.0570
      7 CL         15.2570  -22.4260   -9.8260 Cl      1  UNL1       -0.0830
      8  S         16.7690  -24.2540   -7.5130 S.O2    1  UNL1        0.2650
      9  O         15.6480  -24.9550   -8.1030 O.2     1  UNL1       -0.2000
     10  O         17.7330  -24.9830   -6.7180 O.2     1  UNL1       -0.2000
     11  N         16.1840  -22.9930   -6.5560 N.pl3   1  UNL1       -0.2800
     12  H         15.1770  -23.0520   -6.4250 H       1  UNL1        0.1790
     13  C         16.9860  -22.4010   -5.5310 C.2     1  UNL1        0.0490
     14  C         16.6880  -22.6420   -4.1770 C.2     1  UNL1       -0.0350
     15  C         17.5210  -22.0880   -3.1890 C.2     1  UNL1        0.0090
     16  C         15.5340  -23.4970   -3.7370 C.3     1  UNL1        0.0500
     17  C         18.6030  -21.2760   -3.5330 C.2     1  UNL1        0.0070
     18  C         18.8610  -20.9810   -4.8700 C.2     1  UNL1       -0.0600
     19  C         20.0240  -20.1150   -5.2540 C.3     1  UNL1        0.0480
     20  C         18.0470  -21.5480   -5.8610 C.2     1  UNL1        0.0370
     21  C         21.2380  -23.1170   -9.9300 C.2     1  UNL1        0.2560
     22  O         21.7340  -23.9310   -9.1620 O.2     1  UNL1       -0.2670
     23  N         21.8950  -22.3560  -10.8800 N.am    1  UNL1       -0.3230
     24  H         21.3200  -21.8240  -11.5210 H       1  UNL1        0.1690
     25  C         23.2840  -22.3080  -11.1250 C.2     1  UNL1        0.0360
     26  C         24.1780  -21.5200  -10.3980 C.2     1  UNL1        0.0290
     27  C         25.5430  -21.5250  -10.7030 C.2     1  UNL1        0.0040
     28  C         26.0270  -22.3170  -11.7420 C.2     1  UNL1        0.0190
     29  C         25.1400  -23.1010  -12.4730 C.2     1  UNL1        0.0130
     30 BR         25.7850  -24.1770  -13.8880 Br      1  UNL1       -0.0510
     31  C         23.7760  -23.0990  -12.1720 C.2     1  UNL1        0.0480
@<TRIPOS>BOND
     1    30    29    1
     2    29    31    1
     3    29    28    2
     4    31    25    2
     5    28    27    1
     6    24    23    1
     7    25    23    1
     8    25    26    1
     9    23    21   am
    10     4     5    2
    11     4     3    1
    12     5     6    1
    13    27    26    2
    14    21     3    1
    15    21    22    2
    16     3     2    2
    17     7     6    1
    18     6     1    2
    19     2     1    1
    20     1     8    1
    21     9     8    2
    22     8    10    2
    23     8    11    1
    24    11    12    1
    25    11    13    1
    26    20    13    2
    27    20    18    1
    28    13    14    1
    29    19    18    1
    30    18    17    2
    31    14    16    1
    32    14    15    2
    33    17    15    1
