@<TRIPOS>MOLECULE
57917_out_ligand_01.pdbqt
 30 32 0 0 0
SMALL
GASTEIGER

@<TRIPOS>ATOM
      1  C         18.5780  -22.7240   -9.6740 C.2     1  UNL1        0.0860
      2  C         19.8700  -22.5820  -10.2040 C.2     1  UNL1        0.0420
      3  C         20.0770  -21.8060  -11.3470 C.2     1  UNL1        0.0330
      4  C         18.9950  -21.1800  -11.9710 C.2     1  UNL1        0.0170
      5  C         17.7090  -21.3220  -11.4430 C.2     1  UNL1        0.0090
      6  C         17.4760  -22.0970  -10.2930 C.2     1  UNL1       -0.0390
      7  C         16.0670  -22.1970   -9.7780 C.3     1  UNL1        0.0500
      8  S         18.4050  -23.7010   -8.1880 S.O2    1  UNL1        0.2630
      9  O         19.6490  -24.4110   -7.9760 O.2     1  UNL1       -0.2000
     10  O         17.1570  -24.4300   -8.2490 O.2     1  UNL1       -0.2000
     11  N         18.3120  -22.5270   -6.9730 N.pl3   1  UNL1       -0.2810
     12  H         19.2430  -22.3150   -6.6150 H       1  UNL1        0.1790
     13  C         17.2690  -22.6550   -6.0140 C.2     1  UNL1        0.0430
     14  C         17.5230  -23.2810   -4.7960 C.2     1  UNL1        0.0300
     15  C         16.5130  -23.3680   -3.8380 C.2     1  UNL1        0.0030
     16  C         15.2540  -22.8220   -4.0970 C.2     1  UNL1        0.0070
     17  C         15.0000  -22.1710   -5.3100 C.2     1  UNL1       -0.0600
     18  C         13.6440  -21.5950   -5.5930 C.3     1  UNL1        0.0480
     19  C         16.0150  -22.0990   -6.2740 C.2     1  UNL1        0.0370
     20  C         21.4540  -21.6950  -11.8980 C.2     1  UNL1        0.2560
     21  O         21.6110  -21.0650  -12.9350 O.2     1  UNL1       -0.2670
     22  N         22.4200  -22.3610  -11.1680 N.am    1  UNL1       -0.3230
     23  H         22.0970  -22.9390  -10.4020 H       1  UNL1        0.1690
     24  C         23.8080  -22.4030  -11.4230 C.2     1  UNL1        0.0360
     25  C         24.6160  -21.5090  -10.7070 C.2     1  UNL1        0.0290
     26  C         25.9990  -21.4790  -10.9020 C.2     1  UNL1        0.0040
     27  C         26.5880  -22.3440  -11.8220 C.2     1  UNL1        0.0240
     28  C         25.7880  -23.2310  -12.5390 C.2     1  UNL1        0.0360
     29 CL         26.5200  -24.2950  -13.6790 Cl      1  UNL1       -0.0840
     30  C         24.4050  -23.2650  -12.3460 C.2     1  UNL1        0.0530
@<TRIPOS>BOND
     1    29    28    1
     2    21    20    2
     3    28    30    1
     4    28    27    2
     5    30    24    2
     6     4     5    2
     7     4     3    1
     8    20     3    1
     9    20    22   am
    10    27    26    1
    11     5     6    1
    12    24    22    1
    13    24    25    1
    14     3     2    2
    15    22    23    1
    16    26    25    2
    17     6     7    1
    18     6     1    2
    19     2     1    1
    20     1     8    1
    21    10     8    2
    22     8     9    2
    23     8    11    1
    24    11    12    1
    25    11    13    1
    26    19    13    2
    27    19    17    1
    28    13    14    1
    29    18    17    1
    30    17    16    2
    31    14    15    2
    32    16    15    1
