@<TRIPOS>MOLECULE
57929_out_ligand_01.pdbqt
 33 36 0 0 0
SMALL
GASTEIGER

@<TRIPOS>ATOM
      1  C         17.5310  -23.0190   -9.0830 C.2     1  UNL1        0.0860
      2  C         18.9260  -22.9960   -9.2560 C.2     1  UNL1        0.0420
      3  C         19.5000  -22.2650  -10.2980 C.2     1  UNL1        0.0330
      4  C         18.6820  -21.5540  -11.1770 C.2     1  UNL1        0.0170
      5  C         17.2930  -21.6000  -11.0240 C.2     1  UNL1        0.0090
      6  C         16.6920  -22.3350   -9.9830 C.2     1  UNL1       -0.0390
      7  C         15.1920  -22.3400   -9.9060 C.3     1  UNL1        0.0500
      8  C         20.9840  -22.2240  -10.4000 C.2     1  UNL1        0.2560
      9  O         21.6230  -22.1120   -9.3610 O.2     1  UNL1       -0.2670
     10  N         21.4810  -22.3500  -11.6830 N.am    1  UNL1       -0.3230
     11  H         20.8160  -22.5640  -12.4140 H       1  UNL1        0.1690
     12  C         22.8330  -22.2990  -12.0850 C.2     1  UNL1        0.0350
     13  C         23.8630  -22.9750  -11.4370 C.2     1  UNL1        0.0300
     14  C         25.1820  -22.8660  -11.8930 C.2     1  UNL1        0.0140
     15  C         25.4960  -22.0760  -13.0080 C.2     1  UNL1       -0.0260
     16  C         26.8150  -21.9590  -13.4760 C.2     1  UNL1        0.0120
     17  C         24.4600  -21.3850  -13.6720 C.2     1  UNL1       -0.0240
     18  C         27.1090  -21.1680  -14.5870 C.2     1  UNL1        0.0010
     19  C         26.0890  -20.4860  -15.2440 C.2     1  UNL1        0.0010
     20  C         24.7730  -20.5940  -14.7910 C.2     1  UNL1        0.0120
     21  C         23.1400  -21.5060  -13.2010 C.2     1  UNL1        0.0420
     22  S         16.9420  -23.9740   -7.6870 S.O2    1  UNL1        0.2630
     23  O         18.1180  -24.5030   -7.0240 O.2     1  UNL1       -0.2000
     24  O         15.8800  -24.8620   -8.1040 O.2     1  UNL1       -0.2000
     25  N         16.3140  -22.7990   -6.6530 N.pl3   1  UNL1       -0.2800
     26  H         15.3020  -22.8620   -6.5650 H       1  UNL1        0.1790
     27  C         17.0670  -22.3240   -5.5390 C.2     1  UNL1        0.0480
     28  C         18.1490  -21.4620   -5.7440 C.2     1  UNL1        0.0300
     29  C         18.9040  -20.9980   -4.6670 C.2     1  UNL1        0.0020
     30  C         18.5720  -21.3830   -3.3720 C.2     1  UNL1        0.0010
     31  C         17.4780  -22.2200   -3.1550 C.2     1  UNL1        0.0090
     32  C         16.7060  -22.6920   -4.2300 C.2     1  UNL1       -0.0350
     33  C         15.5220  -23.5720   -3.9370 C.3     1  UNL1        0.0500
@<TRIPOS>BOND
     1    19    20    2
     2    19    18    1
     3    20    17    1
     4    18    16    2
     5    17    21    1
     6    17    15    2
     7    16    15    1
     8    21    12    2
     9    15    14    1
    10    11    10    1
    11    12    10    1
    12    12    13    1
    13    14    13    2
    14    10     8   am
    15     4     5    2
    16     4     3    1
    17     5     6    1
    18     8     3    1
    19     8     9    2
    20     3     2    2
    21     6     7    1
    22     6     1    2
    23     2     1    1
    24     1    22    1
    25    24    22    2
    26    22    23    2
    27    22    25    1
    28    25    26    1
    29    25    27    1
    30    28    27    2
    31    28    29    1
    32    27    32    1
    33    29    30    2
    34    32    33    1
    35    32    31    2
    36    30    31    1
