@<TRIPOS>MOLECULE
57922_out_ligand_01.pdbqt
 30 32 0 0 0
SMALL
GASTEIGER

@<TRIPOS>ATOM
      1  C         20.0440  -21.7860  -11.3400 C.2     1  UNL1        0.0330
      2  C         18.9650  -21.1530  -11.9630 C.2     1  UNL1        0.0170
      3  C         17.6780  -21.2860  -11.4350 C.2     1  UNL1        0.0090
      4  C         17.4410  -22.0660  -10.2880 C.2     1  UNL1       -0.0390
      5  C         16.0310  -22.1570   -9.7720 C.3     1  UNL1        0.0500
      6  C         18.5380  -22.7020   -9.6720 C.2     1  UNL1        0.0860
      7  C         19.8320  -22.5660  -10.2010 C.2     1  UNL1        0.0420
      8  S         18.3600  -23.6860   -8.1920 S.O2    1  UNL1        0.2630
      9  O         17.1000  -24.3950   -8.2460 O.2     1  UNL1       -0.2000
     10  O         19.5940  -24.4170   -7.9950 O.2     1  UNL1       -0.2000
     11  N         18.2950  -22.5200   -6.9670 N.pl3   1  UNL1       -0.2810
     12  H         19.2320  -22.3280   -6.6140 H       1  UNL1        0.1790
     13  C         17.2550  -22.6360   -6.0030 C.2     1  UNL1        0.0430
     14  C         17.5230  -23.2150   -4.7640 C.2     1  UNL1        0.0300
     15  C         16.5200  -23.2750   -3.7970 C.2     1  UNL1        0.0030
     16  C         15.2540  -22.7570   -4.0710 C.2     1  UNL1        0.0070
     17  C         14.9750  -22.1790   -5.3150 C.2     1  UNL1       -0.0600
     18  C         13.6300  -21.5740   -5.5880 C.3     1  UNL1        0.0480
     19  C         15.9920  -22.1080   -6.2770 C.2     1  UNL1        0.0370
     20  C         21.4210  -21.6820  -11.8910 C.2     1  UNL1        0.2560
     21  N         22.3900  -22.3180  -11.1380 N.am    1  UNL1       -0.3230
     22  H         22.0710  -22.8730  -10.3550 H       1  UNL1        0.1690
     23  O         21.5730  -21.0780  -12.9460 O.2     1  UNL1       -0.2670
     24  C         23.7790  -22.3580  -11.3840 C.2     1  UNL1        0.0350
     25  C         24.5820  -21.4730  -10.6550 C.2     1  UNL1        0.0290
     26  C         25.9660  -21.4500  -10.8400 C.2     1  UNL1        0.0030
     27  C         26.5600  -22.3090  -11.7620 C.2     1  UNL1        0.0070
     28  C         25.7740  -23.1880  -12.5120 C.2     1  UNL1       -0.0600
     29  C         26.4100  -24.1410  -13.4810 C.3     1  UNL1        0.0480
     30  C         24.3840  -23.2130  -12.3080 C.2     1  UNL1        0.0360
@<TRIPOS>BOND
     1    29    28    1
     2    23    20    2
     3    28    30    1
     4    28    27    2
     5    30    24    2
     6     2     3    1
     7     2     1    2
     8    20     1    1
     9    20    21   am
    10    27    26    1
    11     3     4    2
    12    24    21    1
    13    24    25    1
    14     1     7    1
    15    21    22    1
    16    26    25    2
    17     4     5    1
    18     4     6    1
    19     7     6    2
    20     6     8    1
    21     9     8    2
    22     8    10    2
    23     8    11    1
    24    11    12    1
    25    11    13    1
    26    19    13    2
    27    19    17    1
    28    13    14    1
    29    18    17    1
    30    17    16    2
    31    14    15    2
    32    16    15    1
