@<TRIPOS>MOLECULE
57920_out_ligand_01.pdbqt
 31 33 0 0 0
SMALL
GASTEIGER

@<TRIPOS>ATOM
      1  C         17.5870  -23.3770   -8.8860 C.2     1  UNL1        0.0810
      2  C         18.9730  -23.5830   -8.9500 C.2     1  UNL1        0.0420
      3  C         19.7280  -22.9700   -9.9550 C.2     1  UNL1        0.0330
      4  C         19.1000  -22.1400  -10.8890 C.2     1  UNL1        0.0170
      5  C         17.7190  -21.9410  -10.8260 C.2     1  UNL1        0.0090
      6  C         16.9400  -22.5480   -9.8260 C.2     1  UNL1       -0.0390
      7  C         15.4560  -22.2980   -9.8270 C.3     1  UNL1        0.0500
      8  S         16.6850  -24.2150   -7.5860 S.O2    1  UNL1        0.2460
      9  O         15.6240  -24.9770   -8.2040 O.2     1  UNL1       -0.2060
     10  O         17.6550  -24.8430   -6.7140 O.2     1  UNL1       -0.2060
     11  N         16.0540  -22.8730   -6.7430 N.pl3   1  UNL1       -0.1810
     12  H         15.8490  -22.1390   -7.4190 H       1  UNL1        0.1460
     13  C         16.8820  -22.3980   -5.6670 C.2     1  UNL1        0.0290
     14  C         16.5870  -22.6980   -4.3270 C.2     1  UNL1       -0.0400
     15  C         17.4280  -22.1890   -3.3250 C.2     1  UNL1        0.0090
     16  C         15.4110  -23.5430   -3.9290 C.3     1  UNL1        0.0500
     17  C         18.5300  -21.3930   -3.6470 C.2     1  UNL1        0.0070
     18  C         18.8080  -21.0760   -4.9790 C.2     1  UNL1       -0.0600
     19  C         20.0020  -20.2400   -5.3320 C.3     1  UNL1        0.0480
     20  C         17.9840  -21.5940   -5.9840 C.2     1  UNL1        0.0310
     21  C         21.2010  -23.1920   -9.9750 C.2     1  UNL1        0.2560
     22  O         21.6730  -23.9760   -9.1620 O.2     1  UNL1       -0.2670
     23  N         21.8780  -22.4890  -10.9510 N.am    1  UNL1       -0.3220
     24  H         21.3270  -21.9670  -11.6230 H       1  UNL1        0.1690
     25  C         23.2700  -22.4700  -11.2000 C.2     1  UNL1        0.0520
     26  C         24.2150  -22.9730  -10.3010 C.2     1  UNL1        0.0310
     27  C         25.5810  -22.9240  -10.5990 C.2     1  UNL1        0.0020
     28  C         26.0220  -22.3690  -11.7980 C.2     1  UNL1        0.0020
     29  C         25.0960  -21.8580  -12.7040 C.2     1  UNL1        0.0210
     30  C         23.7310  -21.9080  -12.4060 C.2     1  UNL1        0.0370
     31 BR         22.5210  -21.1860  -13.6870 Br      1  UNL1       -0.0490
@<TRIPOS>BOND
     1    31    30    1
     2    29    30    1
     3    29    28    2
     4    30    25    2
     5    28    27    1
     6    24    23    1
     7    25    23    1
     8    25    26    1
     9    23    21   am
    10     4     5    2
    11     4     3    1
    12     5     6    1
    13    27    26    2
    14    21     3    1
    15    21    22    2
    16     3     2    2
    17     7     6    1
    18     6     1    2
    19     2     1    1
    20     1     8    1
    21     9     8    2
    22     8    11    1
    23     8    10    2
    24    12    11    1
    25    11    13    1
    26    20    13    2
    27    20    18    1
    28    13    14    1
    29    19    18    1
    30    18    17    2
    31    14    16    1
    32    14    15    2
    33    17    15    1
