@<TRIPOS>MOLECULE
57923_out_ligand_01.pdbqt
 36 40 0 0 0
SMALL
GASTEIGER

@<TRIPOS>ATOM
      1  C         20.6170  -22.7050  -10.6260 C.2     1  UNL1        0.0420
      2  C         19.5670  -21.8730  -11.0190 C.2     1  UNL1        0.0310
      3  C         18.3020  -22.0250  -10.4480 C.2     1  UNL1        0.0270
      4  C         18.1010  -23.0050   -9.4710 C.2     1  UNL1        0.0800
      5  C         19.1480  -23.8470   -9.0790 C.2     1  UNL1        0.0270
      6  C         20.4090  -23.6900   -9.6560 C.2     1  UNL1        0.0310
      7  N         21.9000  -22.5930  -11.2290 N.pl3   1  UNL1       -0.2810
      8  H         21.9560  -22.1900  -12.1630 H       1  UNL1        0.1790
      9  S         23.2240  -22.1460  -10.2770 S.O2    1  UNL1        0.2630
     10  O         22.8480  -21.0470   -9.4140 O.2     1  UNL1       -0.2000
     11  O         23.7590  -23.3770   -9.7360 O.2     1  UNL1       -0.2000
     12  C         24.3880  -21.5390  -11.4770 C.2     1  UNL1        0.0800
     13  C         25.6180  -21.0330  -11.0570 C.2     1  UNL1        0.0260
     14  C         26.5190  -20.5460  -12.0050 C.2     1  UNL1        0.0140
     15  C         26.2060  -20.5750  -13.3740 C.2     1  UNL1       -0.0260
     16  C         27.1020  -20.0840  -14.3360 C.2     1  UNL1        0.0120
     17  C         24.9650  -21.1120  -13.7950 C.2     1  UNL1       -0.0250
     18  C         26.7830  -20.1250  -15.6940 C.2     1  UNL1        0.0010
     19  C         25.5650  -20.6570  -16.1080 C.2     1  UNL1        0.0010
     20  C         24.6610  -21.1480  -15.1650 C.2     1  UNL1        0.0120
     21  C         24.0630  -21.5980  -12.8360 C.2     1  UNL1        0.0370
     22  S         16.4890  -23.2240   -8.7590 S.O2    1  UNL1        0.2630
     23  O         15.7400  -24.0820   -9.6550 O.2     1  UNL1       -0.2000
     24  O         15.9750  -21.9300   -8.3690 O.2     1  UNL1       -0.2000
     25  N         16.8150  -24.1590   -7.3910 N.pl3   1  UNL1       -0.2800
     26  H         16.4870  -25.1170   -7.5100 H       1  UNL1        0.1790
     27  C         16.6240  -23.5640   -6.1060 C.2     1  UNL1        0.0530
     28  C         15.5330  -24.0040   -5.3510 C.2     1  UNL1        0.0310
     29  C         15.3000  -23.4750   -4.0860 C.2     1  UNL1        0.0030
     30  C         16.1570  -22.5040   -3.5730 C.2     1  UNL1        0.0120
     31  C         17.2610  -22.0490   -4.3130 C.2     1  UNL1       -0.0240
     32  C         18.1150  -21.0690   -3.7800 C.2     1  UNL1        0.0120
     33  C         17.5150  -22.5830   -5.6010 C.2     1  UNL1        0.0010
     34  C         19.2190  -20.6120   -4.4990 C.2     1  UNL1        0.0010
     35  C         19.4860  -21.1310   -5.7590 C.2     1  UNL1        0.0010
     36  C         18.6460  -22.1040   -6.3050 C.2     1  UNL1        0.0140
@<TRIPOS>BOND
     1    19    18    2
     2    19    20    1
     3    18    16    1
     4    20    17    2
     5    16    15    2
     6    17    15    1
     7    17    21    1
     8    15    14    1
     9    21    12    2
    10     8     7    1
    11    14    13    2
    12    12    13    1
    13    12     9    1
    14     7     1    1
    15     7     9    1
    16     2     1    2
    17     2     3    1
    18     1     6    1
    19     3     4    2
    20     9    11    2
    21     9    10    2
    22     6     5    2
    23    23    22    2
    24     4     5    1
    25     4    22    1
    26    22    24    2
    27    22    25    1
    28    26    25    1
    29    25    27    1
    30    36    35    2
    31    36    33    1
    32    27    33    2
    33    27    28    1
    34    35    34    1
    35    33    31    1
    36    28    29    2
    37    34    32    2
    38    31    32    1
    39    31    30    2
    40    29    30    1
