@<TRIPOS>MOLECULE
57934_out_ligand_01.pdbqt
 31 33 0 0 0
SMALL
GASTEIGER

@<TRIPOS>ATOM
      1  C         20.0030  -21.8340  -11.2670 C.2     1  UNL1        0.0330
      2  C         18.9190  -21.2210  -11.9030 C.2     1  UNL1        0.0170
      3  C         17.6290  -21.3750  -11.3890 C.2     1  UNL1        0.0090
      4  C         17.3890  -22.1560  -10.2440 C.2     1  UNL1       -0.0390
      5  C         15.9750  -22.2610   -9.7440 C.3     1  UNL1        0.0500
      6  C         18.4890  -22.7790   -9.6190 C.2     1  UNL1        0.0860
      7  C         19.7870  -22.6160  -10.1310 C.2     1  UNL1        0.0420
      8  C         21.3890  -21.7030  -11.7930 C.2     1  UNL1        0.2560
      9  N         22.3590  -22.3180  -11.0230 N.am    1  UNL1       -0.3230
     10  H         22.0400  -22.8810  -10.2440 H       1  UNL1        0.1690
     11  O         21.5520  -21.1020  -12.8470 O.2     1  UNL1       -0.2670
     12  C         23.7520  -22.3280  -11.2480 C.2     1  UNL1        0.0370
     13  C         24.6370  -21.3970  -10.7070 C.2     1  UNL1        0.0290
     14  C         26.0050  -21.4840  -10.9780 C.2     1  UNL1        0.0050
     15  C         26.5030  -22.5050  -11.7900 C.2     1  UNL1        0.0370
     16  C         25.6310  -23.4450  -12.3350 C.2     1  UNL1        0.0700
     17  C         24.2610  -23.3510  -12.0600 C.2     1  UNL1        0.0660
     18  O         25.9790  -24.4930  -13.1420 O.2     1  UNL1       -0.3560
     19  C         25.5840  -24.4110  -14.5070 C.3     1  UNL1        0.2100
     20  S         18.3110  -23.7820   -8.1440 S.O2    1  UNL1        0.2630
     21  O         17.0240  -24.4400   -8.1970 O.2     1  UNL1       -0.2000
     22  O         19.5210  -24.5590   -7.9810 O.2     1  UNL1       -0.2000
     23  N         18.3010  -22.6430   -6.8990 N.pl3   1  UNL1       -0.2810
     24  H         18.6440  -21.7340   -7.1980 H       1  UNL1        0.1790
     25  C         17.2700  -22.6820   -5.9190 C.2     1  UNL1        0.0430
     26  C         17.4690  -23.2930   -4.6820 C.2     1  UNL1        0.0300
     27  C         16.4260  -23.3480   -3.7590 C.2     1  UNL1        0.0030
     28  C         15.1850  -22.7910   -4.0690 C.2     1  UNL1        0.0070
     29  C         14.9740  -22.1770   -5.3090 C.2     1  UNL1       -0.0600
     30  C         13.6510  -21.5490   -5.6300 C.3     1  UNL1        0.0480
     31  C         16.0310  -22.1140   -6.2270 C.2     1  UNL1        0.0370
@<TRIPOS>BOND
     1    19    18    1
     2    18    16    1
     3    11     8    2
     4    16    17    1
     5    16    15    2
     6    17    12    2
     7     2     3    1
     8     2     1    2
     9     8     1    1
    10     8     9   am
    11    15    14    1
    12     3     4    2
    13     1     7    1
    14    12     9    1
    15    12    13    1
    16     9    10    1
    17    14    13    2
    18     4     5    1
    19     4     6    1
    20     7     6    2
    21     6    20    1
    22    21    20    2
    23    20    22    2
    24    20    23    1
    25    24    23    1
    26    23    25    1
    27    31    25    2
    28    31    29    1
    29    25    26    1
    30    30    29    1
    31    29    28    2
    32    26    27    2
    33    28    27    1
