@<TRIPOS>MOLECULE
57936_out_ligand_01.pdbqt
 30 32 0 0 0
SMALL
GASTEIGER

@<TRIPOS>ATOM
      1  C         17.7420  -23.3070   -8.8530 C.2     1  UNL1        0.0810
      2  C         19.1380  -23.4430   -8.9070 C.2     1  UNL1        0.0420
      3  C         19.8620  -22.8640   -9.9540 C.2     1  UNL1        0.0330
      4  C         19.1920  -22.1160  -10.9270 C.2     1  UNL1        0.0170
      5  C         17.8020  -21.9760  -10.8690 C.2     1  UNL1        0.0090
      6  C         17.0530  -22.5780   -9.8430 C.2     1  UNL1       -0.0390
      7  C         15.5640  -22.3640   -9.8320 C.3     1  UNL1        0.0500
      8  S         16.8850  -24.0720   -7.4770 S.O2    1  UNL1        0.2460
      9  O         15.7530  -24.7980   -8.0110 O.2     1  UNL1       -0.2060
     10  O         17.8760  -24.7150   -6.6450 O.2     1  UNL1       -0.2060
     11  N         16.2510  -22.6870   -6.7030 N.pl3   1  UNL1       -0.1810
     12  H         15.2750  -22.8800   -6.4800 H       1  UNL1        0.1460
     13  C         16.9860  -22.2650   -5.5400 C.2     1  UNL1        0.0280
     14  C         18.1300  -21.4830   -5.7280 C.2     1  UNL1        0.0250
     15  C         18.8900  -21.0680   -4.6360 C.2     1  UNL1        0.0020
     16  C         18.5110  -21.4370   -3.3490 C.2     1  UNL1        0.0010
     17  C         17.3740  -22.2220   -3.1550 C.2     1  UNL1        0.0080
     18  C         16.5960  -22.6490   -4.2440 C.2     1  UNL1       -0.0400
     19  C         15.3870  -23.5020   -3.9830 C.3     1  UNL1        0.0500
     20  C         21.3430  -23.0360   -9.9780 C.2     1  UNL1        0.2560
     21  O         21.8600  -23.7110   -9.0970 O.2     1  UNL1       -0.2670
     22  N         21.9850  -22.4340  -11.0460 N.am    1  UNL1       -0.3230
     23  H         21.4020  -22.0240  -11.7630 H       1  UNL1        0.1690
     24  C         23.3730  -22.4020  -11.3000 C.2     1  UNL1        0.0360
     25  C         24.1450  -21.5350  -10.5130 C.2     1  UNL1        0.0290
     26  C         25.5280  -21.4430  -10.6940 C.2     1  UNL1        0.0040
     27  C         26.1550  -22.2200  -11.6640 C.2     1  UNL1        0.0190
     28  C         25.3920  -23.0860  -12.4460 C.2     1  UNL1        0.0130
     29 BR         26.2460  -24.1460  -13.7600 Br      1  UNL1       -0.0510
     30  C         24.0090  -23.1820  -12.2680 C.2     1  UNL1        0.0480
@<TRIPOS>BOND
     1    29    28    1
     2    28    30    1
     3    28    27    2
     4    30    24    2
     5    23    22    1
     6    27    26    1
     7    24    22    1
     8    24    25    1
     9    22    20   am
    10     4     5    2
    11     4     3    1
    12     5     6    1
    13    26    25    2
    14    20     3    1
    15    20    21    2
    16     3     2    2
    17     6     7    1
    18     6     1    2
    19     2     1    1
    20     1     8    1
    21     9     8    2
    22     8    11    1
    23     8    10    2
    24    11    12    1
    25    11    13    1
    26    14    13    2
    27    14    15    1
    28    13    18    1
    29    15    16    2
    30    18    19    1
    31    18    17    2
    32    16    17    1
