@<TRIPOS>MOLECULE
5793_out_ligand_01.pdbqt
 35 38 0 0 0
SMALL
GASTEIGER

@<TRIPOS>ATOM
      1  C         23.7750  -21.6270  -10.4200 C.ar    1  UNL1        0.1920
      2  N         25.0070  -21.1880  -10.3890 N.ar    1  UNL1       -0.1220
      3  N         25.4890  -21.2480  -11.6750 N.ar    1  UNL1       -0.1280
      4  C         24.5510  -21.7570  -12.4610 C.ar    1  UNL1        0.1670
      5  N         23.4090  -21.9330  -11.7050 N.ar    1  UNL1       -0.3070
      6  S         22.7500  -21.7900   -9.0390 S.3     1  UNL1       -0.0810
      7  C         22.4950  -23.5890   -9.0510 C.3     1  UNL1        0.1850
      8  C         21.1500  -24.0840   -8.5360 C.2     1  UNL1        0.2320
      9  N         20.4360  -23.1860   -7.7750 N.am    1  UNL1       -0.3240
     10  H         20.9280  -22.3490   -7.4670 H       1  UNL1        0.1690
     11  O         20.7600  -25.2000   -8.8830 O.2     1  UNL1       -0.2720
     12  C         19.1480  -23.3270   -7.2130 C.2     1  UNL1        0.0680
     13  C         18.3140  -24.4230   -7.4550 C.2     1  UNL1        0.0320
     14  C         17.0480  -24.4850   -6.8660 C.2     1  UNL1        0.0020
     15  C         16.6090  -23.4550   -6.0360 C.2     1  UNL1        0.0030
     16  C         17.4360  -22.3550   -5.7840 C.2     1  UNL1        0.0390
     17  C         18.7060  -22.2850   -6.3700 C.2     1  UNL1        0.0950
     18  O         19.5840  -21.2330   -6.2150 O.2     1  UNL1       -0.3540
     19  C         19.3250  -20.3280   -5.1450 C.3     1  UNL1        0.2100
     20  C         22.0940  -22.3260  -12.1720 C.3     1  UNL1        0.1370
     21  C         21.1220  -21.1510  -12.3420 C.3     1  UNL1        0.0590
     22  C         19.7640  -21.4080  -11.7330 C.2     1  UNL1       -0.0570
     23  C         19.4720  -22.6440  -11.1430 C.2     1  UNL1        0.0070
     24  C         18.2100  -22.8860  -10.5970 C.2     1  UNL1        0.0010
     25  C         17.2300  -21.8960  -10.6350 C.2     1  UNL1        0.0000
     26  C         17.5100  -20.6640  -11.2200 C.2     1  UNL1        0.0010
     27  C         18.7690  -20.4210  -11.7700 C.2     1  UNL1        0.0070
     28  C         24.7080  -22.0340  -13.8870 C.2     1  UNL1        0.0450
     29  C         25.1170  -23.3150  -14.2870 C.2     1  UNL1        0.0180
     30  C         25.2530  -23.6290  -15.6420 C.2     1  UNL1        0.0010
     31  C         24.9660  -22.6700  -16.6130 C.2     1  UNL1        0.0030
     32  C         24.5360  -21.3980  -16.2350 C.2     1  UNL1        0.0370
     33  C         24.4030  -21.0870  -14.8790 C.2     1  UNL1        0.0790
     34  O         23.9630  -19.8410  -14.5200 O.2     1  UNL1       -0.3600
     35  H         23.2910  -19.9390  -13.8230 H       1  UNL1        0.2170
@<TRIPOS>BOND
     1    31    32    2
     2    31    30    1
     3    32    33    1
     4    30    29    2
     5    33    34    1
     6    33    28    2
     7    34    35    1
     8    29    28    1
     9    28     4    1
    10     4     5   ar
    11     4     3   ar
    12    21    20    1
    13    21    22    1
    14    20     5    1
    15    27    22    2
    16    27    26    1
    17    22    23    1
    18     5     1   ar
    19     3     2   ar
    20    26    25    2
    21    23    24    2
    22    25    24    1
    23     1     2   ar
    24     1     6    1
    25     7     6    1
    26     7     8    1
    27    11     8    2
    28     8     9   am
    29     9    10    1
    30     9    12    1
    31    13    12    2
    32    13    14    1
    33    12    17    1
    34    14    15    2
    35    17    18    1
    36    17    16    2
    37    18    19    1
    38    15    16    1
