@<TRIPOS>MOLECULE
57935_out_ligand_01.pdbqt
 31 33 0 0 0
SMALL
GASTEIGER

@<TRIPOS>ATOM
      1  C         19.6880  -22.9500   -9.8030 C.2     1  UNL1        0.0330
      2  C         19.0230  -22.1840  -10.7620 C.2     1  UNL1        0.0170
      3  C         17.6350  -22.0400  -10.7000 C.2     1  UNL1        0.0090
      4  C         16.8790  -22.6640   -9.6900 C.2     1  UNL1       -0.0390
      5  C         15.3900  -22.4570   -9.6970 C.3     1  UNL1        0.0500
      6  C         17.5590  -23.4480   -8.7370 C.2     1  UNL1        0.0860
      7  C         18.9570  -23.5880   -8.7980 C.2     1  UNL1        0.0420
      8  S         16.7470  -24.2960   -7.3890 S.O2    1  UNL1        0.2630
      9  O         15.6100  -24.9900   -7.9600 O.2     1  UNL1       -0.2000
     10  O         17.7090  -25.0200   -6.5890 O.2     1  UNL1       -0.2000
     11  N         16.1040  -23.0220   -6.4870 N.pl3   1  UNL1       -0.2800
     12  H         15.1120  -23.1590   -6.2990 H       1  UNL1        0.1790
     13  C         16.9040  -22.4400   -5.4640 C.2     1  UNL1        0.0490
     14  C         17.9600  -21.6070   -5.8460 C.2     1  UNL1        0.0370
     15  C         18.8180  -21.0550   -4.8880 C.2     1  UNL1       -0.0600
     16  C         19.9270  -20.1360   -5.3040 C.3     1  UNL1        0.0480
     17  C         18.5890  -21.3300   -3.5380 C.2     1  UNL1        0.0070
     18  C         17.5320  -22.1610   -3.1540 C.2     1  UNL1        0.0090
     19  C         16.6720  -22.7210   -4.1100 C.2     1  UNL1       -0.0350
     20  C         15.5660  -23.6320   -3.6570 C.3     1  UNL1        0.0500
     21  C         21.1620  -23.1430   -9.8450 C.2     1  UNL1        0.2560
     22  N         21.8270  -22.3130  -10.7270 N.am    1  UNL1       -0.3230
     23  H         21.2830  -21.5890  -11.1760 H       1  UNL1        0.1690
     24  O         21.6520  -23.9800   -9.0960 O.2     1  UNL1       -0.2670
     25  C         23.2100  -22.2960  -11.0100 C.2     1  UNL1        0.0350
     26  C         24.1370  -21.5200  -10.3160 C.2     1  UNL1        0.0290
     27  C         25.4930  -21.5710  -10.6500 C.2     1  UNL1        0.0030
     28  C         25.9340  -22.3980  -11.6820 C.2     1  UNL1        0.0070
     29  C         25.0190  -23.1750  -12.3980 C.2     1  UNL1       -0.0600
     30  C         25.4910  -24.0920  -13.4880 C.3     1  UNL1        0.0480
     31  C         23.6620  -23.1270  -12.0450 C.2     1  UNL1        0.0360
@<TRIPOS>BOND
     1    30    29    1
     2    29    31    1
     3    29    28    2
     4    31    25    2
     5    28    27    1
     6    23    22    1
     7    25    22    1
     8    25    26    1
     9     2     3    1
    10     2     1    2
    11    22    21   am
    12     3     4    2
    13    27    26    2
    14    21     1    1
    15    21    24    2
    16     1     7    1
    17     5     4    1
    18     4     6    1
    19     7     6    2
    20     6     8    1
    21     9     8    2
    22     8    10    2
    23     8    11    1
    24    11    12    1
    25    11    13    1
    26    14    13    2
    27    14    15    1
    28    13    19    1
    29    16    15    1
    30    15    17    2
    31    19    20    1
    32    19    18    2
    33    17    18    1
