@<TRIPOS>MOLECULE
57946_out_ligand_01.pdbqt
 31 33 0 0 0
SMALL
GASTEIGER

@<TRIPOS>ATOM
      1  C         18.4740  -22.2840  -10.2330 C.2     1  UNL1        0.0860
      2  C         19.7660  -22.8130  -10.0790 C.2     1  UNL1        0.0420
      3  C         20.8240  -22.3240  -10.8500 C.2     1  UNL1        0.0330
      4  C         20.5910  -21.3110  -11.7840 C.2     1  UNL1        0.0170
      5  C         19.3070  -20.7790  -11.9320 C.2     1  UNL1        0.0090
      6  C         18.2280  -21.2550  -11.1660 C.2     1  UNL1       -0.0390
      7  C         16.8790  -20.6260  -11.3740 C.3     1  UNL1        0.0500
      8  S         17.1850  -22.9630   -9.1900 S.O2    1  UNL1        0.2630
      9  O         16.5230  -24.0210   -9.9240 O.2     1  UNL1       -0.2000
     10  O         16.4180  -21.8630   -8.6480 O.2     1  UNL1       -0.2000
     11  N         18.0430  -23.7090   -7.9440 N.pl3   1  UNL1       -0.2810
     12  H         18.8810  -24.1800   -8.2750 H       1  UNL1        0.1790
     13  C         18.0730  -23.1160   -6.6500 C.2     1  UNL1        0.0430
     14  C         17.3840  -23.6760   -5.5750 C.2     1  UNL1        0.0370
     15  C         17.3860  -23.0430   -4.3260 C.2     1  UNL1       -0.0590
     16  C         18.1220  -21.8640   -4.1580 C.2     1  UNL1        0.0130
     17  C         16.6510  -23.6550   -3.1690 C.3     1  UNL1        0.0480
     18  C         18.8230  -21.2970   -5.2300 C.2     1  UNL1       -0.0590
     19  C         19.6310  -20.0480   -5.0300 C.3     1  UNL1        0.0480
     20  C         18.8030  -21.9390   -6.4740 C.2     1  UNL1        0.0370
     21  C         22.1730  -22.9270  -10.6770 C.2     1  UNL1        0.2560
     22  O         22.3600  -23.6550   -9.7100 O.2     1  UNL1       -0.2670
     23  N         23.0970  -22.5630  -11.6390 N.am    1  UNL1       -0.3230
     24  H         22.8160  -21.8450  -12.2950 H       1  UNL1        0.1690
     25  C         24.4320  -23.0090  -11.7540 C.2     1  UNL1        0.0360
     26  C         25.2720  -22.7940  -10.6520 C.2     1  UNL1        0.0290
     27  C         26.6090  -23.1980  -10.6830 C.2     1  UNL1        0.0040
     28  C         27.1210  -23.8180  -11.8190 C.2     1  UNL1        0.0190
     29  C         26.2910  -24.0290  -12.9180 C.2     1  UNL1        0.0130
     30 BR         26.9890  -24.8680  -14.4640 Br      1  UNL1       -0.0510
     31  C         24.9520  -23.6280  -12.8920 C.2     1  UNL1        0.0480
@<TRIPOS>BOND
     1    30    29    1
     2    29    31    1
     3    29    28    2
     4    31    25    2
     5    24    23    1
     6     5     4    2
     7     5     6    1
     8    28    27    1
     9     4     3    1
    10    25    23    1
    11    25    26    1
    12    23    21   am
    13     7     6    1
    14     6     1    2
    15     3    21    1
    16     3     2    2
    17    27    26    2
    18    21    22    2
    19     1     2    1
    20     1     8    1
    21     9     8    2
    22     8    10    2
    23     8    11    1
    24    12    11    1
    25    11    13    1
    26    13    20    2
    27    13    14    1
    28    20    18    1
    29    14    15    2
    30    18    19    1
    31    18    16    2
    32    15    16    1
    33    15    17    1
