@<TRIPOS>MOLECULE
57942_out_ligand_01.pdbqt
 37 39 0 0 0
SMALL
GASTEIGER

@<TRIPOS>ATOM
      1  C         21.0630  -23.0280  -10.3040 C.2     1  UNL1        0.0420
      2  C         21.7360  -22.9940   -9.1370 C.2     1  UNL1        0.1130
      3  C         23.0410  -23.5580   -9.0570 C.1     1  UNL1        0.1050
      4  N         24.0860  -24.0650   -9.0490 N.1     1  UNL1       -0.1910
      5  C         21.2120  -22.3350   -7.8990 C.2     1  UNL1        0.2660
      6  O         21.8740  -21.4570   -7.3550 O.2     1  UNL1       -0.2670
      7  N         20.0030  -22.8560   -7.4730 N.am    1  UNL1       -0.3220
      8  H         19.6420  -23.6290   -8.0110 H       1  UNL1        0.1690
      9  C         19.1950  -22.4310   -6.3900 C.2     1  UNL1        0.0410
     10  C         19.4240  -21.2210   -5.7270 C.2     1  UNL1        0.0300
     11  C         18.6030  -20.8130   -4.6800 C.2     1  UNL1        0.0030
     12  C         17.5360  -21.6090   -4.2810 C.2     1  UNL1        0.0070
     13  C         17.2730  -22.8290   -4.9220 C.2     1  UNL1       -0.0540
     14  C         16.1050  -23.6460   -4.4410 C.3     1  UNL1        0.0490
     15  C         18.1110  -23.2560   -5.9800 C.2     1  UNL1       -0.0290
     16  C         17.8490  -24.5690   -6.6740 C.3     1  UNL1        0.0510
     17  C         19.7560  -22.4060  -10.5810 C.2     1  UNL1        0.0000
     18  C         18.6110  -23.0290  -10.0640 C.2     1  UNL1        0.0330
     19  C         17.3560  -22.4640  -10.2800 C.2     1  UNL1        0.0110
     20  C         17.2260  -21.2950  -11.0200 C.2     1  UNL1        0.0220
     21 BR         15.8210  -23.2930   -9.5550 Br      1  UNL1       -0.0510
     22  C         18.3600  -20.6770  -11.5550 C.2     1  UNL1        0.0390
     23  C         19.6290  -21.2250  -11.3410 C.2     1  UNL1        0.0790
     24  O         20.7940  -20.7150  -11.8590 O.2     1  UNL1       -0.3410
     25  C         21.2140  -21.1570  -13.1480 C.3     1  UNL1        0.2780
     26  C         22.7350  -21.2960  -13.2950 C.2     1  UNL1        0.2460
     27  N         23.2050  -20.7400  -14.4660 N.am    1  UNL1       -0.3230
     28  H         22.5170  -20.2790  -15.0550 H       1  UNL1        0.1690
     29  O         23.4040  -21.8520  -12.4280 O.2     1  UNL1       -0.2710
     30  C         24.5280  -20.6350  -14.9360 C.2     1  UNL1        0.0680
     31  C         25.4290  -19.6690  -14.4910 C.2     1  UNL1        0.0320
     32  C         26.7230  -19.6280  -15.0090 C.2     1  UNL1        0.0020
     33  C         27.1210  -20.5450  -15.9760 C.2     1  UNL1        0.0030
     34  C         26.2290  -21.5150  -16.4300 C.2     1  UNL1        0.0390
     35  C         24.9290  -21.5660  -15.9200 C.2     1  UNL1        0.0950
     36  O         23.9650  -22.4670  -16.3070 O.2     1  UNL1       -0.3540
     37  C         24.2940  -23.3470  -17.3710 C.3     1  UNL1        0.2100
@<TRIPOS>BOND
     1    37    36    1
     2    34    33    2
     3    34    35    1
     4    36    35    1
     5    33    32    1
     6    35    30    2
     7    28    27    1
     8    32    31    2
     9    30    31    1
    10    30    27    1
    11    27    26   am
    12    26    25    1
    13    26    29    2
    14    25    24    1
    15    24    23    1
    16    22    23    1
    17    22    20    2
    18    23    17    2
    19    20    19    1
    20    17     1    1
    21    17    18    1
    22     1     2    2
    23    19    18    2
    24    19    21    1
    25     2     3    1
    26     2     5    1
    27     3     4    3
    28     8     7    1
    29     5     7   am
    30     5     6    2
    31     7     9    1
    32    16    15    1
    33     9    15    2
    34     9    10    1
    35    15    13    1
    36    10    11    2
    37    13    14    1
    38    13    12    2
    39    11    12    1
