@<TRIPOS>MOLECULE
57948_out_ligand_01.pdbqt
 29 31 0 0 0
SMALL
GASTEIGER

@<TRIPOS>ATOM
      1  C         18.5420  -22.7270   -9.6440 C.2     1  UNL1        0.0860
      2  C         19.8310  -22.5980  -10.1910 C.2     1  UNL1        0.0420
      3  C         20.0380  -21.8270  -11.3380 C.2     1  UNL1        0.0330
      4  C         18.9590  -21.1840  -11.9440 C.2     1  UNL1        0.0170
      5  C         17.6740  -21.3310  -11.4140 C.2     1  UNL1        0.0090
      6  C         17.4400  -22.1060  -10.2610 C.2     1  UNL1       -0.0390
      7  C         16.0280  -22.2080   -9.7580 C.3     1  UNL1        0.0500
      8  S         18.4360  -23.7080   -8.1480 S.O2    1  UNL1        0.2630
      9  O         17.1950  -24.4490   -8.1230 O.2     1  UNL1       -0.2000
     10  O         19.7070  -24.3900   -8.0100 O.2     1  UNL1       -0.2000
     11  N         18.3960  -22.5350   -6.9310 N.pl3   1  UNL1       -0.2810
     12  H         18.7010  -21.6230   -7.2670 H       1  UNL1        0.1790
     13  C         17.3480  -22.5690   -5.9670 C.2     1  UNL1        0.0430
     14  C         17.6240  -23.0440   -4.6860 C.2     1  UNL1        0.0300
     15  C         16.6190  -23.0580   -3.7190 C.2     1  UNL1        0.0030
     16  C         15.3400  -22.5960   -4.0320 C.2     1  UNL1        0.0070
     17  C         15.0570  -22.1090   -5.3130 C.2     1  UNL1       -0.0600
     18  C         13.6740  -21.6480   -5.6650 C.3     1  UNL1        0.0480
     19  C         16.0680  -22.1140   -6.2840 C.2     1  UNL1        0.0370
     20  C         21.4290  -21.6730  -11.8430 C.2     1  UNL1        0.2560
     21  O         21.5910  -21.0320  -12.8740 O.2     1  UNL1       -0.2670
     22  N         22.4010  -22.2610  -11.0560 N.am    1  UNL1       -0.3230
     23  H         22.1040  -22.6460  -10.1680 H       1  UNL1        0.1690
     24  C         23.7890  -22.3110  -11.3050 C.2     1  UNL1        0.0350
     25  C         24.7240  -21.4890  -10.6740 C.2     1  UNL1        0.0290
     26  C         26.0840  -21.5980  -10.9840 C.2     1  UNL1        0.0020
     27  C         26.5190  -22.5250  -11.9260 C.2     1  UNL1        0.0000
     28  C         25.5940  -23.3470  -12.5640 C.2     1  UNL1        0.0020
     29  C         24.2350  -23.2390  -12.2550 C.2     1  UNL1        0.0290
@<TRIPOS>BOND
     1    21    20    2
     2    28    29    1
     3    28    27    2
     4    29    24    2
     5     4     5    2
     6     4     3    1
     7    27    26    1
     8    20     3    1
     9    20    22   am
    10     5     6    1
    11     3     2    2
    12    24    22    1
    13    24    25    1
    14    22    23    1
    15    26    25    2
    16     6     7    1
    17     6     1    2
    18     2     1    1
    19     1     8    1
    20     8     9    2
    21     8    10    2
    22     8    11    1
    23    12    11    1
    24    11    13    1
    25    19    13    2
    26    19    17    1
    27    13    14    1
    28    18    17    1
    29    17    16    2
    30    14    15    2
    31    16    15    1
