@<TRIPOS>MOLECULE
57977_out_ligand_01.pdbqt
 36 39 0 0 0
SMALL
GASTEIGER

@<TRIPOS>ATOM
      1  C         19.2930  -22.3720   -6.7810 C.2     1  UNL1        0.0860
      2  C         20.2250  -22.7640   -7.7580 C.2     1  UNL1        0.0420
      3  C         21.4590  -22.1180   -7.8590 C.2     1  UNL1        0.0330
      4  C         21.7670  -21.0750   -6.9870 C.2     1  UNL1        0.0170
      5  C         20.8310  -20.6690   -6.0300 C.2     1  UNL1        0.0090
      6  C         19.5800  -21.3030   -5.9120 C.2     1  UNL1       -0.0390
      7  C         18.6370  -20.8050   -4.8540 C.3     1  UNL1        0.0500
      8  C         22.4320  -22.6110   -8.8710 C.2     1  UNL1        0.2560
      9  O         22.6940  -23.8070   -8.8700 O.2     1  UNL1       -0.2670
     10  N         22.9150  -21.6450   -9.7320 N.am    1  UNL1       -0.3230
     11  H         22.4980  -20.7250   -9.6730 H       1  UNL1        0.1690
     12  C         23.8580  -21.8190  -10.7670 C.2     1  UNL1        0.0350
     13  C         23.4420  -22.5330  -11.8990 C.2     1  UNL1        0.0320
     14  C         24.3160  -22.7530  -12.9670 C.2     1  UNL1        0.0390
     15  C         25.6220  -22.2690  -12.9010 C.2     1  UNL1        0.0760
     16  C         26.0380  -21.5320  -11.7960 C.2     1  UNL1        0.0390
     17  C         25.1610  -21.3150  -10.7280 C.2     1  UNL1        0.0320
     18  O         26.5190  -22.4260  -13.9310 O.2     1  UNL1       -0.3110
     19  C         26.1100  -22.0380  -15.1880 C.2     1  UNL1        0.0760
     20  C         25.9100  -20.7020  -15.5460 C.2     1  UNL1        0.0370
     21  C         25.4560  -20.3890  -16.8290 C.2     1  UNL1        0.0030
     22  C         25.1880  -21.4080  -17.7440 C.2     1  UNL1        0.0000
     23  C         25.3680  -22.7420  -17.3780 C.2     1  UNL1        0.0030
     24  C         25.8220  -23.0580  -16.0960 C.2     1  UNL1        0.0370
     25  S         17.7740  -23.3200   -6.7430 S.O2    1  UNL1        0.2630
     26  O         17.9130  -24.4530   -5.8560 O.2     1  UNL1       -0.2000
     27  O         16.6970  -22.3690   -6.5610 O.2     1  UNL1       -0.2000
     28  N         17.6420  -23.8830   -8.3330 N.pl3   1  UNL1       -0.2810
     29  H         17.0370  -24.6990   -8.4010 H       1  UNL1        0.1790
     30  C         17.6070  -22.9420   -9.4000 C.2     1  UNL1        0.0430
     31  C         16.4240  -22.2490   -9.6520 C.2     1  UNL1        0.0300
     32  C         16.3790  -21.3000  -10.6730 C.2     1  UNL1        0.0030
     33  C         17.5160  -21.0440  -11.4400 C.2     1  UNL1        0.0070
     34  C         18.7100  -21.7290  -11.1880 C.2     1  UNL1       -0.0600
     35  C         19.9280  -21.4850  -12.0300 C.3     1  UNL1        0.0480
     36  C         18.7430  -22.6900  -10.1690 C.2     1  UNL1        0.0370
@<TRIPOS>BOND
     1    22    23    2
     2    22    21    1
     3    23    24    1
     4    21    20    2
     5    24    19    2
     6    20    19    1
     7    19    18    1
     8    18    15    1
     9    14    15    2
    10    14    13    1
    11    15    16    1
    12    35    34    1
    13    13    12    2
    14    16    17    2
    15    33    34    2
    16    33    32    1
    17    34    36    1
    18    12    17    1
    19    12    10    1
    20    32    31    2
    21    36    30    2
    22    10    11    1
    23    10     8   am
    24    31    30    1
    25    30    28    1
    26     8     9    2
    27     8     3    1
    28    29    28    1
    29    28    25    1
    30     3     2    1
    31     3     4    2
    32     2     1    2
    33     4     5    1
    34     1    25    1
    35     1     6    1
    36    25    27    2
    37    25    26    2
    38     5     6    2
    39     6     7    1
