@<TRIPOS>MOLECULE
57978_out_ligand_01.pdbqt
 31 33 0 0 0
SMALL
GASTEIGER

@<TRIPOS>ATOM
      1  C         19.6640  -22.3400  -10.1050 C.2     1  UNL1        0.0330
      2  C         18.8650  -21.6970  -11.0550 C.2     1  UNL1        0.0170
      3  C         17.4720  -21.7670  -10.9610 C.2     1  UNL1        0.0090
      4  C         16.8480  -22.4770   -9.9190 C.2     1  UNL1       -0.0390
      5  C         15.3450  -22.4900   -9.8690 C.3     1  UNL1        0.0500
      6  C         17.6640  -23.0980   -8.9520 C.2     1  UNL1        0.0810
      7  C         19.0630  -23.0230   -9.0430 C.2     1  UNL1        0.0420
      8  C         21.1540  -22.2880  -10.1690 C.2     1  UNL1        0.2560
      9  N         21.6890  -22.4310  -11.4370 N.am    1  UNL1       -0.3230
     10  H         21.0490  -22.6560  -12.1860 H       1  UNL1        0.1690
     11  O         21.7690  -22.1640   -9.1180 O.2     1  UNL1       -0.2670
     12  C         23.0510  -22.3820  -11.8030 C.2     1  UNL1        0.0350
     13  C         24.0820  -22.9570  -11.0570 C.2     1  UNL1        0.0360
     14  C         25.4160  -22.8610  -11.4820 C.2     1  UNL1       -0.0590
     15  C         25.7120  -22.1970  -12.6760 C.2     1  UNL1        0.0130
     16  C         26.5060  -23.5220  -10.6880 C.3     1  UNL1        0.0480
     17  C         24.6960  -21.5970  -13.4280 C.2     1  UNL1       -0.0590
     18  C         25.0150  -20.9050  -14.7200 C.3     1  UNL1        0.0480
     19  C         23.3690  -21.7040  -12.9880 C.2     1  UNL1        0.0360
     20  S         16.9680  -23.9830   -7.5590 S.O2    1  UNL1        0.2460
     21  O         15.8750  -24.7950   -8.0530 O.2     1  UNL1       -0.2060
     22  O         18.0630  -24.5590   -6.8110 O.2     1  UNL1       -0.2060
     23  N         16.2600  -22.6900   -6.6980 N.pl3   1  UNL1       -0.1810
     24  H         15.3060  -22.9630   -6.4600 H       1  UNL1        0.1460
     25  C         16.9960  -22.2740   -5.5330 C.2     1  UNL1        0.0280
     26  C         18.1100  -21.4470   -5.7150 C.2     1  UNL1        0.0250
     27  C         18.8710  -21.0350   -4.6220 C.2     1  UNL1        0.0020
     28  C         18.5230  -21.4520   -3.3410 C.2     1  UNL1        0.0010
     29  C         17.4170  -22.2820   -3.1530 C.2     1  UNL1        0.0080
     30  C         16.6390  -22.7060   -4.2440 C.2     1  UNL1       -0.0400
     31  C         15.4630  -23.6080   -3.9900 C.3     1  UNL1        0.0500
@<TRIPOS>BOND
     1    18    17    1
     2    17    19    1
     3    17    15    2
     4    19    12    2
     5    15    14    1
     6    10     9    1
     7    12     9    1
     8    12    13    1
     9    14    13    2
    10    14    16    1
    11     9     8   am
    12     2     3    1
    13     2     1    2
    14     3     4    2
    15     8     1    1
    16     8    11    2
    17     1     7    1
    18     4     5    1
    19     4     6    1
    20     7     6    2
    21     6    20    1
    22    21    20    2
    23    20    22    2
    24    20    23    1
    25    23    24    1
    26    23    25    1
    27    26    25    2
    28    26    27    1
    29    25    30    1
    30    27    28    2
    31    30    31    1
    32    30    29    2
    33    28    29    1
