@<TRIPOS>MOLECULE
57973_out_ligand_01.pdbqt
 31 33 0 0 0
SMALL
GASTEIGER

@<TRIPOS>ATOM
      1  C         19.7600  -22.9590   -9.9040 C.2     1  UNL1        0.0340
      2  C         19.0950  -22.1830  -10.8580 C.2     1  UNL1        0.0190
      3  C         17.7070  -22.0340  -10.7870 C.2     1  UNL1        0.0260
      4  C         16.9690  -22.6550   -9.7710 C.2     1  UNL1        0.0570
      5 CL         15.2700  -22.3540   -9.7650 Cl      1  UNL1       -0.0830
      6  C         17.6330  -23.4430   -8.8280 C.2     1  UNL1        0.1020
      7  C         19.0270  -23.6070   -8.9050 C.2     1  UNL1        0.0440
      8  S         16.7670  -24.2660   -7.5160 S.O2    1  UNL1        0.2650
      9  O         17.7310  -25.0320   -6.7540 O.2     1  UNL1       -0.2000
     10  O         15.6070  -24.9240   -8.0780 O.2     1  UNL1       -0.2000
     11  N         16.2010  -22.9940   -6.5620 N.pl3   1  UNL1       -0.2800
     12  H         15.5490  -22.4030   -7.0720 H       1  UNL1        0.1790
     13  C         17.0060  -22.4100   -5.5330 C.2     1  UNL1        0.0490
     14  C         18.0960  -21.5900   -5.8560 C.2     1  UNL1        0.0370
     15  C         18.8800  -20.9940   -4.8590 C.2     1  UNL1       -0.0600
     16  C         20.0020  -20.0700   -5.2330 C.3     1  UNL1        0.0480
     17  C         18.5690  -21.2320   -3.5210 C.2     1  UNL1        0.0070
     18  C         17.5190  -22.0870   -3.1870 C.2     1  UNL1        0.0090
     19  C         16.7400  -22.7020   -4.1830 C.2     1  UNL1       -0.0350
     20  C         15.6290  -23.6170   -3.7520 C.3     1  UNL1        0.0500
     21  C         21.2390  -23.1400   -9.9350 C.2     1  UNL1        0.2560
     22  N         21.8910  -22.4150  -10.9150 N.am    1  UNL1       -0.3230
     23  H         21.3370  -21.7670  -11.4590 H       1  UNL1        0.1690
     24  O         21.7420  -23.8710   -9.0930 O.2     1  UNL1       -0.2670
     25  C         23.2750  -22.4060  -11.1940 C.2     1  UNL1        0.0350
     26  C         24.0690  -21.5180  -10.4570 C.2     1  UNL1        0.0290
     27  C         25.4470  -21.4500  -10.6690 C.2     1  UNL1        0.0030
     28  C         26.0460  -22.2660  -11.6260 C.2     1  UNL1        0.0070
     29  C         25.2690  -23.1460  -12.3850 C.2     1  UNL1       -0.0600
     30  C         25.9090  -24.0530  -13.3950 C.3     1  UNL1        0.0480
     31  C         23.8840  -23.2160  -12.1550 C.2     1  UNL1        0.0360
@<TRIPOS>BOND
     1    30    29    1
     2    29    31    1
     3    29    28    2
     4    31    25    2
     5    28    27    1
     6    23    22    1
     7    25    22    1
     8    25    26    1
     9    22    21   am
    10     2     3    1
    11     2     1    2
    12     3     4    2
    13    27    26    2
    14    21     1    1
    15    21    24    2
    16     1     7    1
    17     4     5    1
    18     4     6    1
    19     7     6    2
    20     6     8    1
    21    10     8    2
    22     8     9    2
    23     8    11    1
    24    12    11    1
    25    11    13    1
    26    14    13    2
    27    14    15    1
    28    13    19    1
    29    16    15    1
    30    15    17    2
    31    19    20    1
    32    19    18    2
    33    17    18    1
