@<TRIPOS>MOLECULE
57984_out_ligand_01.pdbqt
 32 34 0 0 0
SMALL
GASTEIGER

@<TRIPOS>ATOM
      1  C         17.4880  -23.1850   -8.9270 C.2     1  UNL1        0.0810
      2  C         18.8860  -23.1650   -9.0420 C.2     1  UNL1        0.0420
      3  C         19.4940  -22.4270  -10.0620 C.2     1  UNL1        0.0330
      4  C         18.7080  -21.7210  -10.9770 C.2     1  UNL1        0.0170
      5  C         17.3160  -21.7390  -10.8580 C.2     1  UNL1        0.0090
      6  C         16.6820  -22.4730   -9.8380 C.2     1  UNL1       -0.0390
      7  C         15.1800  -22.4380   -9.7650 C.3     1  UNL1        0.0500
      8  S         16.7830  -24.1280   -7.5770 S.O2    1  UNL1        0.2460
      9  O         17.8750  -24.7260   -6.8420 O.2     1  UNL1       -0.2060
     10  O         15.7100  -24.9320   -8.1200 O.2     1  UNL1       -0.2060
     11  N         16.0610  -22.8740   -6.6740 N.pl3   1  UNL1       -0.1810
     12  H         15.1530  -23.2030   -6.3450 H       1  UNL1        0.1460
     13  C         16.8700  -22.3680   -5.5980 C.2     1  UNL1        0.0290
     14  C         16.6090  -22.7080   -4.2610 C.2     1  UNL1       -0.0400
     15  C         17.4610  -22.2080   -3.2640 C.2     1  UNL1        0.0090
     16  C         15.4630  -23.5930   -3.8600 C.3     1  UNL1        0.0500
     17  C         18.5460  -21.3900   -3.5900 C.2     1  UNL1        0.0070
     18  C         18.7990  -21.0450   -4.9190 C.2     1  UNL1       -0.0600
     19  C         19.9880  -20.2060   -5.2780 C.3     1  UNL1        0.0480
     20  C         17.9620  -21.5520   -5.9190 C.2     1  UNL1        0.0310
     21  C         20.9780  -22.4500  -10.1690 C.2     1  UNL1        0.2560
     22  O         21.6260  -22.5700   -9.1370 O.2     1  UNL1       -0.2670
     23  N         21.4700  -22.2980  -11.4520 N.am    1  UNL1       -0.3230
     24  H         20.7960  -22.0840  -12.1770 H       1  UNL1        0.1690
     25  C         22.8230  -22.3150  -11.8540 C.2     1  UNL1        0.0380
     26  C         23.8470  -22.9220  -11.1230 C.2     1  UNL1        0.0530
     27  C         25.1610  -22.8960  -11.6010 C.2     1  UNL1        0.0370
     28 CL         26.4150  -23.6490  -10.6910 Cl      1  UNL1       -0.0840
     29  C         25.4720  -22.2730  -12.8050 C.2     1  UNL1        0.0480
     30  C         24.4520  -21.6720  -13.5340 C.2     1  UNL1        0.0370
     31 CL         24.8130  -20.8980  -15.0280 Cl      1  UNL1       -0.0840
     32  C         23.1360  -21.6900  -13.0680 C.2     1  UNL1        0.0530
@<TRIPOS>BOND
     1    31    30    1
     2    30    32    1
     3    30    29    2
     4    32    25    2
     5    29    27    1
     6    24    23    1
     7    25    23    1
     8    25    26    1
     9    27    26    2
    10    27    28    1
    11    23    21   am
    12     4     5    2
    13     4     3    1
    14     5     6    1
    15    21     3    1
    16    21    22    2
    17     3     2    2
    18     6     7    1
    19     6     1    2
    20     2     1    1
    21     1     8    1
    22    10     8    2
    23     8     9    2
    24     8    11    1
    25    11    12    1
    26    11    13    1
    27    20    13    2
    28    20    18    1
    29    13    14    1
    30    19    18    1
    31    18    17    2
    32    14    16    1
    33    14    15    2
    34    17    15    1
