@<TRIPOS>MOLECULE
57986_out_ligand_01.pdbqt
 34 37 0 0 0
SMALL
GASTEIGER

@<TRIPOS>ATOM
      1  C         17.4810  -23.2670   -8.8030 C.2     1  UNL1        0.0860
      2  C         18.8860  -23.2460   -8.8000 C.2     1  UNL1        0.0420
      3  C         19.5820  -22.5120   -9.7620 C.2     1  UNL1        0.0330
      4  C         18.8780  -21.7940  -10.7310 C.2     1  UNL1        0.0170
      5  C         17.4800  -21.8280  -10.7450 C.2     1  UNL1        0.0090
      6  C         16.7570  -22.5590   -9.7840 C.2     1  UNL1       -0.0390
      7  C         15.2570  -22.5570   -9.8770 C.3     1  UNL1        0.0500
      8  C         21.0700  -22.4870   -9.7010 C.2     1  UNL1        0.2560
      9  O         21.5960  -22.3550   -8.6040 O.2     1  UNL1       -0.2670
     10  N         21.6950  -22.6530  -10.9230 N.am    1  UNL1       -0.3220
     11  H         21.0950  -22.8990  -11.6930 H       1  UNL1        0.1690
     12  C         23.0890  -22.6100  -11.2050 C.2     1  UNL1        0.0460
     13  C         24.0210  -23.1860  -10.3310 C.2     1  UNL1        0.0300
     14  C         25.3870  -23.1210  -10.5930 C.2     1  UNL1        0.0030
     15  C         25.8460  -22.4720  -11.7320 C.2     1  UNL1        0.0120
     16  C         24.9480  -21.8840  -12.6320 C.2     1  UNL1       -0.0240
     17  C         25.4500  -21.2360  -13.7740 C.2     1  UNL1        0.0120
     18  C         23.5480  -21.9450  -12.3900 C.2     1  UNL1        0.0010
     19  C         24.5950  -20.6410  -14.6980 C.2     1  UNL1        0.0010
     20  C         23.2240  -20.6950  -14.4950 C.2     1  UNL1        0.0010
     21  C         22.7100  -21.3390  -13.3650 C.2     1  UNL1        0.0140
     22  S         16.6850  -24.2540   -7.5350 S.O2    1  UNL1        0.2630
     23  O         17.7030  -25.0450   -6.8800 O.2     1  UNL1       -0.2000
     24  O         15.5280  -24.8990   -8.1180 O.2     1  UNL1       -0.2000
     25  N         16.0900  -23.0990   -6.4570 N.pl3   1  UNL1       -0.2800
     26  H         15.3630  -22.5200   -6.8680 H       1  UNL1        0.1790
     27  C         16.9460  -22.5220   -5.4690 C.2     1  UNL1        0.0490
     28  C         16.7220  -22.7800   -4.1040 C.2     1  UNL1       -0.0350
     29  C         17.5400  -22.1490   -3.1540 C.2     1  UNL1        0.0090
     30  C         15.6170  -23.6790   -3.6230 C.3     1  UNL1        0.0500
     31  C         18.5670  -21.2890   -3.5480 C.2     1  UNL1        0.0070
     32  C         18.8150  -21.0620   -4.9040 C.2     1  UNL1       -0.0600
     33  C         19.8900  -20.1070   -5.3340 C.3     1  UNL1        0.0480
     34  C         18.0000  -21.6860   -5.8580 C.2     1  UNL1        0.0370
@<TRIPOS>BOND
     1    19    20    1
     2    19    17    2
     3    20    21    2
     4    17    16    1
     5    21    18    1
     6    16    18    1
     7    16    15    2
     8    18    12    2
     9    15    14    1
    10    11    10    1
    11    12    10    1
    12    12    13    1
    13    10     8   am
    14     5     4    2
    15     5     6    1
    16     4     3    1
    17    14    13    2
    18     7     6    1
    19     6     1    2
    20     3     8    1
    21     3     2    2
    22     8     9    2
    23     1     2    1
    24     1    22    1
    25    24    22    2
    26    22    23    2
    27    22    25    1
    28    26    25    1
    29    25    27    1
    30    34    27    2
    31    34    32    1
    32    27    28    1
    33    33    32    1
    34    32    31    2
    35    28    30    1
    36    28    29    2
    37    31    29    1
