@<TRIPOS>MOLECULE
57988_out_ligand_01.pdbqt
 34 37 0 0 0
SMALL
GASTEIGER

@<TRIPOS>ATOM
      1  C         24.9070  -22.3880  -13.4600 C.2     1  UNL1        0.0860
      2  C         23.9240  -22.0430  -12.5160 C.2     1  UNL1        0.0420
      3  C         24.0630  -22.4300  -11.1820 C.2     1  UNL1        0.0330
      4  C         25.1890  -23.1530  -10.7820 C.2     1  UNL1        0.0170
      5  C         26.1610  -23.5070  -11.7220 C.2     1  UNL1        0.0090
      6  C         26.0410  -23.1300  -13.0730 C.2     1  UNL1       -0.0390
      7  C         27.1210  -23.5630  -14.0240 C.3     1  UNL1        0.0500
      8  C         23.0130  -22.0240  -10.2070 C.2     1  UNL1        0.2560
      9  O         23.2030  -21.0130   -9.5420 O.2     1  UNL1       -0.2670
     10  N         21.8980  -22.8420  -10.1860 N.am    1  UNL1       -0.3230
     11  H         21.8450  -23.5620  -10.8940 H       1  UNL1        0.1690
     12  C         20.7720  -22.7320   -9.3430 C.2     1  UNL1        0.0350
     13  C         20.8470  -22.5150   -7.9680 C.2     1  UNL1        0.0300
     14  C         19.6820  -22.4240   -7.1990 C.2     1  UNL1        0.0140
     15  C         18.4170  -22.5500   -7.7890 C.2     1  UNL1       -0.0260
     16  C         17.2400  -22.4600   -7.0280 C.2     1  UNL1        0.0120
     17  C         18.3280  -22.7720   -9.1810 C.2     1  UNL1       -0.0240
     18  C         15.9890  -22.5900   -7.6330 C.2     1  UNL1        0.0010
     19  C         15.8990  -22.8090   -9.0050 C.2     1  UNL1        0.0010
     20  C         17.0610  -22.9000   -9.7740 C.2     1  UNL1        0.0120
     21  C         19.5100  -22.8610   -9.9390 C.2     1  UNL1        0.0420
     22  S         24.6210  -21.8730  -15.1530 S.O2    1  UNL1        0.2630
     23  O         23.6320  -20.8160  -15.1390 O.2     1  UNL1       -0.2000
     24  O         24.4020  -23.0560  -15.9590 O.2     1  UNL1       -0.2000
     25  N         26.1140  -21.2450  -15.6250 N.pl3   1  UNL1       -0.2800
     26  H         26.8920  -21.6610  -15.1200 H       1  UNL1        0.1790
     27  C         26.2230  -19.8910  -16.0600 C.2     1  UNL1        0.0480
     28  C         26.0170  -19.5760  -17.4060 C.2     1  UNL1        0.0310
     29  C         26.0720  -18.2520  -17.8410 C.2     1  UNL1        0.0090
     30  C         26.3370  -17.2220  -16.9370 C.2     1  UNL1       -0.0610
     31  C         26.4140  -15.8000  -17.4080 C.3     1  UNL1        0.0480
     32  C         26.5850  -17.5430  -15.5960 C.2     1  UNL1        0.0150
     33  C         26.5340  -18.8730  -15.1430 C.2     1  UNL1       -0.0340
     34  C         26.7900  -19.1520  -13.6890 C.3     1  UNL1        0.0500
@<TRIPOS>BOND
     1    29    28    1
     2    29    30    2
     3    31    30    1
     4    28    27    2
     5    30    32    1
     6    27    25    1
     7    27    33    1
     8    24    22    2
     9    25    22    1
    10    25    26    1
    11    32    33    2
    12    22    23    2
    13    22     1    1
    14    33    34    1
    15     7     6    1
    16     1     6    2
    17     1     2    1
    18     6     5    1
    19     2     3    2
    20     5     4    2
    21     3     4    1
    22     3     8    1
    23    11    10    1
    24     8    10   am
    25     8     9    2
    26    10    12    1
    27    21    12    2
    28    21    17    1
    29    20    17    1
    30    20    19    2
    31    12    13    1
    32    17    15    2
    33    19    18    1
    34    13    14    2
    35    15    14    1
    36    15    16    1
    37    18    16    2
