@<TRIPOS>MOLECULE
57990_out_ligand_01.pdbqt
 32 35 0 0 0
SMALL
GASTEIGER

@<TRIPOS>ATOM
      1  C         15.4970  -22.5270   -9.9480 C.3     1  UNL1        0.0500
      2  C         17.0000  -22.5220   -9.8880 C.2     1  UNL1       -0.0390
      3  C         17.7020  -21.8160  -10.8800 C.2     1  UNL1        0.0090
      4  C         19.0990  -21.7540  -10.8720 C.2     1  UNL1        0.0170
      5  C         19.8220  -22.4010   -9.8650 C.2     1  UNL1        0.0330
      6  C         19.1410  -23.0820   -8.8510 C.2     1  UNL1        0.0420
      7  C         17.7380  -23.1500   -8.8630 C.2     1  UNL1        0.0810
      8  C         21.3120  -22.3560   -9.8200 C.2     1  UNL1        0.2560
      9  O         21.8450  -22.1380   -8.7400 O.2     1  UNL1       -0.2670
     10  N         21.9350  -22.6200  -11.0270 N.am    1  UNL1       -0.3220
     11  H         21.3350  -22.9300  -11.7740 H       1  UNL1        0.1690
     12  C         23.3260  -22.6000  -11.3190 C.2     1  UNL1        0.0460
     13  C         24.2560  -23.1680  -10.4370 C.2     1  UNL1        0.0300
     14  C         25.6200  -23.1340  -10.7140 C.2     1  UNL1        0.0030
     15  C         26.0780  -22.5280  -11.8770 C.2     1  UNL1        0.0120
     16  C         25.1840  -21.9450  -12.7810 C.2     1  UNL1       -0.0240
     17  C         25.6850  -21.3390  -13.9450 C.2     1  UNL1        0.0120
     18  C         23.7860  -21.9690  -12.5220 C.2     1  UNL1        0.0010
     19  C         24.8330  -20.7480  -14.8740 C.2     1  UNL1        0.0010
     20  C         23.4660  -20.7580  -14.6510 C.2     1  UNL1        0.0010
     21  C         22.9510  -21.3580  -13.4960 C.2     1  UNL1        0.0140
     22  S         16.9380  -24.0330   -7.5280 S.O2    1  UNL1        0.2460
     23  O         15.8310  -24.7800   -8.0870 O.2     1  UNL1       -0.2060
     24  O         17.9670  -24.6720   -6.7390 O.2     1  UNL1       -0.2060
     25  N         16.2400  -22.7330   -6.6650 N.pl3   1  UNL1       -0.1810
     26  H         15.3190  -23.0470   -6.3550 H       1  UNL1        0.1460
     27  C         17.0230  -22.3040   -5.5420 C.2     1  UNL1        0.0220
     28  C         16.6340  -22.6640   -4.2530 C.2     1  UNL1        0.0240
     29  C         17.3670  -22.2160   -3.1530 C.2     1  UNL1        0.0020
     30  C         18.4810  -21.3970   -3.3440 C.2     1  UNL1        0.0000
     31  C         18.8560  -21.0190   -4.6330 C.2     1  UNL1        0.0020
     32  C         18.1240  -21.4660   -5.7340 C.2     1  UNL1        0.0240
@<TRIPOS>BOND
     1    19    20    1
     2    19    17    2
     3    20    21    2
     4    17    16    1
     5    21    18    1
     6    16    18    1
     7    16    15    2
     8    18    12    2
     9    15    14    1
    10    11    10    1
    11    12    10    1
    12    12    13    1
    13    10     8   am
    14     3     4    1
    15     3     2    2
    16     4     5    2
    17    14    13    2
    18     1     2    1
    19     2     7    1
    20     5     8    1
    21     5     6    1
    22     8     9    2
    23     7     6    2
    24     7    22    1
    25    23    22    2
    26    22    24    2
    27    22    25    1
    28    25    26    1
    29    25    27    1
    30    32    27    2
    31    32    31    1
    32    27    28    1
    33    31    30    2
    34    28    29    2
    35    30    29    1
