@<TRIPOS>MOLECULE
57994_out_ligand_01.pdbqt
 32 34 0 0 0
SMALL
GASTEIGER

@<TRIPOS>ATOM
      1  C         20.6160  -22.3290  -10.7840 C.2     1  UNL1        0.0340
      2  C         20.2060  -21.3750  -11.7220 C.2     1  UNL1        0.0190
      3  C         18.8650  -20.9850  -11.7760 C.2     1  UNL1        0.0260
      4  C         17.9220  -21.5320  -10.8960 C.2     1  UNL1        0.0570
      5 CL         16.3090  -20.9370  -11.0380 Cl      1  UNL1       -0.0830
      6  C         18.3350  -22.4740   -9.9500 C.2     1  UNL1        0.1020
      7  C         19.6820  -22.8710   -9.8940 C.2     1  UNL1        0.0440
      8  S         17.1990  -23.2240   -8.8110 S.O2    1  UNL1        0.2650
      9  O         17.9460  -24.1490   -7.9850 O.2     1  UNL1       -0.2000
     10  O         16.0540  -23.6990   -9.5580 O.2     1  UNL1       -0.2000
     11  N         16.6750  -21.9350   -7.8590 N.pl3   1  UNL1       -0.2800
     12  H         16.9590  -21.0330   -8.2330 H       1  UNL1        0.1790
     13  C         16.5000  -22.0960   -6.4500 C.2     1  UNL1        0.0490
     14  C         15.2520  -22.5050   -5.9680 C.2     1  UNL1        0.0310
     15  C         15.0520  -22.7320   -4.6110 C.2     1  UNL1        0.0030
     16  C         16.1010  -22.5500   -3.7180 C.2     1  UNL1        0.0070
     17  C         17.3580  -22.1210   -4.1700 C.2     1  UNL1       -0.0540
     18  C         18.4540  -21.9310   -3.1530 C.3     1  UNL1        0.0490
     19  C         17.5610  -21.8570   -5.5490 C.2     1  UNL1       -0.0290
     20  C         18.9160  -21.3860   -6.0110 C.3     1  UNL1        0.0510
     21  C         22.0380  -22.7570  -10.6780 C.2     1  UNL1        0.2560
     22  N         22.8840  -22.1970  -11.6180 N.am    1  UNL1       -0.3230
     23  H         22.4620  -21.6390  -12.3480 H       1  UNL1        0.1690
     24  O         22.3280  -23.5670   -9.8070 O.2     1  UNL1       -0.2670
     25  C         24.2770  -22.3880  -11.7340 C.2     1  UNL1        0.0370
     26  C         25.2300  -21.5430  -11.1660 C.2     1  UNL1        0.0290
     27  C         26.5930  -21.8050  -11.3340 C.2     1  UNL1        0.0050
     28  C         27.0170  -22.9100  -12.0740 C.2     1  UNL1        0.0370
     29  C         26.0750  -23.7610  -12.6490 C.2     1  UNL1        0.0700
     30  C         24.7120  -23.4930  -12.4760 C.2     1  UNL1        0.0660
     31  O         26.3470  -24.8750  -13.3960 O.2     1  UNL1       -0.3560
     32  C         26.6780  -24.6640  -14.7640 C.3     1  UNL1        0.2100
@<TRIPOS>BOND
     1    32    31    1
     2    31    29    1
     3    29    30    1
     4    29    28    2
     5    30    25    2
     6    23    22    1
     7    28    27    1
     8     3     2    1
     9     3     4    2
    10    25    22    1
    11    25    26    1
    12     2     1    2
    13    22    21   am
    14    27    26    2
    15     5     4    1
    16     4     6    1
    17     1    21    1
    18     1     7    1
    19    21    24    2
    20     6     7    2
    21     6     8    1
    22    10     8    2
    23     8     9    2
    24     8    11    1
    25    12    11    1
    26    11    13    1
    27    13    14    2
    28    13    19    1
    29    20    19    1
    30    14    15    1
    31    19    17    2
    32    15    16    2
    33    17    16    1
    34    17    18    1
