@<TRIPOS>MOLECULE
57997_out_ligand_01.pdbqt
 31 33 0 0 0
SMALL
GASTEIGER

@<TRIPOS>ATOM
      1  C         17.4830  -23.1760   -8.8710 C.2     1  UNL1        0.0860
      2  C         18.8820  -23.1650   -8.9930 C.2     1  UNL1        0.0420
      3  C         19.4890  -22.4500  -10.0290 C.2     1  UNL1        0.0330
      4  C         18.7020  -21.7400  -10.9410 C.2     1  UNL1        0.0170
      5  C         17.3110  -21.7550  -10.8210 C.2     1  UNL1        0.0090
      6  C         16.6780  -22.4640   -9.7840 C.2     1  UNL1       -0.0390
      7  C         15.1760  -22.4340   -9.7180 C.3     1  UNL1        0.0500
      8  S         16.7880  -24.1390   -7.5350 S.O2    1  UNL1        0.2630
      9  O         17.8640  -24.7810   -6.8120 O.2     1  UNL1       -0.2000
     10  O         15.7040  -24.9310   -8.0750 O.2     1  UNL1       -0.2000
     11  N         16.0740  -22.9590   -6.5530 N.pl3   1  UNL1       -0.2810
     12  H         15.1320  -23.2430   -6.2890 H       1  UNL1        0.1790
     13  C         16.8820  -22.3770   -5.5340 C.2     1  UNL1        0.0430
     14  C         16.6300  -22.6760   -4.1970 C.2     1  UNL1        0.0300
     15  C         17.4550  -22.1510   -3.2030 C.2     1  UNL1        0.0030
     16  C         18.5390  -21.3420   -3.5490 C.2     1  UNL1        0.0070
     17  C         18.8140  -21.0600   -4.8930 C.2     1  UNL1       -0.0600
     18  C         19.9720  -20.1840   -5.2670 C.3     1  UNL1        0.0480
     19  C         17.9660  -21.5720   -5.8840 C.2     1  UNL1        0.0370
     20  C         20.9720  -22.4280  -10.1110 C.2     1  UNL1        0.2560
     21  O         21.6090  -22.4400   -9.0670 O.2     1  UNL1       -0.2670
     22  N         21.4780  -22.4230  -11.3990 N.am    1  UNL1       -0.3230
     23  H         20.8090  -22.5370  -12.1500 H       1  UNL1        0.1690
     24  C         22.8360  -22.3680  -11.7810 C.2     1  UNL1        0.0380
     25  C         23.8760  -22.9580  -11.0580 C.2     1  UNL1        0.0530
     26  C         25.1940  -22.8480  -11.5070 C.2     1  UNL1        0.0370
     27 CL         26.4670  -23.5770  -10.6050 Cl      1  UNL1       -0.0840
     28  C         25.4970  -22.1530  -12.6750 C.2     1  UNL1        0.0480
     29  C         24.4630  -21.5640  -13.3930 C.2     1  UNL1        0.0370
     30 CL         24.8140  -20.6960  -14.8370 Cl      1  UNL1       -0.0840
     31  C         23.1410  -21.6650  -12.9540 C.2     1  UNL1        0.0530
@<TRIPOS>BOND
     1    30    29    1
     2    29    31    1
     3    29    28    2
     4    31    24    2
     5    28    26    1
     6    23    22    1
     7    24    22    1
     8    24    25    1
     9    26    25    2
    10    26    27    1
    11    22    20   am
    12     4     5    2
    13     4     3    1
    14     5     6    1
    15    20     3    1
    16    20    21    2
    17     3     2    2
    18     6     7    1
    19     6     1    2
    20     2     1    1
    21     1     8    1
    22    10     8    2
    23     8     9    2
    24     8    11    1
    25    11    12    1
    26    11    13    1
    27    19    13    2
    28    19    17    1
    29    13    14    1
    30    18    17    1
    31    17    16    2
    32    14    15    2
    33    16    15    1
