@<TRIPOS>MOLECULE
5799_out_ligand_01.pdbqt
 34 37 0 0 0
SMALL
GASTEIGER

@<TRIPOS>ATOM
      1  C         23.8380  -21.6270  -10.5270 C.ar    1  UNL1        0.1920
      2  N         25.0570  -21.1430  -10.4930 N.ar    1  UNL1       -0.1220
      3  N         25.5470  -21.1680  -11.7710 N.ar    1  UNL1       -0.1280
      4  C         24.6350  -21.7070  -12.5630 C.ar    1  UNL1        0.1670
      5  N         23.5120  -21.9870  -11.8070 N.ar    1  UNL1       -0.3070
      6  S         22.7740  -21.7530   -9.1730 S.3     1  UNL1       -0.0810
      7  C         22.7060  -23.5540   -8.9440 C.3     1  UNL1        0.1850
      8  C         21.3110  -23.9930   -8.5230 C.2     1  UNL1        0.2310
      9  N         20.6530  -23.0680   -7.7300 N.am    1  UNL1       -0.3260
     10  H         21.2090  -22.2700   -7.4260 H       1  UNL1        0.1690
     11  O         20.8710  -25.0800   -8.8940 O.2     1  UNL1       -0.2720
     12  C         19.3320  -23.1400   -7.2240 C.2     1  UNL1        0.0400
     13  C         18.4560  -24.1810   -7.5580 C.2     1  UNL1        0.0300
     14  C         17.1510  -24.2190   -7.0560 C.2     1  UNL1        0.0020
     15  C         16.6990  -23.2140   -6.2110 C.2     1  UNL1        0.0010
     16  C         17.5540  -22.1700   -5.8650 C.2     1  UNL1        0.0090
     17  C         18.8710  -22.1170   -6.3650 C.2     1  UNL1       -0.0350
     18  C         19.7420  -20.9680   -5.9320 C.3     1  UNL1        0.0500
     19  C         22.2240  -22.4400  -12.2930 C.3     1  UNL1        0.1370
     20  C         21.2760  -21.2780  -12.5830 C.3     1  UNL1        0.0590
     21  C         19.9570  -21.4720  -11.8820 C.2     1  UNL1       -0.0570
     22  C         19.6670  -22.6780  -11.2300 C.2     1  UNL1        0.0070
     23  C         18.4300  -22.8640  -10.6080 C.2     1  UNL1        0.0010
     24  C         17.4750  -21.8510  -10.6350 C.2     1  UNL1        0.0000
     25  C         17.7540  -20.6480  -11.2830 C.2     1  UNL1        0.0010
     26  C         18.9870  -20.4590  -11.9070 C.2     1  UNL1        0.0070
     27  C         24.7680  -21.8200  -14.0140 C.2     1  UNL1        0.0450
     28  C         24.9310  -23.0630  -14.6400 C.2     1  UNL1        0.0180
     29  C         25.0080  -23.1540  -16.0330 C.2     1  UNL1        0.0010
     30  C         24.9370  -22.0020  -16.8140 C.2     1  UNL1        0.0030
     31  C         24.8090  -20.7560  -16.2040 C.2     1  UNL1        0.0370
     32  C         24.7420  -20.6680  -14.8160 C.2     1  UNL1        0.0790
     33  O         24.6480  -19.4070  -14.2870 O.2     1  UNL1       -0.3600
     34  H         24.0140  -18.8940  -14.8280 H       1  UNL1        0.2170
@<TRIPOS>BOND
     1    30    31    2
     2    30    29    1
     3    31    32    1
     4    29    28    2
     5    34    33    1
     6    32    33    1
     7    32    27    2
     8    28    27    1
     9    27     4    1
    10    20    19    1
    11    20    21    1
    12     4     5   ar
    13     4     3   ar
    14    19     5    1
    15    26    21    2
    16    26    25    1
    17    21    22    1
    18     5     1   ar
    19     3     2   ar
    20    25    24    2
    21    22    23    2
    22    24    23    1
    23     1     2   ar
    24     1     6    1
    25     6     7    1
    26     7     8    1
    27    11     8    2
    28     8     9   am
    29     9    10    1
    30     9    12    1
    31    13    12    2
    32    13    14    1
    33    12    17    1
    34    14    15    2
    35    17    18    1
    36    17    16    2
    37    15    16    1
