@<TRIPOS>MOLECULE
5800_out_ligand_01.pdbqt
 31 34 0 0 0
SMALL
GASTEIGER

@<TRIPOS>ATOM
      1  C         21.3620  -23.2050   -9.9430 C.2     1  UNL1        0.0340
      2  C         20.3420  -22.4850  -10.5720 C.2     1  UNL1        0.0310
      3  C         19.0320  -22.5330  -10.0830 C.2     1  UNL1        0.0270
      4  C         18.7400  -23.3160   -8.9660 C.2     1  UNL1        0.0800
      5  C         19.7510  -24.0230   -8.3120 C.2     1  UNL1        0.0270
      6  C         21.0570  -23.9680   -8.8060 C.2     1  UNL1        0.0310
      7  N         22.7000  -23.2140  -10.3770 N.am    1  UNL1       -0.3250
      8  C         23.6570  -22.2210  -10.2250 C.2     1  UNL1        0.2540
      9  O         23.5030  -21.1530   -9.6410 O.2     1  UNL1       -0.2700
     10  H         22.9940  -24.0100  -10.9340 H       1  UNL1        0.1690
     11  C         25.0230  -22.6350  -10.8080 C.3     1  UNL1        0.2450
     12  C         25.9990  -21.4650  -10.8400 C.3     1  UNL1        0.2180
     13  O         25.6300  -20.4870  -11.8190 O.2     1  UNL1       -0.3450
     14  C         25.2690  -21.0660  -13.0060 C.2     1  UNL1        0.1020
     15  C         25.2160  -20.2290  -14.1190 C.2     1  UNL1        0.0390
     16  C         24.9510  -22.4190  -13.1320 C.2     1  UNL1        0.1030
     17  C         24.8740  -20.7520  -15.3670 C.2     1  UNL1        0.0030
     18  C         24.5830  -22.1110  -15.4990 C.2     1  UNL1        0.0030
     19  C         24.6220  -22.9450  -14.3810 C.2     1  UNL1        0.0400
     20  O         24.9310  -23.2920  -12.0770 O.2     1  UNL1       -0.3310
     21  S         17.0700  -23.3850   -8.3560 S.O2    1  UNL1        0.2630
     22  O         16.9490  -24.5870   -7.5590 O.2     1  UNL1       -0.2000
     23  O         16.1750  -23.1290   -9.4650 O.2     1  UNL1       -0.2000
     24  N         17.0100  -22.0920   -7.2700 N.pl3   1  UNL1       -0.2810
     25  H         16.5770  -21.2690   -7.6870 H       1  UNL1        0.1790
     26  C         16.7450  -22.3530   -5.8970 C.2     1  UNL1        0.0420
     27  C         15.4350  -22.4140   -5.4230 C.2     1  UNL1        0.0300
     28  C         15.1940  -22.6310   -4.0650 C.2     1  UNL1        0.0020
     29  C         16.2630  -22.7850   -3.1830 C.2     1  UNL1        0.0000
     30  C         17.5720  -22.7230   -3.6570 C.2     1  UNL1        0.0020
     31  C         17.8150  -22.5070   -5.0150 C.2     1  UNL1        0.0300
@<TRIPOS>BOND
     1    18    17    2
     2    18    19    1
     3    17    15    1
     4    19    16    2
     5    15    14    2
     6    16    14    1
     7    16    20    1
     8    14    13    1
     9    20    11    1
    10    13    12    1
    11    10     7    1
    12    12    11    1
    13    11     8    1
    14     2     3    1
    15     2     1    2
    16     7     8   am
    17     7     1    1
    18     8     9    2
    19     3     4    2
    20     1     6    1
    21    23    21    2
    22     4    21    1
    23     4     5    1
    24     6     5    2
    25    21    22    2
    26    21    24    1
    27    25    24    1
    28    24    26    1
    29    26    27    2
    30    26    31    1
    31    27    28    1
    32    31    30    2
    33    28    29    2
    34    30    29    1
