@<TRIPOS>MOLECULE
58009_out_ligand_01.pdbqt
 32 34 0 0 0
SMALL
GASTEIGER

@<TRIPOS>ATOM
      1  C         17.3360  -23.2130   -8.9670 C.2     1  UNL1        0.0860
      2  C         18.7240  -23.3670   -9.1370 C.2     1  UNL1        0.0420
      3  C         19.3930  -22.6840  -10.1530 C.2     1  UNL1        0.0330
      4  C         18.6820  -21.8410  -11.0070 C.2     1  UNL1        0.0170
      5  C         17.2990  -21.7030  -10.8530 C.2     1  UNL1        0.0090
      6  C         16.6010  -22.3860   -9.8380 C.2     1  UNL1       -0.0390
      7  C         15.1140  -22.1900   -9.7580 C.3     1  UNL1        0.0500
      8  S         16.6150  -24.1500   -7.6230 S.O2    1  UNL1        0.2630
      9  O         17.7140  -24.7800   -6.9200 O.2     1  UNL1       -0.2000
     10  O         15.5130  -24.9480   -8.1110 O.2     1  UNL1       -0.2000
     11  N         16.0280  -22.9510   -6.5920 N.pl3   1  UNL1       -0.2800
     12  H         15.0260  -23.0190   -6.4320 H       1  UNL1        0.1790
     13  C         16.8570  -22.4070   -5.5690 C.2     1  UNL1        0.0490
     14  C         16.6020  -22.6720   -4.2130 C.2     1  UNL1       -0.0350
     15  C         17.4860  -22.1570   -3.2490 C.2     1  UNL1        0.0090
     16  C         15.4650  -23.5340   -3.7350 C.3     1  UNL1        0.0500
     17  C         18.5760  -21.3650   -3.6200 C.2     1  UNL1        0.0070
     18  C         18.8000  -21.0620   -4.9650 C.2     1  UNL1       -0.0600
     19  C         19.9750  -20.2270   -5.3800 C.3     1  UNL1        0.0480
     20  C         17.9390  -21.5970   -5.9320 C.2     1  UNL1        0.0370
     21  C         20.8690  -22.8380  -10.2580 C.2     1  UNL1        0.2560
     22  O         21.3990  -23.6910   -9.5570 O.2     1  UNL1       -0.2670
     23  N         21.4740  -21.9950  -11.1700 N.am    1  UNL1       -0.3230
     24  H         20.8660  -21.4130  -11.7320 H       1  UNL1        0.1690
     25  C         22.8510  -21.8960  -11.4650 C.2     1  UNL1        0.0350
     26  C         23.7090  -21.5850  -10.4090 C.2     1  UNL1        0.0300
     27  C         25.0850  -21.4680  -10.6170 C.2     1  UNL1        0.0090
     28  C         25.6360  -21.6610  -11.8920 C.2     1  UNL1       -0.0560
     29  C         27.1210  -21.5230  -12.0850 C.3     1  UNL1        0.0490
     30  C         24.7800  -21.9790  -12.9630 C.2     1  UNL1       -0.0540
     31  C         25.3150  -22.2010  -14.3520 C.3     1  UNL1        0.0490
     32  C         23.3940  -22.0930  -12.7360 C.2     1  UNL1        0.0370
@<TRIPOS>BOND
     1    31    30    1
     2    30    32    1
     3    30    28    2
     4    32    25    2
     5    29    28    1
     6    28    27    1
     7    24    23    1
     8    25    23    1
     9    25    26    1
    10    23    21   am
    11     4     5    2
    12     4     3    1
    13     5     6    1
    14    27    26    2
    15    21     3    1
    16    21    22    2
    17     3     2    2
    18     6     7    1
    19     6     1    2
    20     2     1    1
    21     1     8    1
    22    10     8    2
    23     8     9    2
    24     8    11    1
    25    11    12    1
    26    11    13    1
    27    20    13    2
    28    20    18    1
    29    13    14    1
    30    19    18    1
    31    18    17    2
    32    14    16    1
    33    14    15    2
    34    17    15    1
