@<TRIPOS>MOLECULE
58007_out_ligand_01.pdbqt
 29 31 0 0 0
SMALL
GASTEIGER

@<TRIPOS>ATOM
      1  C         17.5590  -23.5240   -8.6520 C.2     1  UNL1        0.0810
      2  C         18.9480  -23.7230   -8.6780 C.2     1  UNL1        0.0420
      3  C         19.7230  -23.1410   -9.6860 C.2     1  UNL1        0.0330
      4  C         19.1120  -22.3480  -10.6600 C.2     1  UNL1        0.0170
      5  C         17.7290  -22.1520  -10.6350 C.2     1  UNL1        0.0090
      6  C         16.9310  -22.7310   -9.6320 C.2     1  UNL1       -0.0390
      7  C         15.4470  -22.4880   -9.6750 C.3     1  UNL1        0.0500
      8  S         16.6350  -24.3250   -7.3450 S.O2    1  UNL1        0.2460
      9  O         15.5950  -25.1200   -7.9580 O.2     1  UNL1       -0.2060
     10  O         17.5850  -24.9050   -6.4190 O.2     1  UNL1       -0.2060
     11  N         15.9670  -22.9630   -6.5600 N.pl3   1  UNL1       -0.1810
     12  H         15.7480  -22.2760   -7.2840 H       1  UNL1        0.1460
     13  C         16.8280  -22.3920   -5.5650 C.2     1  UNL1        0.0230
     14  C         16.5890  -22.6540   -4.2170 C.2     1  UNL1        0.0240
     15  C         17.4520  -22.1420   -3.2480 C.2     1  UNL1        0.0020
     16  C         18.5550  -21.3770   -3.6290 C.2     1  UNL1        0.0070
     17  C         18.8060  -21.1140   -4.9820 C.2     1  UNL1       -0.0600
     18  C         20.0220  -20.3390   -5.3920 C.3     1  UNL1        0.0480
     19  C         17.9440  -21.6450   -5.9500 C.2     1  UNL1        0.0310
     20  C         21.1930  -23.3560   -9.6600 C.2     1  UNL1        0.2520
     21  O         21.6910  -24.0390   -8.7730 O.2     1  UNL1       -0.2680
     22  N         21.9130  -22.7720  -10.6800 N.am    1  UNL1       -0.3520
     23  H         21.4340  -22.2590  -11.4060 H       1  UNL1        0.1630
     24  C         23.3660  -22.8590  -10.7370 C.3     1  UNL1        0.0840
     25  C         23.8360  -23.1380  -12.1660 C.3     1  UNL1        0.0250
     26  C         25.3520  -23.3380  -12.2380 C.3     1  UNL1        0.0020
     27  C         26.1220  -22.5650  -11.1660 C.3     1  UNL1        0.0000
     28  C         25.3990  -21.2900  -10.7590 C.3     1  UNL1        0.0020
     29  C         24.0110  -21.5780  -10.1810 C.3     1  UNL1        0.0250
@<TRIPOS>BOND
     1    26    25    1
     2    26    27    1
     3    25    24    1
     4    23    22    1
     5    27    28    1
     6    28    29    1
     7    24    22    1
     8    24    29    1
     9    22    20   am
    10     4     5    2
    11     4     3    1
    12     5     6    1
    13     3    20    1
    14     3     2    2
    15     7     6    1
    16    20    21    2
    17     6     1    2
    18     2     1    1
    19     1     8    1
    20     9     8    2
    21     8    11    1
    22     8    10    2
    23    12    11    1
    24    11    13    1
    25    19    13    2
    26    19    17    1
    27    13    14    1
    28    18    17    1
    29    17    16    2
    30    14    15    2
    31    16    15    1
