@<TRIPOS>MOLECULE
58004_out_ligand_01.pdbqt
 32 34 0 0 0
SMALL
GASTEIGER

@<TRIPOS>ATOM
      1  C         19.4360  -22.2010  -10.1980 C.2     1  UNL1        0.0330
      2  C         18.6020  -21.5270  -11.0920 C.2     1  UNL1        0.0170
      3  C         17.2150  -21.5990  -10.9360 C.2     1  UNL1        0.0090
      4  C         16.6300  -22.3560   -9.9030 C.2     1  UNL1       -0.0390
      5  C         15.1290  -22.3600   -9.8020 C.3     1  UNL1        0.0500
      6  C         17.4810  -23.0590   -9.0290 C.2     1  UNL1        0.0860
      7  C         18.8770  -22.9630   -9.1690 C.2     1  UNL1        0.0420
      8  S         16.9120  -24.0880   -7.6790 S.O2    1  UNL1        0.2630
      9  O         18.0340  -24.7530   -7.0540 O.2     1  UNL1       -0.2000
     10  O         15.7990  -24.8620   -8.1910 O.2     1  UNL1       -0.2000
     11  N         16.2480  -22.9750   -6.5980 N.pl3   1  UNL1       -0.2800
     12  H         15.5380  -22.3910   -7.0330 H       1  UNL1        0.1790
     13  C         17.0360  -22.4210   -5.5450 C.2     1  UNL1        0.0490
     14  C         18.0920  -21.5540   -5.8480 C.2     1  UNL1        0.0370
     15  C         18.8670  -20.9750   -4.8340 C.2     1  UNL1       -0.0600
     16  C         19.9620  -20.0100   -5.1780 C.3     1  UNL1        0.0480
     17  C         18.5670  -21.2690   -3.5040 C.2     1  UNL1        0.0070
     18  C         17.5360  -22.1580   -3.1930 C.2     1  UNL1        0.0090
     19  C         16.7690  -22.7560   -4.2060 C.2     1  UNL1       -0.0350
     20  C         15.6790  -23.7160   -3.8130 C.3     1  UNL1        0.0500
     21  C         20.9180  -22.1750  -10.3360 C.2     1  UNL1        0.2560
     22  N         21.3770  -22.1770  -11.6380 N.am    1  UNL1       -0.3230
     23  H         20.6850  -22.0930  -12.3710 H       1  UNL1        0.1690
     24  O         21.5840  -22.1290   -9.3090 O.2     1  UNL1       -0.2670
     25  C         22.7190  -22.1960  -12.0750 C.2     1  UNL1        0.0350
     26  C         23.0070  -21.5460  -13.2830 C.2     1  UNL1        0.0360
     27  C         24.3070  -21.5310  -13.8060 C.2     1  UNL1       -0.0590
     28  C         25.3350  -22.1530  -13.0910 C.2     1  UNL1        0.0130
     29  C         24.6040  -20.8060  -15.0850 C.3     1  UNL1        0.0480
     30  C         25.0700  -22.7960  -11.8760 C.2     1  UNL1       -0.0590
     31  C         26.1680  -23.4980  -11.1310 C.3     1  UNL1        0.0480
     32  C         23.7560  -22.8260  -11.3850 C.2     1  UNL1        0.0360
@<TRIPOS>BOND
     1    29    27    1
     2    27    26    1
     3    27    28    2
     4    26    25    2
     5    28    30    1
     6    23    22    1
     7    25    22    1
     8    25    32    1
     9    30    32    2
    10    30    31    1
    11    22    21   am
    12     2     3    1
    13     2     1    2
    14     3     4    2
    15    21     1    1
    16    21    24    2
    17     1     7    1
    18     4     5    1
    19     4     6    1
    20     7     6    2
    21     6     8    1
    22    10     8    2
    23     8     9    2
    24     8    11    1
    25    12    11    1
    26    11    13    1
    27    14    13    2
    28    14    15    1
    29    13    19    1
    30    16    15    1
    31    15    17    2
    32    19    20    1
    33    19    18    2
    34    17    18    1
