@<TRIPOS>MOLECULE
58018_out_ligand_01.pdbqt
 36 39 0 0 0
SMALL
GASTEIGER

@<TRIPOS>ATOM
      1  C         18.3340  -23.1600   -9.0970 C.2     1  UNL1        0.1020
      2  C         19.0690  -22.5090  -10.1020 C.2     1  UNL1        0.0440
      3  C         20.4380  -22.7590  -10.2480 C.2     1  UNL1        0.0340
      4  C         21.0720  -23.6710   -9.3980 C.2     1  UNL1        0.0190
      5  C         20.3370  -24.3120   -8.3960 C.2     1  UNL1        0.0260
      6  C         18.9680  -24.0590   -8.2370 C.2     1  UNL1        0.0570
      7 CL         18.1670  -24.9360   -6.9850 Cl      1  UNL1       -0.0830
      8  C         21.1750  -22.0780  -11.3470 C.2     1  UNL1        0.2560
      9  O         20.6000  -21.1800  -11.9490 O.2     1  UNL1       -0.2670
     10  N         22.4650  -22.5300  -11.5490 N.am    1  UNL1       -0.3230
     11  H         22.8330  -23.1950  -10.8800 H       1  UNL1        0.1690
     12  C         23.3750  -22.1030  -12.5390 C.2     1  UNL1        0.0350
     13  C         23.0050  -21.3990  -13.6880 C.2     1  UNL1        0.0320
     14  C         23.9670  -21.0170  -14.6300 C.2     1  UNL1        0.0390
     15  C         25.3070  -21.3540  -14.4360 C.2     1  UNL1        0.0760
     16  C         25.6910  -22.0380  -13.2840 C.2     1  UNL1        0.0390
     17  C         24.7270  -22.4180  -12.3450 C.2     1  UNL1        0.0320
     18  O         26.3100  -20.9810  -15.3000 O.2     1  UNL1       -0.3110
     19  C         26.4380  -19.6390  -15.5790 C.2     1  UNL1        0.0760
     20  C         26.2020  -19.1100  -16.8510 C.2     1  UNL1        0.0370
     21  C         26.3850  -17.7450  -17.0770 C.2     1  UNL1        0.0030
     22  C         26.8210  -16.9180  -16.0420 C.2     1  UNL1        0.0000
     23  C         27.0800  -17.4530  -14.7800 C.2     1  UNL1        0.0030
     24  C         26.8950  -18.8170  -14.5500 C.2     1  UNL1        0.0370
     25  S         16.6060  -22.7830   -8.9490 S.O2    1  UNL1        0.2650
     26  O         16.2220  -21.9950  -10.1000 O.2     1  UNL1       -0.2000
     27  O         15.9030  -24.0150   -8.6600 O.2     1  UNL1       -0.2000
     28  N         16.5270  -21.7740   -7.6050 N.pl3   1  UNL1       -0.2800
     29  H         17.0260  -20.8990   -7.7590 H       1  UNL1        0.1790
     30  C         16.4180  -22.2790   -6.2720 C.2     1  UNL1        0.0480
     31  C         15.2290  -22.8540   -5.8110 C.2     1  UNL1        0.0300
     32  C         15.1260  -23.3460   -4.5080 C.2     1  UNL1        0.0020
     33  C         16.2060  -23.2430   -3.6420 C.2     1  UNL1        0.0010
     34  C         17.3810  -22.6310   -4.0700 C.2     1  UNL1        0.0090
     35  C         17.4970  -22.1260   -5.3780 C.2     1  UNL1       -0.0350
     36  C         18.7850  -21.4560   -5.7710 C.3     1  UNL1        0.0500
@<TRIPOS>BOND
     1    21    20    1
     2    21    22    2
     3    20    19    2
     4    22    23    1
     5    19    18    1
     6    19    24    1
     7    18    15    1
     8    23    24    2
     9    14    15    2
    10    14    13    1
    11    15    16    1
    12    13    12    2
    13    16    17    2
    14    12    17    1
    15    12    10    1
    16     9     8    2
    17    10     8   am
    18    10    11    1
    19     8     3    1
    20     3     2    1
    21     3     4    2
    22     2     1    2
    23    26    25    2
    24     4     5    1
    25     1    25    1
    26     1     6    1
    27    25    27    2
    28    25    28    1
    29     5     6    2
    30     6     7    1
    31    29    28    1
    32    28    30    1
    33    30    31    2
    34    30    35    1
    35    31    32    1
    36    36    35    1
    37    35    34    2
    38    32    33    2
    39    34    33    1
