@<TRIPOS>MOLECULE
5801_out_ligand_01.pdbqt
 35 38 0 0 0
SMALL
GASTEIGER

@<TRIPOS>ATOM
      1  C         23.9820  -21.6650  -10.5610 C.ar    1  UNL1        0.1920
      2  N         25.2720  -21.4270  -10.5540 N.ar    1  UNL1       -0.1220
      3  N         25.7160  -21.5290  -11.8470 N.ar    1  UNL1       -0.1280
      4  C         24.6830  -21.7990  -12.6290 C.ar    1  UNL1        0.1670
      5  N         23.5590  -21.9270  -11.8370 N.ar    1  UNL1       -0.3070
      6  S         22.9610  -21.6880   -9.1670 S.3     1  UNL1       -0.0810
      7  C         22.7510  -23.4760   -8.9240 C.3     1  UNL1        0.1850
      8  C         21.3200  -23.8070   -8.5260 C.2     1  UNL1        0.2310
      9  N         20.6800  -22.7790   -7.8500 N.am    1  UNL1       -0.3260
     10  H         21.1550  -21.8770   -7.8630 H       1  UNL1        0.1690
     11  O         20.8430  -24.9060   -8.8030 O.2     1  UNL1       -0.2720
     12  C         19.4000  -22.8050   -7.2420 C.2     1  UNL1        0.0410
     13  C         19.0980  -21.8610   -6.2370 C.2     1  UNL1       -0.0350
     14  C         17.8320  -21.8840   -5.6250 C.2     1  UNL1        0.0090
     15  C         20.0730  -20.7980   -5.8060 C.3     1  UNL1        0.0500
     16  C         16.8760  -22.8320   -5.9870 C.2     1  UNL1        0.0070
     17  C         17.1700  -23.7820   -6.9620 C.2     1  UNL1       -0.0600
     18  C         16.1380  -24.7910   -7.3740 C.3     1  UNL1        0.0480
     19  C         18.4260  -23.7520   -7.5900 C.2     1  UNL1        0.0370
     20  C         22.2400  -22.3560  -12.2540 C.3     1  UNL1        0.1370
     21  C         21.2950  -21.1710  -12.4590 C.3     1  UNL1        0.0590
     22  C         19.9460  -21.4250  -11.8340 C.2     1  UNL1       -0.0570
     23  C         19.6460  -22.6740  -11.2730 C.2     1  UNL1        0.0070
     24  C         18.3930  -22.9080  -10.7050 C.2     1  UNL1        0.0010
     25  C         17.4290  -21.9030  -10.6990 C.2     1  UNL1        0.0000
     26  C         17.7160  -20.6590  -11.2610 C.2     1  UNL1        0.0010
     27  C         18.9680  -20.4210  -11.8270 C.2     1  UNL1        0.0070
     28  C         24.7510  -22.0020  -14.0730 C.2     1  UNL1        0.0450
     29  C         25.0710  -23.2770  -14.5620 C.2     1  UNL1        0.0180
     30  C         25.1550  -23.5110  -15.9360 C.2     1  UNL1        0.0010
     31  C         24.9280  -22.4700  -16.8360 C.2     1  UNL1        0.0030
     32  C         24.6240  -21.1920  -16.3660 C.2     1  UNL1        0.0370
     33  C         24.5430  -20.9620  -14.9910 C.2     1  UNL1        0.0790
     34  O         24.2690  -19.7010  -14.5330 O.2     1  UNL1       -0.3600
     35  H         24.5250  -19.6360  -13.5980 H       1  UNL1        0.2170
@<TRIPOS>BOND
     1    31    32    2
     2    31    30    1
     3    32    33    1
     4    30    29    2
     5    33    34    1
     6    33    28    2
     7    29    28    1
     8    34    35    1
     9    28     4    1
    10     4     3   ar
    11     4     5   ar
    12    21    20    1
    13    21    22    1
    14    20     5    1
    15     3     2   ar
    16     5     1   ar
    17    22    27    2
    18    22    23    1
    19    27    26    1
    20    23    24    2
    21    26    25    2
    22    24    25    1
    23     1     2   ar
    24     1     6    1
    25     6     7    1
    26     7     8    1
    27    11     8    2
    28     8     9   am
    29    10     9    1
    30     9    12    1
    31    19    12    2
    32    19    17    1
    33    18    17    1
    34    12    13    1
    35    17    16    2
    36    13    15    1
    37    13    14    2
    38    16    14    1
