@<TRIPOS>MOLECULE
58023_out_ligand_01.pdbqt
 30 32 0 0 0
SMALL
GASTEIGER

@<TRIPOS>ATOM
      1  C         19.7880  -22.8590   -9.9730 C.2     1  UNL1        0.0330
      2  C         19.1400  -22.0820  -10.9380 C.2     1  UNL1        0.0170
      3  C         17.7550  -21.9130  -10.8810 C.2     1  UNL1        0.0090
      4  C         16.9860  -22.5200   -9.8710 C.2     1  UNL1       -0.0390
      5  C         15.5020  -22.2770   -9.8730 C.3     1  UNL1        0.0500
      6  C         17.6530  -23.2850   -8.8940 C.2     1  UNL1        0.0860
      7  C         19.0490  -23.4370   -8.9380 C.2     1  UNL1        0.0420
      8  S         16.7920  -24.0840   -7.5400 S.O2    1  UNL1        0.2630
      9  O         17.7650  -24.7770   -6.7220 O.2     1  UNL1       -0.2000
     10  O         15.6570  -24.7980   -8.0840 O.2     1  UNL1       -0.2000
     11  N         16.2420  -22.7800   -6.6200 N.pl3   1  UNL1       -0.2800
     12  H         15.2280  -22.7370   -6.5660 H       1  UNL1        0.1790
     13  C         17.0140  -22.2850   -5.5270 C.2     1  UNL1        0.0480
     14  C         18.1240  -21.4700   -5.7720 C.2     1  UNL1        0.0300
     15  C         18.9100  -21.0070   -4.7170 C.2     1  UNL1        0.0020
     16  C         18.5860  -21.3460   -3.4090 C.2     1  UNL1        0.0010
     17  C         17.4680  -22.1400   -3.1540 C.2     1  UNL1        0.0090
     18  C         16.6630  -22.6120   -4.2050 C.2     1  UNL1       -0.0350
     19  C         15.4720  -23.4660   -3.8770 C.3     1  UNL1        0.0500
     20  C         21.2630  -23.0640  -10.0000 C.2     1  UNL1        0.2560
     21  N         21.9180  -22.4020  -11.0220 N.am    1  UNL1       -0.3230
     22  H         21.3420  -21.9330  -11.7080 H       1  UNL1        0.1690
     23  O         21.7570  -23.8070   -9.1620 O.2     1  UNL1       -0.2670
     24  C         23.3050  -22.3810  -11.2800 C.2     1  UNL1        0.0350
     25  C         24.0810  -21.4880  -10.5320 C.2     1  UNL1        0.0290
     26  C         25.4630  -21.4150  -10.7170 C.2     1  UNL1        0.0030
     27  C         26.0840  -22.2350  -11.6580 C.2     1  UNL1        0.0070
     28  C         25.3250  -23.1260  -12.4230 C.2     1  UNL1       -0.0600
     29  C         25.9890  -24.0370  -13.4130 C.3     1  UNL1        0.0480
     30  C         23.9380  -23.2020  -12.2170 C.2     1  UNL1        0.0360
@<TRIPOS>BOND
     1    29    28    1
     2    28    30    1
     3    28    27    2
     4    30    24    2
     5    22    21    1
     6    27    26    1
     7    24    21    1
     8    24    25    1
     9    21    20   am
    10     2     3    1
    11     2     1    2
    12     3     4    2
    13    26    25    2
    14    20     1    1
    15    20    23    2
    16     1     7    1
    17     5     4    1
    18     4     6    1
    19     7     6    2
    20     6     8    1
    21    10     8    2
    22     8     9    2
    23     8    11    1
    24    11    12    1
    25    11    13    1
    26    14    13    2
    27    14    15    1
    28    13    18    1
    29    15    16    2
    30    18    19    1
    31    18    17    2
    32    16    17    1
