@<TRIPOS>MOLECULE
58032_out_ligand_01.pdbqt
 38 40 0 0 0
SMALL
GASTEIGER

@<TRIPOS>ATOM
      1  N         17.7360  -23.4200   -8.2020 N.pl3   1  UNL1       -0.2630
      2  S         16.8040  -24.5980   -7.3980 S.O2    1  UNL1        0.2680
      3  O         17.7570  -25.5150   -6.8000 O.2     1  UNL1       -0.2000
      4  O         15.7580  -25.0790   -8.2760 O.2     1  UNL1       -0.2000
      5  C         15.9930  -23.6360   -6.1430 C.2     1  UNL1        0.1130
      6  C         14.9390  -22.8030   -6.5560 C.2     1  UNL1        0.0350
      7  C         14.2680  -21.9980   -5.6270 C.2     1  UNL1       -0.0600
      8  C         14.6760  -22.0210   -4.2890 C.2     1  UNL1        0.0090
      9  C         13.1710  -21.0720   -6.0730 C.3     1  UNL1        0.0480
     10  C         15.7160  -22.8620   -3.8770 C.2     1  UNL1        0.0390
     11  C         16.3620  -23.6900   -4.7990 C.2     1  UNL1        0.0910
     12  O         17.3910  -24.4740   -4.3500 O.2     1  UNL1       -0.3540
     13  C         17.9540  -23.9230   -3.1550 C.3     1  UNL1        0.2100
     14  C         17.0670  -22.6980   -9.3200 C.3     1  UNL1        0.2450
     15  C         17.9640  -22.1600  -10.4260 C.2     1  UNL1        0.2410
     16  O         17.4860  -21.4690  -11.3250 O.2     1  UNL1       -0.2710
     17  N         19.3040  -22.4670  -10.2650 N.am    1  UNL1       -0.3260
     18  H         19.5510  -23.0030   -9.4300 H       1  UNL1        0.1690
     19  C         20.3690  -22.1660  -11.1360 C.2     1  UNL1        0.0340
     20  C         20.2920  -21.2320  -12.1750 C.2     1  UNL1        0.0310
     21  C         21.3930  -20.9970  -13.0040 C.2     1  UNL1        0.0270
     22  C         22.5820  -21.6940  -12.7840 C.2     1  UNL1        0.0740
     23  C         22.6720  -22.6420  -11.7620 C.2     1  UNL1        0.0270
     24  C         21.5630  -22.8740  -10.9430 C.2     1  UNL1        0.0310
     25  S         23.9710  -21.3840  -13.8390 S.O2    1  UNL1        0.2390
     26  O         24.2790  -22.5970  -14.5600 O.2     1  UNL1       -0.2060
     27  O         24.9640  -20.6480  -13.0910 O.2     1  UNL1       -0.2060
     28  N         23.3280  -20.2720  -14.9320 N.3     1  UNL1       -0.2250
     29  H         22.3610  -20.0130  -14.7300 H       1  UNL1        0.1360
     30  H         23.9490  -19.4610  -14.9690 H       1  UNL1        0.1360
     31  C         18.6480  -22.6380   -7.4000 C.2     1  UNL1        0.0460
     32  C         19.9800  -22.5560   -7.8200 C.2     1  UNL1        0.0370
     33  C         20.9000  -21.7540   -7.1330 C.2     1  UNL1       -0.0590
     34  C         22.3250  -21.6670   -7.5950 C.3     1  UNL1        0.0480
     35  C         20.4590  -20.9930   -6.0440 C.2     1  UNL1        0.0130
     36  C         19.1250  -21.0430   -5.6280 C.2     1  UNL1       -0.0590
     37  C         18.6550  -20.1930   -4.4840 C.3     1  UNL1        0.0480
     38  C         18.2180  -21.8550   -6.3230 C.2     1  UNL1        0.0370
@<TRIPOS>BOND
     1    30    28    1
     2    28    29    1
     3    28    25    1
     4    26    25    2
     5    25    27    2
     6    25    22    1
     7    21    22    2
     8    21    20    1
     9    22    23    1
    10    20    19    2
    11    23    24    2
    12    16    15    2
    13    19    24    1
    14    19    17    1
    15    15    17   am
    16    15    14    1
    17    17    18    1
    18    14     1    1
    19     4     2    2
    20     1    31    1
    21     1     2    1
    22    32    31    2
    23    32    33    1
    24    34    33    1
    25    31    38    1
    26     2     3    2
    27     2     5    1
    28    33    35    2
    29     6     5    2
    30     6     7    1
    31    38    36    2
    32     5    11    1
    33     9     7    1
    34    35    36    1
    35    36    37    1
    36     7     8    2
    37    11    12    1
    38    11    10    2
    39    12    13    1
    40     8    10    1
