@<TRIPOS>MOLECULE
58031_out_ligand_01.pdbqt
 37 39 0 0 0
SMALL
GASTEIGER

@<TRIPOS>ATOM
      1  N         17.6490  -23.2500   -8.2100 N.pl3   1  UNL1       -0.2630
      2  S         16.7540  -24.4280   -7.3630 S.O2    1  UNL1        0.2680
      3  O         17.6800  -25.3130   -6.6820 O.2     1  UNL1       -0.2000
      4  O         15.8210  -24.9860   -8.3300 O.2     1  UNL1       -0.2000
      5  C         15.8950  -23.5250   -6.0850 C.2     1  UNL1        0.1130
      6  C         14.8960  -22.6270   -6.5080 C.2     1  UNL1        0.0350
      7  C         14.1440  -21.8940   -5.5880 C.2     1  UNL1       -0.0600
      8  C         14.4380  -22.0250   -4.2330 C.2     1  UNL1        0.0090
      9  C         13.0780  -20.9460   -6.0530 C.3     1  UNL1        0.0480
     10  C         15.4700  -22.8690   -3.8100 C.2     1  UNL1        0.0390
     11  C         16.2290  -23.6090   -4.7290 C.2     1  UNL1        0.0910
     12  O         17.2770  -24.3990   -4.3620 O.2     1  UNL1       -0.3540
     13  C         17.9660  -24.0740   -3.1600 C.3     1  UNL1        0.2100
     14  C         17.1000  -22.7240   -9.4720 C.3     1  UNL1        0.2450
     15  C         18.0700  -22.0210  -10.4050 C.2     1  UNL1        0.2410
     16  O         17.8430  -20.8850  -10.8130 O.2     1  UNL1       -0.2710
     17  N         19.1930  -22.7830  -10.6830 N.am    1  UNL1       -0.3260
     18  H         19.0880  -23.7840  -10.5340 H       1  UNL1        0.1690
     19  C         20.3590  -22.3870  -11.3650 C.2     1  UNL1        0.0340
     20  C         21.5650  -22.9760  -10.9570 C.2     1  UNL1        0.0300
     21  C         22.7740  -22.6380  -11.5740 C.2     1  UNL1        0.0190
     22  C         22.7860  -21.7050  -12.6150 C.2     1  UNL1        0.0320
     23  C         21.5830  -21.1240  -13.0360 C.2     1  UNL1        0.0190
     24  C         20.3790  -21.4540  -12.4040 C.2     1  UNL1        0.0300
     25  C         24.0420  -21.3290  -13.3120 C.2     1  UNL1        0.2490
     26  N         23.9300  -20.4810  -14.3790 N.am    1  UNL1       -0.3660
     27  H         23.0500  -20.3550  -14.8590 H       1  UNL1        0.1590
     28  H         24.7740  -20.3520  -14.9200 H       1  UNL1        0.1590
     29  O         25.1270  -21.7810  -12.9730 O.2     1  UNL1       -0.2680
     30  C         18.6230  -22.4670   -7.5070 C.2     1  UNL1        0.0460
     31  C         18.2740  -21.7200   -6.3780 C.2     1  UNL1        0.0370
     32  C         19.2390  -20.9810   -5.6830 C.2     1  UNL1       -0.0590
     33  C         18.8390  -20.1550   -4.4960 C.3     1  UNL1        0.0480
     34  C         20.5660  -20.9970   -6.1330 C.2     1  UNL1        0.0130
     35  C         20.9350  -21.7610   -7.2470 C.2     1  UNL1       -0.0590
     36  C         22.3520  -21.7670   -7.7320 C.3     1  UNL1        0.0480
     37  C         19.9510  -22.4840   -7.9360 C.2     1  UNL1        0.0370
@<TRIPOS>BOND
     1    28    26    1
     2    27    26    1
     3    26    25   am
     4    25    29    2
     5    25    22    1
     6    23    22    2
     7    23    24    1
     8    22    21    1
     9    24    19    2
    10    21    20    2
    11    19    20    1
    12    19    17    1
    13    16    15    2
    14    17    18    1
    15    17    15   am
    16    15    14    1
    17    14     1    1
    18     4     2    2
    19     1    30    1
    20     1     2    1
    21    37    30    2
    22    37    35    1
    23    36    35    1
    24    30    31    1
    25     2     3    2
    26     2     5    1
    27    35    34    2
    28     6     5    2
    29     6     7    1
    30    31    32    2
    31    34    32    1
    32     5    11    1
    33     9     7    1
    34    32    33    1
    35     7     8    2
    36    11    12    1
    37    11    10    2
    38    12    13    1
    39     8    10    1
