@<TRIPOS>MOLECULE
5803_out_ligand_01.pdbqt
 34 37 0 0 0
SMALL
GASTEIGER

@<TRIPOS>ATOM
      1  C         21.5650  -22.7680  -10.0360 C.2     1  UNL1        0.0750
      2  C         20.8910  -21.9070  -10.9040 C.2     1  UNL1        0.0270
      3  C         19.4990  -22.0040  -11.0370 C.2     1  UNL1        0.0310
      4  C         18.7650  -22.9400  -10.2960 C.2     1  UNL1        0.0310
      5  C         19.4710  -23.7940   -9.4270 C.2     1  UNL1        0.0310
      6  C         20.8590  -23.7060   -9.2830 C.2     1  UNL1        0.0270
      7  N         17.3720  -23.1110  -10.4010 N.pl3   1  UNL1       -0.3660
      8  H         17.1080  -23.9190  -10.9510 H       1  UNL1        0.1650
      9  C         16.3610  -22.4450   -9.7590 C.2     1  UNL1        0.0920
     10  C         15.7910  -22.6380   -8.5600 C.2     1  UNL1        0.0720
     11  C         16.0630  -23.6520   -7.5060 C.2     1  UNL1        0.1840
     12  O         16.2660  -24.8230   -7.8130 O.2     1  UNL1       -0.2880
     13  C         16.1230  -23.2530   -6.0920 C.2     1  UNL1        0.0250
     14  C         15.1000  -23.7310   -5.2620 C.2     1  UNL1        0.0160
     15  C         15.1240  -23.4400   -3.9040 C.2     1  UNL1        0.0020
     16  C         16.1600  -22.6640   -3.3810 C.2     1  UNL1        0.0120
     17  C         17.1810  -22.1570   -4.2060 C.2     1  UNL1       -0.0250
     18  C         18.2090  -21.3640   -3.6630 C.2     1  UNL1        0.0120
     19  C         17.1720  -22.4420   -5.5930 C.2     1  UNL1       -0.0120
     20  C         19.2220  -20.8500   -4.4730 C.2     1  UNL1        0.0010
     21  C         19.2200  -21.1200   -5.8360 C.2     1  UNL1        0.0010
     22  C         18.2080  -21.9030   -6.3930 C.2     1  UNL1        0.0130
     23  S         23.3320  -22.6400   -9.8640 S.O2    1  UNL1        0.2470
     24  O         23.7510  -23.6550   -8.9180 O.2     1  UNL1       -0.2050
     25  O         23.6530  -21.2390   -9.6870 O.2     1  UNL1       -0.2050
     26  N         23.8180  -23.1910  -11.4000 N.pl3   1  UNL1       -0.1580
     27  H         24.4210  -24.0020  -11.2190 H       1  UNL1        0.1480
     28  C         24.6260  -22.1940  -12.1070 C.ar    1  UNL1        0.1700
     29  O         25.9440  -21.9910  -11.8570 O.2     1  UNL1       -0.2000
     30  N         26.4400  -21.0390  -12.7290 N.ar    1  UNL1       -0.1310
     31  C         25.4030  -20.6810  -13.5010 C.ar    1  UNL1        0.0680
     32  C         25.5950  -19.6510  -14.5520 C.3     1  UNL1        0.0730
     33  C         24.2220  -21.4020  -13.1610 C.ar    1  UNL1        0.0130
     34  C         22.8790  -21.3120  -13.7880 C.3     1  UNL1        0.0540
@<TRIPOS>BOND
     1    32    31    1
     2    34    33    1
     3    31    33   ar
     4    31    30   ar
     5    33    28   ar
     6    30    29   ar
     7    28    29   ar
     8    28    26    1
     9    26    27    1
    10    26    23    1
    11     3     2    1
    12     3     4    2
    13     8     7    1
    14     2     1    2
    15     7     4    1
    16     7     9    1
    17     4     5    1
    18     1    23    1
    19     1     6    1
    20    23    25    2
    21    23    24    2
    22     9    10    2
    23     5     6    2
    24    10    11    1
    25    12    11    2
    26    11    13    1
    27    22    21    2
    28    22    19    1
    29    13    19    2
    30    13    14    1
    31    21    20    1
    32    19    17    1
    33    14    15    2
    34    20    18    2
    35    17    18    1
    36    17    16    2
    37    15    16    1
