@<TRIPOS>MOLECULE
58080_out_ligand_01.pdbqt
 28 30 0 0 0
SMALL
GASTEIGER

@<TRIPOS>ATOM
      1  N         23.3250  -23.3590  -11.2410 N.pl3   1  UNL1       -0.1800
      2  H         23.2260  -24.3860  -11.2050 H       1  UNL1        0.1460
      3  C         24.3080  -22.9170  -12.1900 C.2     1  UNL1        0.0380
      4  C         25.5790  -23.4960  -12.1520 C.2     1  UNL1        0.0250
      5  C         26.5350  -23.1530  -13.1100 C.2     1  UNL1        0.0020
      6  C         26.2240  -22.2360  -14.1130 C.2     1  UNL1        0.0010
      7  C         24.9540  -21.6570  -14.1640 C.2     1  UNL1        0.0190
      8  C         23.9870  -22.0040  -13.2090 C.2     1  UNL1        0.0540
      9  C         22.6400  -21.3800  -13.2440 C.2     1  UNL1        0.2530
     10  N         21.8160  -21.6510  -12.1740 N.am    1  UNL1       -0.3530
     11  H         22.2470  -22.0010  -11.3280 H       1  UNL1        0.1630
     12  O         22.3370  -20.6410  -14.1760 O.2     1  UNL1       -0.2680
     13  C         20.5610  -20.9560  -12.0450 C.3     1  UNL1        0.1490
     14  C         19.5630  -21.9090  -11.4690 C.2     1  UNL1       -0.0180
     15  C         18.5280  -21.5480  -10.6990 C.2     1  UNL1        0.0080
     16  S         23.5300  -22.8070   -9.6460 S.O2    1  UNL1        0.2450
     17  O         23.7270  -21.3720   -9.6600 O.2     1  UNL1       -0.2060
     18  O         24.4860  -23.6890   -9.0110 O.2     1  UNL1       -0.2060
     19  C         21.9470  -23.1580   -8.9240 C.2     1  UNL1        0.0750
     20  C         21.2900  -24.3400   -9.2680 C.2     1  UNL1        0.0260
     21  C         20.0440  -24.6180   -8.7060 C.2     1  UNL1        0.0140
     22  C         19.4500  -23.7260   -7.7980 C.2     1  UNL1       -0.0260
     23  C         18.1940  -23.9930   -7.2290 C.2     1  UNL1        0.0120
     24  C         20.1290  -22.5350   -7.4450 C.2     1  UNL1       -0.0250
     25  C         17.6160  -23.0990   -6.3260 C.2     1  UNL1        0.0010
     26  C         18.2850  -21.9290   -5.9790 C.2     1  UNL1        0.0010
     27  C         19.5330  -21.6480   -6.5340 C.2     1  UNL1        0.0120
     28  C         21.3830  -22.2620   -8.0110 C.2     1  UNL1        0.0370
@<TRIPOS>BOND
     1    12     9    2
     2     7     6    2
     3     7     8    1
     4     6     5    1
     5     9     8    1
     6     9    10   am
     7     8     3    2
     8     5     4    2
     9     3     4    1
    10     3     1    1
    11    10    13    1
    12    10    11    1
    13    13    14    1
    14    14    15    2
    15     1     2    1
    16     1    16    1
    17    17    16    2
    18    16    18    2
    19    16    19    1
    20    20    19    2
    21    20    21    1
    22    19    28    1
    23    21    22    2
    24    28    24    2
    25    22    24    1
    26    22    23    1
    27    24    27    1
    28    23    25    2
    29    27    26    2
    30    25    26    1
