@<TRIPOS>MOLECULE
58131_out_ligand_01.pdbqt
 29 31 0 0 0
SMALL
GASTEIGER

@<TRIPOS>ATOM
      1  C         16.2410  -23.4630   -7.7420 C.2     1  UNL1        0.0370
      2  C         16.0790  -23.3200   -6.4100 C.2     1  UNL1        0.0550
      3  C         14.9400  -23.9340   -5.7950 C.1     1  UNL1        0.1000
      4  N         14.0190  -24.4430   -5.3050 N.1     1  UNL1       -0.1910
      5  C         17.0080  -22.5550   -5.5470 C.2     1  UNL1       -0.0130
      6  C         16.9130  -22.6170   -4.1450 C.2     1  UNL1        0.0130
      7  C         17.7950  -21.8940   -3.3340 C.2     1  UNL1        0.0040
      8  C         18.7860  -21.1080   -3.9170 C.2     1  UNL1        0.0420
      9  C         18.8890  -21.0530   -5.3010 C.2     1  UNL1        0.1170
     10  F         19.8400  -20.2940   -5.8600 F       1  UNL1       -0.2060
     11  C         18.0180  -21.7690   -6.1180 C.2     1  UNL1        0.0550
     12  C         17.2960  -22.9560   -8.5580 C.2     1  UNL1       -0.0100
     13  C         17.1350  -22.0220   -9.5980 C.2     1  UNL1        0.0380
     14  C         18.3790  -21.7720  -10.1430 C.2     1  UNL1        0.0140
     15  C         18.7100  -20.7640  -11.1910 C.3     1  UNL1        0.0680
     16  N         19.3110  -22.5620   -9.4730 N.pl3   1  UNL1       -0.3190
     17  C         18.6270  -23.3350   -8.5290 C.2     1  UNL1        0.0230
     18  C         19.2720  -24.4320   -7.7430 C.3     1  UNL1        0.0690
     19  C         20.7200  -22.5760   -9.6990 C.2     1  UNL1        0.0390
     20  C         21.2280  -22.8400  -10.9760 C.2     1  UNL1        0.0310
     21  C         22.6100  -22.8460  -11.1890 C.2     1  UNL1        0.0190
     22  C         23.4920  -22.5970  -10.1310 C.2     1  UNL1        0.0320
     23  C         22.9820  -22.3180   -8.8570 C.2     1  UNL1        0.0190
     24  C         21.5990  -22.3130   -8.6420 C.2     1  UNL1        0.0310
     25  C         24.9530  -22.6100  -10.4130 C.2     1  UNL1        0.2490
     26  N         25.6570  -23.7220  -10.0430 N.am    1  UNL1       -0.3660
     27  H         25.2060  -24.6040   -9.8450 H       1  UNL1        0.1590
     28  H         26.6170  -23.7580  -10.3650 H       1  UNL1        0.1590
     29  O         25.5060  -21.6810  -10.9870 O.2     1  UNL1       -0.2680
@<TRIPOS>BOND
     1    15    14    1
     2    21    20    1
     3    21    22    2
     4    29    25    2
     5    20    19    2
     6    25    22    1
     7    25    26   am
     8    28    26    1
     9    14    13    2
    10    14    16    1
    11    22    23    1
    12    26    27    1
    13    19    16    1
    14    19    24    1
    15    13    12    1
    16    16    17    1
    17    23    24    2
    18    12    17    2
    19    12     1    1
    20    17    18    1
    21     1     2    2
    22     2     3    1
    23     2     5    1
    24    11     5    2
    25    11     9    1
    26    10     9    1
    27     3     4    3
    28     5     6    1
    29     9     8    2
    30     6     7    2
    31     8     7    1
