@<TRIPOS>MOLECULE
58133_out_ligand_01.pdbqt
 41 45 0 0 0
SMALL
GASTEIGER

@<TRIPOS>ATOM
      1  C         20.1490  -22.2670  -11.3850 C.2     1  UNL1        0.1040
      2  C         20.5570  -21.5670  -12.5220 C.2     1  UNL1        0.0520
      3  C         21.9200  -21.3730  -12.7730 C.2     1  UNL1       -0.0130
      4  C         22.8860  -21.8260  -11.8730 C.2     1  UNL1        0.0350
      5  C         22.4840  -22.5090  -10.7270 C.2     1  UNL1        0.0480
      6 BR         23.8240  -23.1100   -9.5240 Br      1  UNL1       -0.0480
      7  C         21.1230  -22.7450  -10.4880 C.2     1  UNL1        0.1190
      8  C         22.2970  -20.6180  -13.9840 C.2     1  UNL1        0.1500
      9  N         23.2030  -20.8850  -14.8790 N.2     1  UNL1       -0.1840
     10  N         23.8220  -22.1080  -14.8680 N.am    1  UNL1       -0.2460
     11  C         24.4460  -22.6140  -16.0130 C.2     1  UNL1        0.2500
     12  O         24.2570  -22.2330  -17.1670 O.2     1  UNL1       -0.2700
     13  H         24.3870  -22.2790  -14.0310 H       1  UNL1        0.1920
     14  C         25.3850  -23.7820  -15.6930 C.3     1  UNL1        0.1970
     15  N         26.6440  -23.3400  -15.0600 N.pl3   1  UNL1       -0.2830
     16  H         26.9650  -22.4640  -15.4730 H       1  UNL1        0.1280
     17  C         26.7470  -23.2480  -13.6520 C.2     1  UNL1        0.0190
     18  C         26.9960  -24.3740  -12.8500 C.2     1  UNL1        0.0240
     19  C         27.1210  -24.2670  -11.4670 C.2     1  UNL1        0.0030
     20  C         27.0280  -23.0250  -10.8540 C.2     1  UNL1        0.0120
     21  C         26.8400  -21.8660  -11.6150 C.2     1  UNL1       -0.0240
     22  C         26.7860  -20.6150  -10.9770 C.2     1  UNL1        0.0120
     23  C         26.7190  -21.9580  -13.0270 C.2     1  UNL1       -0.0050
     24  C         26.6330  -19.4400  -11.7100 C.2     1  UNL1        0.0010
     25  C         26.5380  -19.5020  -13.0930 C.2     1  UNL1        0.0010
     26  C         26.5830  -20.7400  -13.7390 C.2     1  UNL1        0.0140
     27  O         18.8410  -22.4800  -11.0430 O.2     1  UNL1       -0.3490
     28  C         17.9480  -21.3650  -11.0650 C.3     1  UNL1        0.1710
     29  C         16.7120  -21.6710  -10.2400 C.3     1  UNL1        0.0340
     30  O         20.7510  -23.3860   -9.3300 O.2     1  UNL1       -0.3420
     31  C         20.5030  -22.4440   -8.2800 C.3     1  UNL1        0.2150
     32  C         19.3880  -22.9760   -7.4030 C.2     1  UNL1       -0.0230
     33  C         18.7620  -24.1770   -7.7810 C.2     1  UNL1        0.0100
     34  C         17.7190  -24.7050   -7.0270 C.2     1  UNL1        0.0020
     35  C         17.2900  -24.0420   -5.8800 C.2     1  UNL1        0.0120
     36  C         17.9020  -22.8510   -5.4650 C.2     1  UNL1       -0.0250
     37  C         17.4600  -22.2030   -4.2990 C.2     1  UNL1        0.0120
     38  C         18.9690  -22.3020   -6.2200 C.2     1  UNL1       -0.0180
     39  C         18.0590  -21.0220   -3.8620 C.2     1  UNL1        0.0010
     40  C         19.1110  -20.4770   -4.5840 C.2     1  UNL1        0.0010
     41  C         19.5590  -21.1080   -5.7470 C.2     1  UNL1        0.0130
@<TRIPOS>BOND
     1    12    11    2
     2    11    14    1
     3    11    10   am
     4    14    15    1
     5    16    15    1
     6    15    17    1
     7     9    10    1
     8     9     8    2
     9    10    13    1
    10     8     3    1
    11    26    25    2
    12    26    23    1
    13    17    23    2
    14    17    18    1
    15    25    24    1
    16    23    21    1
    17    18    19    2
    18     3     2    1
    19     3     4    2
    20     2     1    2
    21     4     5    1
    22    24    22    2
    23    21    22    1
    24    21    20    2
    25    19    20    1
    26     1    27    1
    27     1     7    1
    28    28    27    1
    29    28    29    1
    30     5     7    2
    31     5     6    1
    32     7    30    1
    33    30    31    1
    34    31    32    1
    35    33    32    2
    36    33    34    1
    37    32    38    1
    38    34    35    2
    39    38    41    1
    40    38    36    2
    41    35    36    1
    42    41    40    2
    43    36    37    1
    44    40    39    1
    45    37    39    2
