@<TRIPOS>MOLECULE
58177_out_ligand_01.pdbqt
 30 32 0 0 0
SMALL
GASTEIGER

@<TRIPOS>ATOM
      1  C         16.7110  -20.8750  -11.2830 C.3     1  UNL1        0.0500
      2  C         18.1040  -21.4180  -11.1150 C.2     1  UNL1       -0.0390
      3  C         19.0970  -20.9950  -12.0160 C.2     1  UNL1        0.0090
      4  C         20.4120  -21.4540  -11.9090 C.2     1  UNL1        0.0170
      5  C         20.7630  -22.3350  -10.8830 C.2     1  UNL1        0.0330
      6  C         19.7920  -22.7710   -9.9770 C.2     1  UNL1        0.0420
      7  C         18.4700  -22.3130  -10.0880 C.2     1  UNL1        0.0810
      8  S         17.2860  -22.9030   -8.8800 S.O2    1  UNL1        0.2460
      9  O         16.5930  -21.7500   -8.3460 O.2     1  UNL1       -0.2060
     10  O         16.5640  -24.0070   -9.4730 O.2     1  UNL1       -0.2060
     11  N         18.3480  -23.4620   -7.6690 N.pl3   1  UNL1       -0.1810
     12  H         19.2910  -23.5200   -8.0530 H       1  UNL1        0.1460
     13  C         18.2980  -22.7280   -6.4340 C.2     1  UNL1        0.0290
     14  C         19.2400  -21.7130   -6.2440 C.2     1  UNL1        0.0250
     15  C         19.2420  -20.9660   -5.0720 C.2     1  UNL1        0.0020
     16  C         18.2940  -21.2240   -4.0870 C.2     1  UNL1        0.0070
     17  C         17.3360  -22.2370   -4.2560 C.2     1  UNL1       -0.0540
     18  C         16.3340  -22.4610   -3.1530 C.3     1  UNL1        0.0490
     19  C         17.3480  -23.0250   -5.4320 C.2     1  UNL1       -0.0340
     20  C         16.3290  -24.1190   -5.6330 C.3     1  UNL1        0.0500
     21  C         22.1490  -22.8640  -10.7510 C.2     1  UNL1        0.2560
     22  O         22.3930  -23.5920   -9.7970 O.2     1  UNL1       -0.2670
     23  N         23.0250  -22.4380  -11.7300 N.am    1  UNL1       -0.3230
     24  H         22.6870  -21.7410  -12.3810 H       1  UNL1        0.1690
     25  C         24.3800  -22.8020  -11.8830 C.2     1  UNL1        0.0350
     26  C         25.2870  -22.3040  -10.9370 C.2     1  UNL1        0.0290
     27  C         26.6470  -22.6140  -11.0200 C.2     1  UNL1        0.0020
     28  C         27.1140  -23.4220  -12.0520 C.2     1  UNL1        0.0000
     29  C         26.2210  -23.9190  -12.9990 C.2     1  UNL1        0.0020
     30  C         24.8590  -23.6090  -12.9150 C.2     1  UNL1        0.0290
@<TRIPOS>BOND
     1    29    30    1
     2    29    28    2
     3    30    25    2
     4    24    23    1
     5    28    27    1
     6     3     4    1
     7     3     2    2
     8     4     5    2
     9    25    23    1
    10    25    26    1
    11    23    21   am
    12     1     2    1
    13     2     7    1
    14    27    26    2
    15     5    21    1
    16     5     6    1
    17    21    22    2
    18     7     6    2
    19     7     8    1
    20    10     8    2
    21     8     9    2
    22     8    11    1
    23    12    11    1
    24    11    13    1
    25    13    14    2
    26    13    19    1
    27    14    15    1
    28    20    19    1
    29    19    17    2
    30    15    16    2
    31    17    16    1
    32    17    18    1
