@<TRIPOS>MOLECULE
58222_out_ligand_01.pdbqt
 34 37 0 0 0
SMALL
GASTEIGER

@<TRIPOS>ATOM
      1  C         19.3190  -23.5280   -7.7360 C.2     1  UNL1        0.0800
      2  C         19.9680  -24.5440   -8.4420 C.2     1  UNL1        0.0280
      3  C         21.3010  -24.3780   -8.8310 C.2     1  UNL1        0.0380
      4  C         21.9800  -23.1970   -8.5190 C.2     1  UNL1        0.0690
      5  C         21.3120  -22.1790   -7.8300 C.2     1  UNL1        0.0380
      6  C         19.9820  -22.3370   -7.4380 C.2     1  UNL1        0.0280
      7  O         23.2730  -22.8980   -8.8540 O.2     1  UNL1       -0.3420
      8  C         23.5430  -21.6010   -9.3760 C.3     1  UNL1        0.2780
      9  C         24.3340  -21.5830  -10.6900 C.2     1  UNL1        0.2460
     10  O         25.3250  -20.8690  -10.8100 O.2     1  UNL1       -0.2710
     11  N         23.7830  -22.4070  -11.6540 N.am    1  UNL1       -0.3250
     12  H         22.9850  -22.9550  -11.3470 H       1  UNL1        0.1690
     13  C         24.2300  -22.6240  -12.9700 C.2     1  UNL1        0.0370
     14  C         24.9610  -23.7970  -13.2080 C.2     1  UNL1        0.0320
     15  C         25.4370  -24.0960  -14.4870 C.2     1  UNL1        0.0420
     16  C         25.1830  -23.2250  -15.5410 C.2     1  UNL1        0.1020
     17  C         24.4780  -22.0410  -15.3090 C.2     1  UNL1        0.1040
     18  O         25.6600  -23.5900  -16.7730 O.2     1  UNL1       -0.3460
     19  C         23.9900  -21.7480  -14.0320 C.2     1  UNL1        0.0690
     20  O         24.2180  -21.1200  -16.2930 O.2     1  UNL1       -0.3460
     21  C         25.0450  -21.3370  -17.4410 C.3     1  UNL1        0.2020
     22  C         25.0630  -22.8100  -17.8150 C.3     1  UNL1        0.2020
     23  S         17.6230  -23.7400   -7.2560 S.O2    1  UNL1        0.2630
     24  O         17.2190  -22.5320   -6.5660 O.2     1  UNL1       -0.2000
     25  O         17.4710  -25.0360   -6.6320 O.2     1  UNL1       -0.2000
     26  N         16.8120  -23.7240   -8.7400 N.pl3   1  UNL1       -0.2810
     27  H         16.6830  -24.6740   -9.0880 H       1  UNL1        0.1790
     28  C         17.1770  -22.7290   -9.6850 C.2     1  UNL1        0.0430
     29  C         16.2650  -21.7370  -10.0420 C.2     1  UNL1        0.0300
     30  C         16.6210  -20.7830  -10.9950 C.2     1  UNL1        0.0030
     31  C         17.8820  -20.8280  -11.5950 C.2     1  UNL1        0.0070
     32  C         18.7930  -21.8370  -11.2570 C.2     1  UNL1       -0.0600
     33  C         20.1560  -21.8710  -11.8820 C.3     1  UNL1        0.0480
     34  C         18.4340  -22.7820  -10.2880 C.2     1  UNL1        0.0370
@<TRIPOS>BOND
     1    22    21    1
     2    22    18    1
     3    21    20    1
     4    18    16    1
     5    20    17    1
     6    16    17    2
     7    16    15    1
     8    17    19    1
     9    15    14    2
    10    19    13    2
    11    14    13    1
    12    13    11    1
    13    33    32    1
    14    11    12    1
    15    11     9   am
    16    31    32    2
    17    31    30    1
    18    32    34    1
    19    30    29    2
    20    10     9    2
    21     9     8    1
    22    34    28    2
    23    29    28    1
    24    28    26    1
    25     8     7    1
    26    27    26    1
    27     7     4    1
    28     3     4    2
    29     3     2    1
    30    26    23    1
    31     4     5    1
    32     2     1    2
    33     5     6    2
    34     1     6    1
    35     1    23    1
    36    23    25    2
    37    23    24    2
