@<TRIPOS>MOLECULE
58274_out_ligand_01.pdbqt
 32 34 0 0 0
SMALL
GASTEIGER

@<TRIPOS>ATOM
      1  C         19.2950  -22.8130   -9.1470 C.2     1  UNL1        0.0330
      2  C         18.6400  -22.2870  -10.2620 C.2     1  UNL1        0.0170
      3  C         19.3870  -21.8000  -11.3380 C.2     1  UNL1        0.0090
      4  C         20.7950  -21.8360  -11.3300 C.2     1  UNL1       -0.0390
      5  C         21.5130  -21.2640  -12.5190 C.3     1  UNL1        0.0500
      6  C         21.4420  -22.3830  -10.2040 C.2     1  UNL1        0.0860
      7  C         20.6880  -22.8630   -9.1170 C.2     1  UNL1        0.0420
      8  S         23.2200  -22.4690  -10.0110 S.O2    1  UNL1        0.2630
      9  O         23.4710  -23.2680   -8.8270 O.2     1  UNL1       -0.2000
     10  O         23.7910  -21.1460  -10.1270 O.2     1  UNL1       -0.2000
     11  N         23.7010  -23.4200  -11.3180 N.pl3   1  UNL1       -0.2800
     12  H         22.9300  -23.9390  -11.7290 H       1  UNL1        0.1790
     13  C         24.7690  -23.0000  -12.1580 C.2     1  UNL1        0.0490
     14  C         24.4580  -22.4050  -13.3860 C.2     1  UNL1        0.0370
     15  C         25.4650  -22.0070  -14.2710 C.2     1  UNL1       -0.0600
     16  C         25.1100  -21.3460  -15.5690 C.3     1  UNL1        0.0480
     17  C         26.7980  -22.1920  -13.9010 C.2     1  UNL1        0.0070
     18  C         27.1160  -22.7750  -12.6730 C.2     1  UNL1        0.0090
     19  C         26.1090  -23.1740  -11.7780 C.2     1  UNL1       -0.0350
     20  C         26.5270  -23.8140  -10.4850 C.3     1  UNL1        0.0500
     21  C         18.5400  -23.3630   -7.9930 C.2     1  UNL1        0.2560
     22  N         17.6490  -22.4770   -7.4200 N.am    1  UNL1       -0.3220
     23  H         17.6750  -21.5310   -7.7750 H       1  UNL1        0.1690
     24  O         18.7960  -24.5100   -7.6460 O.2     1  UNL1       -0.2670
     25  C         16.7710  -22.7120   -6.3350 C.2     1  UNL1        0.0410
     26  C         15.5510  -23.3780   -6.5030 C.2     1  UNL1        0.0300
     27  C         14.6860  -23.5830   -5.4260 C.2     1  UNL1        0.0020
     28  C         15.0260  -23.1230   -4.1620 C.2     1  UNL1        0.0010
     29  C         16.2340  -22.4560   -3.9740 C.2     1  UNL1        0.0090
     30  C         17.1210  -22.2430   -5.0470 C.2     1  UNL1       -0.0320
     31  C         18.4090  -21.5040   -4.7480 C.3     1  UNL1        0.0360
     32  C         18.6440  -21.3380   -3.2540 C.3     1  UNL1        0.0100
@<TRIPOS>BOND
     1    16    15    1
     2    15    17    2
     3    15    14    1
     4    17    18    1
     5    14    13    2
     6    18    19    2
     7     5     4    1
     8    13    19    1
     9    13    11    1
    10    19    20    1
    11    12    11    1
    12     3     4    2
    13     3     2    1
    14     4     6    1
    15    11     8    1
    16     2     1    2
    17     6     8    1
    18     6     7    2
    19    10     8    2
    20     8     9    2
    21     1     7    1
    22     1    21    1
    23    21    24    2
    24    21    22   am
    25    23    22    1
    26    22    25    1
    27    26    25    2
    28    26    27    1
    29    25    30    1
    30    27    28    2
    31    30    31    1
    32    30    29    2
    33    31    32    1
    34    28    29    1
