@<TRIPOS>MOLECULE
58272_out_ligand_01.pdbqt
 32 34 0 0 0
SMALL
GASTEIGER

@<TRIPOS>ATOM
      1  C         15.4840  -22.2520   -9.6680 C.3     1  UNL1        0.0500
      2  C         16.8950  -22.1190  -10.1680 C.2     1  UNL1       -0.0390
      3  C         17.1130  -21.3730  -11.3410 C.2     1  UNL1        0.0090
      4  C         18.4000  -21.1950  -11.8560 C.2     1  UNL1        0.0170
      5  C         19.5000  -21.7570  -11.2020 C.2     1  UNL1        0.0330
      6  C         19.3090  -22.4720  -10.0160 C.2     1  UNL1        0.0420
      7  C         18.0140  -22.6650   -9.5080 C.2     1  UNL1        0.0860
      8  C         20.8880  -21.5840  -11.7180 C.2     1  UNL1        0.2560
      9  O         21.0960  -20.6870  -12.5250 O.2     1  UNL1       -0.2670
     10  N         21.8190  -22.4580  -11.1820 N.am    1  UNL1       -0.3220
     11  H         21.4880  -23.0350  -10.4140 H       1  UNL1        0.1690
     12  C         23.1930  -22.5810  -11.5110 C.2     1  UNL1        0.0500
     13  C         23.6800  -22.2470  -12.7820 C.2     1  UNL1        0.0300
     14  C         25.0350  -22.3800  -13.1000 C.2     1  UNL1        0.0020
     15  C         25.9310  -22.8550  -12.1530 C.2     1  UNL1        0.0010
     16  C         25.4690  -23.1980  -10.8880 C.2     1  UNL1        0.0180
     17  C         24.1040  -23.0690  -10.5490 C.2     1  UNL1        0.0740
     18  C         23.7090  -23.4800   -9.1530 C.3     1  UNL1        0.4190
     19  F         24.7110  -24.1290   -8.4960 F       1  UNL1       -0.1660
     20  F         22.6360  -24.3250   -9.0990 F       1  UNL1       -0.1660
     21  F         23.3750  -22.4180   -8.3670 F       1  UNL1       -0.1660
     22  S         17.8620  -23.6180   -7.9980 S.O2    1  UNL1        0.2630
     23  O         19.1200  -24.2920   -7.7590 O.2     1  UNL1       -0.2000
     24  O         16.6260  -24.3690   -8.0560 O.2     1  UNL1       -0.2000
     25  N         17.7230  -22.4290   -6.8080 N.pl3   1  UNL1       -0.2810
     26  H         17.5760  -21.5010   -7.1990 H       1  UNL1        0.1790
     27  C         17.1140  -22.7440   -5.5600 C.2     1  UNL1        0.0420
     28  C         17.8480  -23.3020   -4.5130 C.2     1  UNL1        0.0300
     29  C         17.2140  -23.6290   -3.3130 C.2     1  UNL1        0.0020
     30  C         15.8490  -23.3940   -3.1570 C.2     1  UNL1        0.0000
     31  C         15.1160  -22.8270   -4.1990 C.2     1  UNL1        0.0020
     32  C         15.7480  -22.4990   -5.4000 C.2     1  UNL1        0.0300
@<TRIPOS>BOND
     1    14    13    1
     2    14    15    2
     3    13    12    2
     4     9     8    2
     5    15    16    1
     6     4     3    1
     7     4     5    2
     8     8     5    1
     9     8    10   am
    10    12    10    1
    11    12    17    1
    12     3     2    2
    13     5     6    1
    14    10    11    1
    15    16    17    2
    16    17    18    1
    17     2     1    1
    18     2     7    1
    19     6     7    2
    20     7    22    1
    21    18    20    1
    22    18    19    1
    23    18    21    1
    24    24    22    2
    25    22    23    2
    26    22    25    1
    27    26    25    1
    28    25    27    1
    29    27    32    2
    30    27    28    1
    31    32    31    1
    32    28    29    2
    33    31    30    2
    34    29    30    1
