@<TRIPOS>MOLECULE
58275_out_ligand_01.pdbqt
 34 37 0 0 0
SMALL
GASTEIGER

@<TRIPOS>ATOM
      1  C         22.7050  -22.4260  -11.5000 C.2     1  UNL1        0.0860
      2  C         22.0230  -23.0370  -10.4330 C.2     1  UNL1        0.0420
      3  C         20.6450  -22.8660  -10.2840 C.2     1  UNL1        0.0330
      4  C         19.9400  -22.0890  -11.2050 C.2     1  UNL1        0.0170
      5  C         20.6130  -21.5040  -12.2820 C.2     1  UNL1        0.0090
      6  C         22.0020  -21.6650  -12.4520 C.2     1  UNL1       -0.0390
      7  C         22.6450  -20.9950  -13.6340 C.3     1  UNL1        0.0500
      8  C         19.9800  -23.4750   -9.1000 C.2     1  UNL1        0.2560
      9  O         20.5050  -24.4640   -8.6050 O.2     1  UNL1       -0.2670
     10  N         18.8090  -22.8520   -8.7130 N.am    1  UNL1       -0.3220
     11  H         18.4620  -22.1420   -9.3380 H       1  UNL1        0.1690
     12  C         17.9860  -23.1510   -7.5920 C.2     1  UNL1        0.0460
     13  C         17.0030  -24.1460   -7.6640 C.2     1  UNL1        0.0300
     14  C         16.2110  -24.4550   -6.5610 C.2     1  UNL1        0.0030
     15  C         16.3930  -23.7730   -5.3640 C.2     1  UNL1        0.0120
     16  C         17.3660  -22.7730   -5.2490 C.2     1  UNL1       -0.0240
     17  C         17.5210  -22.1060   -4.0220 C.2     1  UNL1        0.0120
     18  C         18.1830  -22.4390   -6.3640 C.2     1  UNL1        0.0010
     19  C         18.4720  -21.1030   -3.8630 C.2     1  UNL1        0.0010
     20  C         19.2800  -20.7520   -4.9320 C.2     1  UNL1        0.0010
     21  C         19.1390  -21.4060   -6.1610 C.2     1  UNL1        0.0140
     22  S         24.4790  -22.6780  -11.5260 S.O2    1  UNL1        0.2630
     23  O         25.0660  -21.4460  -12.0100 O.2     1  UNL1       -0.2000
     24  O         24.9190  -23.2640  -10.2790 O.2     1  UNL1       -0.2000
     25  N         24.6800  -23.8170  -12.7610 N.pl3   1  UNL1       -0.2810
     26  H         24.9490  -24.7310  -12.4000 H       1  UNL1        0.1790
     27  C         25.2540  -23.3990  -13.9940 C.2     1  UNL1        0.0430
     28  C         26.5580  -22.9200  -14.0500 C.2     1  UNL1        0.0300
     29  C         27.1170  -22.5670  -15.2780 C.2     1  UNL1        0.0090
     30  C         26.3810  -22.6930  -16.4660 C.2     1  UNL1       -0.0560
     31  C         27.0200  -22.3020  -17.7710 C.3     1  UNL1        0.0490
     32  C         25.0530  -23.1630  -16.4090 C.2     1  UNL1       -0.0540
     33  C         24.5030  -23.5160  -15.1650 C.2     1  UNL1        0.0370
     34  C         24.2200  -23.3200  -17.6510 C.3     1  UNL1        0.0490
@<TRIPOS>BOND
     1    31    30    1
     2    34    32    1
     3    30    32    2
     4    30    29    1
     5    32    33    1
     6    29    28    2
     7    33    27    2
     8    28    27    1
     9    27    25    1
    10     7     6    1
    11    25    26    1
    12    25    22    1
    13     6     5    1
    14     6     1    2
    15     5     4    2
    16    23    22    2
    17    22     1    1
    18    22    24    2
    19     1     2    1
    20     4     3    1
    21     2     3    2
    22     3     8    1
    23    11    10    1
    24     8    10   am
    25     8     9    2
    26    10    12    1
    27    13    12    2
    28    13    14    1
    29    12    18    1
    30    14    15    2
    31    18    21    1
    32    18    16    2
    33    21    20    2
    34    15    16    1
    35    16    17    1
    36    20    19    1
    37    17    19    2
