@<TRIPOS>MOLECULE
58277_out_ligand_01.pdbqt
 32 35 0 0 0
SMALL
GASTEIGER

@<TRIPOS>ATOM
      1  C         19.5150  -22.1790   -9.7810 C.2     1  UNL1        0.0590
      2  C         19.3770  -21.2240  -10.8000 C.2     1  UNL1        0.0190
      3  C         18.1260  -20.9870  -11.3730 C.2     1  UNL1        0.0010
      4  C         17.0090  -21.6780  -10.9100 C.2     1  UNL1        0.0020
      5  C         17.1310  -22.5860   -9.8550 C.2     1  UNL1        0.0310
      6  C         18.3790  -22.8310   -9.2720 C.2     1  UNL1        0.0580
      7  C         20.8480  -22.4350   -9.1790 C.2     1  UNL1        0.2560
      8  O         20.8900  -22.6400   -7.9640 O.2     1  UNL1       -0.2670
      9  N         21.9840  -22.4500   -9.9820 N.am    1  UNL1       -0.3450
     10  C         22.0110  -22.6680  -11.4310 C.3     1  UNL1        0.1560
     11  C         23.2800  -22.5970   -9.3120 C.3     1  UNL1        0.1560
     12  C         23.1430  -21.8690  -12.1090 C.3     1  UNL1        0.2920
     13  N         24.4430  -21.9460  -11.4240 N.3     1  UNL1        0.0950
     14  C         24.4520  -22.8650  -10.2820 C.3     1  UNL1        0.2920
     15  C         25.6080  -22.0360  -12.3070 C.3     1  UNL1        0.3110
     16  C         25.4020  -22.7510  -13.6300 C.2     1  UNL1       -0.0300
     17  C         25.4310  -24.1540  -13.7000 C.2     1  UNL1        0.0090
     18  C         25.2260  -24.8120  -14.9150 C.2     1  UNL1        0.0010
     19  C         24.9950  -24.0780  -16.0770 C.2     1  UNL1        0.0000
     20  C         24.9740  -22.6840  -16.0280 C.2     1  UNL1        0.0010
     21  C         25.1820  -22.0250  -14.8150 C.2     1  UNL1        0.0090
     22  N         18.4580  -23.7040   -8.1380 N.pl3   1  UNL1       -0.2800
     23  H         18.8390  -24.6380   -8.3430 H       1  UNL1        0.1790
     24  S         17.1900  -23.7700   -7.0290 S.O2    1  UNL1        0.2630
     25  O         17.0090  -25.1360   -6.5790 O.2     1  UNL1       -0.2000
     26  O         16.0850  -23.0280   -7.6040 O.2     1  UNL1       -0.2000
     27  C         17.8010  -22.8200   -5.6520 C.2     1  UNL1        0.0790
     28  C         17.5170  -23.2250   -4.3440 C.2     1  UNL1        0.0250
     29  C         17.9280  -22.4280   -3.2750 C.2     1  UNL1        0.0020
     30  C         18.6170  -21.2350   -3.5140 C.2     1  UNL1        0.0000
     31  C         18.8960  -20.8350   -4.8230 C.2     1  UNL1        0.0020
     32  C         18.4840  -21.6240   -5.8970 C.2     1  UNL1        0.0250
@<TRIPOS>BOND
     1    19    20    2
     2    19    18    1
     3    20    21    1
     4    18    17    2
     5    21    16    2
     6    17    16    1
     7    16    15    1
     8    15    13    1
     9    12    10    1
    10    12    13    1
    11    10     9    1
    12    13    14    1
    13     3     4    2
    14     3     2    1
    15     4     5    1
    16     2     1    2
    17    14    11    1
    18     9    11    1
    19     9     7   am
    20     5     6    2
    21     1     6    1
    22     1     7    1
    23     6    22    1
    24     7     8    2
    25    23    22    1
    26    22    24    1
    27    26    24    2
    28    24    25    2
    29    24    27    1
    30    32    27    2
    31    32    31    1
    32    27    28    1
    33    31    30    2
    34    28    29    2
    35    30    29    1
