@<TRIPOS>MOLECULE
58289_out_ligand_01.pdbqt
 39 42 0 0 0
SMALL
GASTEIGER

@<TRIPOS>ATOM
      1  C         20.9520  -21.5900   -7.0170 C.2     1  UNL1        0.2560
      2  O         21.6800  -20.7270   -6.5430 O.2     1  UNL1       -0.2670
      3  N         21.2220  -22.4150   -8.0930 N.am    1  UNL1       -0.3230
      4  H         20.4570  -22.9770   -8.4430 H       1  UNL1        0.1690
      5  C         19.6090  -21.7800   -6.4040 C.2     1  UNL1        0.0330
      6  C         18.6390  -22.4770   -7.1270 C.2     1  UNL1        0.0420
      7  C         17.3400  -22.6290   -6.6150 C.2     1  UNL1        0.0860
      8  C         17.0100  -22.1180   -5.3460 C.2     1  UNL1       -0.0390
      9  C         17.9990  -21.4060   -4.6400 C.2     1  UNL1        0.0090
     10  C         15.6600  -22.2710   -4.7040 C.3     1  UNL1        0.0500
     11  C         19.2820  -21.2280   -5.1650 C.2     1  UNL1        0.0170
     12  S         16.1740  -23.4780   -7.6800 S.O2    1  UNL1        0.2630
     13  O         15.1170  -22.5740   -8.0810 O.2     1  UNL1       -0.2000
     14  O         15.8670  -24.7380   -7.0320 O.2     1  UNL1       -0.2000
     15  N         17.1000  -23.8510   -9.0440 N.pl3   1  UNL1       -0.2810
     16  H         17.7420  -24.6250   -8.8770 H       1  UNL1        0.1790
     17  C         17.5220  -22.8140   -9.9260 C.2     1  UNL1        0.0430
     18  C         16.6270  -21.7800  -10.2120 C.2     1  UNL1        0.0300
     19  C         16.9960  -20.7570  -11.0840 C.2     1  UNL1        0.0030
     20  C         18.2650  -20.7610  -11.6670 C.2     1  UNL1        0.0070
     21  C         19.1800  -21.7780  -11.3660 C.2     1  UNL1       -0.0600
     22  C         20.5390  -21.7830  -12.0080 C.3     1  UNL1        0.0480
     23  C         18.7990  -22.8080  -10.4950 C.2     1  UNL1        0.0370
     24  C         22.4280  -22.5060   -8.8190 C.2     1  UNL1        0.0350
     25  C         23.2180  -23.6580   -8.8780 C.2     1  UNL1        0.0310
     26  C         24.3990  -23.6750   -9.6280 C.2     1  UNL1        0.0270
     27  C         24.7810  -22.5400  -10.3450 C.2     1  UNL1        0.0790
     28  C         24.0140  -21.3740  -10.2790 C.2     1  UNL1        0.0270
     29  C         22.8380  -21.3650   -9.5240 C.2     1  UNL1        0.0310
     30  S         26.3060  -22.5460  -11.2690 S.O2    1  UNL1        0.2600
     31  O         27.1100  -23.6420  -10.7730 O.2     1  UNL1       -0.2000
     32  O         26.8140  -21.1880  -11.2690 O.2     1  UNL1       -0.2000
     33  N         25.8020  -22.9280  -12.8450 N.3     1  UNL1       -0.3070
     34  C         24.3950  -22.6820  -13.2070 C.3     1  UNL1        0.1350
     35  C         24.3060  -21.8660  -14.5010 C.3     1  UNL1        0.0210
     36  C         25.5420  -21.8980  -15.4040 C.3     1  UNL1        0.0020
     37  C         25.9510  -23.2820  -15.9050 C.3     1  UNL1        0.0020
     38  C         25.9110  -24.4190  -14.8860 C.3     1  UNL1        0.0210
     39  C         26.4630  -24.0860  -13.4980 C.3     1  UNL1        0.1350
@<TRIPOS>BOND
     1    37    36    1
     2    37    38    1
     3    36    35    1
     4    38    39    1
     5    35    34    1
     6    39    33    1
     7    34    33    1
     8    33    30    1
     9    22    21    1
    10    20    21    2
    11    20    19    1
    12    21    23    1
    13    32    30    2
    14    30    31    2
    15    30    27    1
    16    19    18    2
    17    23    17    2
    18    27    28    2
    19    27    26    1
    20    28    29    1
    21    18    17    1
    22    17    15    1
    23    26    25    2
    24    29    24    2
    25    15    16    1
    26    15    12    1
    27    25    24    1
    28    24     3    1
    29     4     3    1
    30     3     1   am
    31    13    12    2
    32    12    14    2
    33    12     7    1
    34     6     7    1
    35     6     5    2
    36     1     2    2
    37     1     5    1
    38     7     8    2
    39     5    11    1
    40     8    10    1
    41     8     9    1
    42    11     9    2
