@<TRIPOS>MOLECULE
58283_out_ligand_01.pdbqt
 31 33 0 0 0
SMALL
GASTEIGER

@<TRIPOS>ATOM
      1  C         16.7400  -20.6070  -11.2660 C.3     1  UNL1        0.0500
      2  C         18.1090  -21.2110  -11.1130 C.2     1  UNL1       -0.0390
      3  C         19.1370  -20.7350  -11.9470 C.2     1  UNL1        0.0090
      4  C         20.4360  -21.2400  -11.8560 C.2     1  UNL1        0.0170
      5  C         20.7260  -22.2500  -10.9360 C.2     1  UNL1        0.0330
      6  C         19.7130  -22.7710  -10.1290 C.2     1  UNL1        0.0420
      7  C         18.4140  -22.2380  -10.1960 C.2     1  UNL1        0.0860
      8  S         17.2020  -22.9180   -9.0650 S.O2    1  UNL1        0.2630
      9  O         16.5240  -24.0080   -9.7360 O.2     1  UNL1       -0.2000
     10  O         16.4400  -21.8310   -8.4900 O.2     1  UNL1       -0.2000
     11  N         18.1590  -23.5400   -7.8180 N.pl3   1  UNL1       -0.2800
     12  H         18.1380  -24.5550   -7.7750 H       1  UNL1        0.1790
     13  C         18.3240  -22.7920   -6.6130 C.2     1  UNL1        0.0490
     14  C         19.3040  -21.7970   -6.5770 C.2     1  UNL1        0.0310
     15  C         19.4460  -20.9870   -5.4570 C.2     1  UNL1        0.0030
     16  C         18.6000  -21.1610   -4.3660 C.2     1  UNL1        0.0070
     17  C         17.6150  -22.1620   -4.3720 C.2     1  UNL1       -0.0540
     18  C         16.7320  -22.3030   -3.1580 C.3     1  UNL1        0.0490
     19  C         17.4910  -23.0170   -5.4950 C.2     1  UNL1       -0.0290
     20  C         16.4470  -24.1050   -5.5090 C.3     1  UNL1        0.0510
     21  C         22.1030  -22.7920  -10.8000 C.2     1  UNL1        0.2560
     22  O         22.3080  -23.6640   -9.9660 O.2     1  UNL1       -0.2670
     23  N         23.0280  -22.1920  -11.6290 N.am    1  UNL1       -0.3220
     24  H         22.7230  -21.3800  -12.1550 H       1  UNL1        0.1690
     25  C         24.4000  -22.5050  -11.7750 C.2     1  UNL1        0.0520
     26  C         25.1910  -22.9760  -10.7230 C.2     1  UNL1        0.0310
     27  C         26.5400  -23.2860  -10.9290 C.2     1  UNL1        0.0020
     28  C         27.1150  -23.1280  -12.1880 C.2     1  UNL1        0.0020
     29  C         26.3430  -22.6550  -13.2480 C.2     1  UNL1        0.0210
     30  C         24.9940  -22.3490  -13.0430 C.2     1  UNL1        0.0370
     31 BR         23.9950  -21.7110  -14.5350 Br      1  UNL1       -0.0490
@<TRIPOS>BOND
     1    31    30    1
     2    29    30    1
     3    29    28    2
     4    30    25    2
     5    28    27    1
     6    24    23    1
     7     3     4    1
     8     3     2    2
     9     4     5    2
    10    25    23    1
    11    25    26    1
    12    23    21   am
    13     1     2    1
    14     2     7    1
    15     5    21    1
    16     5     6    1
    17    27    26    2
    18    21    22    2
    19     7     6    2
    20     7     8    1
    21     9     8    2
    22     8    10    2
    23     8    11    1
    24    11    12    1
    25    11    13    1
    26    13    14    2
    27    13    19    1
    28    14    15    1
    29    20    19    1
    30    19    17    2
    31    15    16    2
    32    17    16    1
    33    17    18    1
