@<TRIPOS>MOLECULE
58293_out_ligand_01.pdbqt
 43 46 0 0 0
SMALL
GASTEIGER

@<TRIPOS>ATOM
      1  C         21.9410  -22.1760  -11.1600 C.2     1  UNL1        0.2560
      2  O         22.4540  -21.8090  -10.1110 O.2     1  UNL1       -0.2670
      3  N         20.7050  -22.7730  -11.3260 N.am    1  UNL1       -0.3230
      4  H         20.3720  -22.8860  -12.2740 H       1  UNL1        0.1690
      5  C         22.6900  -21.9350  -12.4230 C.2     1  UNL1        0.0340
      6  C         23.6310  -22.8850  -12.8390 C.2     1  UNL1        0.0440
      7  C         24.3480  -22.7050  -14.0360 C.2     1  UNL1        0.1020
      8  C         24.1170  -21.5710  -14.8200 C.2     1  UNL1        0.0570
      9  C         23.1600  -20.6330  -14.4010 C.2     1  UNL1        0.0260
     10 CL         24.8850  -21.2280  -16.3250 Cl      1  UNL1       -0.0830
     11  C         22.4470  -20.8100  -13.2130 C.2     1  UNL1        0.0190
     12  S         25.5620  -23.9350  -14.4350 S.O2    1  UNL1        0.2650
     13  O         25.9870  -23.6700  -15.7960 O.2     1  UNL1       -0.2000
     14  O         25.0920  -25.2540  -14.0890 O.2     1  UNL1       -0.2000
     15  N         26.8780  -23.5020  -13.4730 N.pl3   1  UNL1       -0.2800
     16  H         27.2240  -24.2890  -12.9270 H       1  UNL1        0.1790
     17  C         26.8970  -22.2180  -12.8620 C.2     1  UNL1        0.0480
     18  C         27.1190  -21.1140  -13.6890 C.2     1  UNL1        0.0310
     19  C         27.1210  -19.8250  -13.1580 C.2     1  UNL1        0.0090
     20  C         26.8900  -19.6250  -11.7950 C.2     1  UNL1       -0.0610
     21  C         26.9070  -18.2420  -11.2150 C.3     1  UNL1        0.0480
     22  C         26.6950  -20.7400  -10.9670 C.2     1  UNL1        0.0150
     23  C         26.7070  -22.0470  -11.4850 C.2     1  UNL1       -0.0340
     24  C         26.4560  -23.1930  -10.5450 C.3     1  UNL1        0.0500
     25  C         19.8030  -23.1600  -10.3130 C.2     1  UNL1        0.0350
     26  C         20.1340  -24.0160   -9.2590 C.2     1  UNL1        0.0310
     27  C         19.1800  -24.3570   -8.2940 C.2     1  UNL1        0.0270
     28  C         17.8900  -23.8330   -8.3820 C.2     1  UNL1        0.0800
     29  C         17.5380  -22.9920   -9.4370 C.2     1  UNL1        0.0270
     30  C         18.4960  -22.6570  -10.3980 C.2     1  UNL1        0.0310
     31  S         16.6820  -24.2710   -7.1570 S.O2    1  UNL1        0.2630
     32  O         17.3740  -25.0070   -6.1200 O.2     1  UNL1       -0.2000
     33  O         15.5300  -24.8350   -7.8240 O.2     1  UNL1       -0.2000
     34  N         16.2780  -22.7780   -6.4790 N.pl3   1  UNL1       -0.2800
     35  H         15.9180  -22.1370   -7.1840 H       1  UNL1        0.1790
     36  C         17.1210  -22.2440   -5.4640 C.2     1  UNL1        0.0490
     37  C         18.2310  -21.4880   -5.8560 C.2     1  UNL1        0.0370
     38  C         19.0710  -20.9040   -4.9010 C.2     1  UNL1       -0.0600
     39  C         20.2420  -20.0710   -5.3310 C.3     1  UNL1        0.0480
     40  C         18.7680  -21.0630   -3.5470 C.2     1  UNL1        0.0070
     41  C         17.6600  -21.8170   -3.1530 C.2     1  UNL1        0.0090
     42  C         16.8260  -22.4240   -4.1040 C.2     1  UNL1       -0.0350
     43  C         15.6270  -23.2020   -3.6410 C.3     1  UNL1        0.0500
@<TRIPOS>BOND
     1    10     8    1
     2    13    12    2
     3     8     9    2
     4     8     7    1
     5    12    14    2
     6    12     7    1
     7    12    15    1
     8     9    11    1
     9     7     6    2
    10    18    19    1
    11    18    17    2
    12    15    16    1
    13    15    17    1
    14    11     5    2
    15    19    20    2
    16    17    23    1
    17     6     5    1
    18     5     1    1
    19     4     3    1
    20    20    21    1
    21    20    22    1
    22    23    22    2
    23    23    24    1
    24     3     1   am
    25     3    25    1
    26     1     2    2
    27    30    25    2
    28    30    29    1
    29    25    26    1
    30    29    28    2
    31    26    27    2
    32    28    27    1
    33    28    31    1
    34    33    31    2
    35    35    34    1
    36    31    34    1
    37    31    32    2
    38    34    36    1
    39    37    36    2
    40    37    38    1
    41    36    42    1
    42    39    38    1
    43    38    40    2
    44    42    43    1
    45    42    41    2
    46    40    41    1
