@<TRIPOS>MOLECULE
58294_out_ligand_01.pdbqt
 34 37 0 0 0
SMALL
GASTEIGER

@<TRIPOS>ATOM
      1  C         16.9240  -21.0090  -11.3440 C.3     1  UNL1        0.0500
      2  C         18.3830  -21.3080  -11.1370 C.2     1  UNL1       -0.0390
      3  C         19.3140  -20.6680  -11.9730 C.2     1  UNL1        0.0090
      4  C         20.6850  -20.9020  -11.8390 C.2     1  UNL1        0.0170
      5  C         21.1640  -21.7960  -10.8770 C.2     1  UNL1        0.0330
      6  C         20.2530  -22.4410  -10.0380 C.2     1  UNL1        0.0420
      7  C         18.8710  -22.1980  -10.1600 C.2     1  UNL1        0.0860
      8  C         22.6360  -21.9950  -10.7670 C.2     1  UNL1        0.2510
      9  O         23.2760  -21.3780   -9.9210 O.2     1  UNL1       -0.2680
     10  N         23.2170  -22.8620  -11.6670 N.am    1  UNL1       -0.3530
     11  H         22.6920  -23.1830  -12.4700 H       1  UNL1        0.1630
     12  C         24.6490  -23.0580  -11.7140 C.3     1  UNL1        0.1610
     13  C         25.1360  -23.1160  -13.1400 C.2     1  UNL1       -0.0380
     14  C         26.2560  -23.9120  -13.4760 C.2     1  UNL1        0.0120
     15  C         26.7290  -23.9750  -14.7910 C.2     1  UNL1        0.0400
     16  C         26.0610  -23.2410  -15.7460 C.2     1  UNL1        0.1050
     17  C         24.9750  -22.4610  -15.4310 C.2     1  UNL1        0.1050
     18  O         26.3770  -23.1820  -17.0680 O.2     1  UNL1       -0.3230
     19  C         24.4860  -22.3760  -14.1440 C.2     1  UNL1        0.0480
     20  O         24.4670  -21.8160  -16.5150 O.2     1  UNL1       -0.3230
     21  C         25.3410  -22.3020  -17.5550 C.3     1  UNL1        0.3520
     22  S         17.8000  -23.0910   -9.0340 S.O2    1  UNL1        0.2630
     23  O         16.6920  -23.6490   -9.7790 O.2     1  UNL1       -0.2000
     24  O         18.6410  -23.9510   -8.2270 O.2     1  UNL1       -0.2000
     25  N         17.1560  -21.8680   -8.0670 N.pl3   1  UNL1       -0.2800
     26  H         17.5050  -20.9410   -8.2980 H       1  UNL1        0.1790
     27  C         16.7850  -22.1550   -6.7220 C.2     1  UNL1        0.0490
     28  C         15.5200  -22.7080   -6.4980 C.2     1  UNL1        0.0310
     29  C         15.1210  -23.0640   -5.2150 C.2     1  UNL1        0.0030
     30  C         15.9920  -22.8770   -4.1450 C.2     1  UNL1        0.0070
     31  C         17.2700  -22.3300   -4.3460 C.2     1  UNL1       -0.0540
     32  C         18.1730  -22.1630   -3.1530 C.3     1  UNL1        0.0490
     33  C         17.6760  -21.9460   -5.6480 C.2     1  UNL1       -0.0290
     34  C         19.0540  -21.3710   -5.8460 C.3     1  UNL1        0.0510
@<TRIPOS>BOND
     1    21    18    1
     2    21    20    1
     3    18    16    1
     4    20    17    1
     5    16    17    2
     6    16    15    1
     7    17    19    1
     8    15    14    2
     9    19    13    2
    10    14    13    1
    11    13    12    1
    12    11    10    1
    13     3     4    1
    14     3     2    2
    15     4     5    2
    16    12    10    1
    17    10     8   am
    18     1     2    1
    19     2     7    1
    20     5     8    1
    21     5     6    1
    22     8     9    2
    23     7     6    2
    24     7    22    1
    25    23    22    2
    26    22    24    2
    27    22    25    1
    28    26    25    1
    29    25    27    1
    30    27    28    2
    31    27    33    1
    32    28    29    1
    33    34    33    1
    34    33    31    2
    35    29    30    2
    36    31    30    1
    37    31    32    1
