@<TRIPOS>MOLECULE
58299_out_ligand_01.pdbqt
 33 35 0 0 0
SMALL
GASTEIGER

@<TRIPOS>ATOM
      1  C         18.6980  -22.2220  -10.1730 C.2     1  UNL1        0.0860
      2  C         20.0100  -22.7210  -10.1660 C.2     1  UNL1        0.0420
      3  C         20.9430  -22.2500  -11.0940 C.2     1  UNL1        0.0330
      4  C         20.5650  -21.2900  -12.0370 C.2     1  UNL1        0.0170
      5  C         19.2600  -20.7930  -12.0400 C.2     1  UNL1        0.0090
      6  C         18.3040  -21.2520  -11.1170 C.2     1  UNL1       -0.0390
      7  C         16.9200  -20.6690  -11.1790 C.3     1  UNL1        0.0500
      8  C         22.3170  -22.8180  -11.0790 C.2     1  UNL1        0.2560
      9  O         22.6300  -23.5440  -10.1450 O.2     1  UNL1       -0.2670
     10  N         23.1150  -22.4220  -12.1370 N.am    1  UNL1       -0.3220
     11  H         22.7300  -21.7010  -12.7340 H       1  UNL1        0.1690
     12  C         24.4430  -22.8260  -12.4200 C.2     1  UNL1        0.0430
     13  C         24.7400  -23.8020  -13.3800 C.2     1  UNL1        0.0660
     14  C         26.0720  -24.1670  -13.6270 C.2     1  UNL1        0.1050
     15  C         27.1190  -23.5650  -12.9260 C.2     1  UNL1        0.0370
     16  C         26.8300  -22.5890  -11.9750 C.2     1  UNL1        0.0110
     17  C         25.5020  -22.2090  -11.7120 C.2     1  UNL1       -0.0350
     18  C         25.2640  -21.1520  -10.6640 C.3     1  UNL1        0.0500
     19  N         26.3750  -25.1910  -14.6360 N.pl3   1  UNL1       -0.1160
     20  O         25.8590  -25.0610  -15.7570 O.2     1  UNL1       -0.5320
     21  O         27.1190  -26.1270  -14.3130 O.2     1  UNL1       -0.5320
     22  S         17.5810  -22.8520   -8.9290 S.O2    1  UNL1        0.2630
     23  O         16.9460  -24.0400   -9.4620 O.2     1  UNL1       -0.2000
     24  O         16.7700  -21.7620   -8.4310 O.2     1  UNL1       -0.2000
     25  N         18.6300  -23.3750   -7.7090 N.pl3   1  UNL1       -0.2810
     26  H         18.6440  -24.3940   -7.6660 H       1  UNL1        0.1790
     27  C         18.5890  -22.6820   -6.4660 C.2     1  UNL1        0.0430
     28  C         19.3320  -21.5140   -6.3040 C.2     1  UNL1        0.0300
     29  C         19.2450  -20.7990   -5.1110 C.2     1  UNL1        0.0030
     30  C         18.4150  -21.2520   -4.0840 C.2     1  UNL1        0.0070
     31  C         17.6700  -22.4280   -4.2380 C.2     1  UNL1       -0.0600
     32  C         16.7340  -22.8800   -3.1560 C.3     1  UNL1        0.0480
     33  C         17.7530  -23.1330   -5.4450 C.2     1  UNL1        0.0370
@<TRIPOS>BOND
     1    20    19    2
     2    19    21    2
     3    19    14    1
     4    14    13    1
     5    14    15    2
     6    13    12    2
     7    15    16    1
     8    11    10    1
     9    12    10    1
    10    12    17    1
    11    10     8   am
    12     5     4    2
    13     5     6    1
    14     4     3    1
    15    16    17    2
    16    17    18    1
    17     7     6    1
    18     6     1    2
    19     3     8    1
    20     3     2    2
    21     8     9    2
    22     1     2    1
    23     1    22    1
    24    23    22    2
    25    22    24    2
    26    22    25    1
    27    25    26    1
    28    25    27    1
    29    27    28    2
    30    27    33    1
    31    28    29    1
    32    33    31    2
    33    29    30    2
    34    31    30    1
    35    31    32    1
