@<TRIPOS>MOLECULE
58301_out_ligand_01.pdbqt
 33 35 0 0 0
SMALL
GASTEIGER

@<TRIPOS>ATOM
      1  C         20.8670  -22.3280  -10.7550 C.2     1  UNL1        0.0330
      2  C         20.5670  -21.3150  -11.6670 C.2     1  UNL1        0.0170
      3  C         19.2620  -20.8190  -11.7480 C.2     1  UNL1        0.0090
      4  C         18.2290  -21.3340  -10.9400 C.2     1  UNL1       -0.0390
      5  C         16.8590  -20.7370  -11.0920 C.3     1  UNL1        0.0500
      6  C         18.5410  -22.3750  -10.0450 C.2     1  UNL1        0.0860
      7  C         19.8590  -22.8530   -9.9440 C.2     1  UNL1        0.0420
      8  C         22.2290  -22.9160  -10.6610 C.2     1  UNL1        0.2560
      9  N         23.1060  -22.5070  -11.6480 N.am    1  UNL1       -0.3230
     10  H         22.7960  -21.7540  -12.2490 H       1  UNL1        0.1690
     11  O         22.4630  -23.6650   -9.7220 O.2     1  UNL1       -0.2670
     12  C         24.4340  -22.9450  -11.8420 C.2     1  UNL1        0.0350
     13  C         25.3350  -22.7210  -10.7930 C.2     1  UNL1        0.0290
     14  C         26.6690  -23.1180  -10.9020 C.2     1  UNL1        0.0030
     15  C         27.1210  -23.7390  -12.0660 C.2     1  UNL1        0.0150
     16  C         26.2340  -23.9620  -13.1250 C.2     1  UNL1        0.0110
     17  C         24.8930  -23.5610  -13.0090 C.2     1  UNL1        0.0440
     18  C         26.6810  -24.6030  -14.3970 C.2     1  UNL1        0.1550
     19  C         26.6220  -23.8040  -15.6740 C.3     1  UNL1        0.0960
     20  O         27.0770  -25.7660  -14.3960 O.2     1  UNL1       -0.2930
     21  S         17.3500  -23.1600   -8.9630 S.O2    1  UNL1        0.2630
     22  O         16.2110  -23.5120   -9.7880 O.2     1  UNL1       -0.2000
     23  O         18.0010  -24.1660   -8.1540 O.2     1  UNL1       -0.2000
     24  N         16.8360  -21.8970   -7.9710 N.pl3   1  UNL1       -0.2800
     25  H         17.1960  -20.9900   -8.2570 H       1  UNL1        0.1790
     26  C         16.5630  -22.1330   -6.5930 C.2     1  UNL1        0.0490
     27  C         15.2760  -22.5450   -6.2360 C.2     1  UNL1        0.0310
     28  C         14.9610  -22.8200   -4.9090 C.2     1  UNL1        0.0030
     29  C         15.9360  -22.6820   -3.9260 C.2     1  UNL1        0.0070
     30  C         17.2340  -22.2620   -4.2570 C.2     1  UNL1       -0.0540
     31  C         18.2500  -22.1220   -3.1540 C.3     1  UNL1        0.0490
     32  C         17.5580  -21.9710   -5.6070 C.2     1  UNL1       -0.0290
     33  C         18.9580  -21.5150   -5.9350 C.3     1  UNL1        0.0510
@<TRIPOS>BOND
     1    19    18    1
     2    18    20    2
     3    18    16    1
     4    16    17    1
     5    16    15    2
     6    17    12    2
     7    10     9    1
     8    15    14    1
     9    12     9    1
    10    12    13    1
    11     3     2    1
    12     3     4    2
    13     2     1    2
    14     9     8   am
    15     5     4    1
    16     4     6    1
    17    14    13    2
    18     1     8    1
    19     1     7    1
    20     8    11    2
    21     6     7    2
    22     6    21    1
    23    22    21    2
    24    21    23    2
    25    21    24    1
    26    25    24    1
    27    24    26    1
    28    26    27    2
    29    26    32    1
    30    27    28    1
    31    33    32    1
    32    32    30    2
    33    28    29    2
    34    30    29    1
    35    30    31    1
