@<TRIPOS>MOLECULE
58323_out_ligand_01.pdbqt
 40 43 0 0 0
SMALL
GASTEIGER

@<TRIPOS>ATOM
      1  C         15.8410  -22.1630   -4.2610 C.3     1  UNL1        0.0500
      2  C         17.1680  -22.0530   -4.9590 C.2     1  UNL1       -0.0390
      3  C         18.1940  -21.3340   -4.3200 C.2     1  UNL1        0.0090
      4  C         19.4350  -21.1390   -4.9350 C.2     1  UNL1        0.0170
      5  C         19.6640  -21.6400   -6.2190 C.2     1  UNL1        0.0330
      6  C         18.6640  -22.3730   -6.8620 C.2     1  UNL1        0.0420
      7  C         17.4240  -22.5860   -6.2380 C.2     1  UNL1        0.0860
      8  C         20.9530  -21.4240   -6.9360 C.2     1  UNL1        0.2560
      9  O         21.7210  -20.5770   -6.4980 O.2     1  UNL1       -0.2670
     10  N         21.1660  -22.2610   -8.0180 N.am    1  UNL1       -0.3230
     11  H         20.4690  -22.9720   -8.1860 H       1  UNL1        0.1690
     12  C         22.3170  -22.3330   -8.8320 C.2     1  UNL1        0.0350
     13  C         22.8210  -21.2570   -9.5700 C.2     1  UNL1        0.0310
     14  C         23.9970  -21.3940  -10.3130 C.2     1  UNL1        0.0270
     15  C         24.6600  -22.6210  -10.3450 C.2     1  UNL1        0.0790
     16  C         24.1700  -23.7050   -9.6140 C.2     1  UNL1        0.0270
     17  C         22.9970  -23.5600   -8.8660 C.2     1  UNL1        0.0310
     18  S         26.2040  -22.7700  -11.2220 S.O2    1  UNL1        0.2600
     19  O         26.9400  -21.5400  -11.0200 O.2     1  UNL1       -0.2000
     20  O         26.7820  -24.0470  -10.8620 O.2     1  UNL1       -0.2000
     21  N         25.7160  -22.8430  -12.8550 N.3     1  UNL1       -0.3070
     22  C         25.3370  -21.5680  -13.4980 C.3     1  UNL1        0.1350
     23  C         24.2600  -21.7890  -14.5600 C.3     1  UNL1        0.0210
     24  C         24.8010  -22.4360  -15.8330 C.3     1  UNL1        0.0020
     25  C         24.8970  -23.9620  -15.7990 C.3     1  UNL1        0.0020
     26  C         25.4260  -24.6110  -14.5180 C.3     1  UNL1        0.0210
     27  C         26.4450  -23.7870  -13.7340 C.3     1  UNL1        0.1350
     28  S         16.2000  -23.5260   -7.1470 S.O2    1  UNL1        0.2630
     29  O         15.0730  -22.6630   -7.4260 O.2     1  UNL1       -0.2000
     30  O         16.0010  -24.7790   -6.4490 O.2     1  UNL1       -0.2000
     31  N         16.9720  -23.9050   -8.5940 N.pl3   1  UNL1       -0.2800
     32  H         17.5600  -24.7280   -8.5120 H       1  UNL1        0.1790
     33  C         17.2860  -22.9170   -9.5800 C.2     1  UNL1        0.0490
     34  C         16.3460  -21.9430   -9.9280 C.2     1  UNL1        0.0310
     35  C         16.6580  -20.9570  -10.8580 C.2     1  UNL1        0.0030
     36  C         17.9080  -20.9480  -11.4680 C.2     1  UNL1        0.0070
     37  C         18.8580  -21.9380  -11.1730 C.2     1  UNL1       -0.0540
     38  C         20.1900  -21.8800  -11.8760 C.3     1  UNL1        0.0490
     39  C         18.5400  -22.9570  -10.2400 C.2     1  UNL1       -0.0290
     40  C         19.5410  -24.0420   -9.9230 C.3     1  UNL1        0.0510
@<TRIPOS>BOND
     1    24    25    1
     2    24    23    1
     3    25    26    1
     4    23    22    1
     5    26    27    1
     6    27    21    1
     7    22    21    1
     8    21    18    1
     9    38    37    1
    10    36    37    2
    11    36    35    1
    12    18    19    2
    13    18    20    2
    14    18    15    1
    15    37    39    1
    16    35    34    2
    17    15    14    2
    18    15    16    1
    19    14    13    1
    20    39    40    1
    21    39    33    2
    22    34    33    1
    23    16    17    2
    24    33    31    1
    25    13    12    2
    26    17    12    1
    27    12    10    1
    28    31    32    1
    29    31    28    1
    30    11    10    1
    31    10     8   am
    32    29    28    2
    33    28    30    2
    34    28     7    1
    35     8     9    2
    36     8     5    1
    37     6     7    1
    38     6     5    2
    39     7     2    2
    40     5     4    1
    41     2     3    1
    42     2     1    1
    43     4     3    2
