@<TRIPOS>MOLECULE
58322_out_ligand_01.pdbqt
 31 34 0 0 0
SMALL
GASTEIGER

@<TRIPOS>ATOM
      1  C         18.8470  -22.4560  -10.0580 C.2     1  UNL1        0.0970
      2  C         20.1650  -22.9220   -9.9030 C.2     1  UNL1        0.0430
      3  C         21.1970  -22.4050  -10.6950 C.2     1  UNL1        0.0330
      4  C         20.9050  -21.4470  -11.6700 C.2     1  UNL1        0.0190
      5  C         19.5930  -20.9900  -11.8260 C.2     1  UNL1        0.0260
      6  C         18.5590  -21.4870  -11.0200 C.2     1  UNL1        0.0570
      7 CL         16.9950  -20.8170  -11.3000 Cl      1  UNL1       -0.0830
      8  S         17.5840  -23.1570   -9.0240 S.O2    1  UNL1        0.2470
      9  O         18.2390  -24.0550   -8.0930 O.2     1  UNL1       -0.2050
     10  O         16.5110  -23.6150   -9.8750 O.2     1  UNL1       -0.2050
     11  N         17.1170  -21.8010   -8.0970 N.pl3   1  UNL1       -0.1810
     12  H         17.8940  -21.1430   -8.1210 H       1  UNL1        0.1460
     13  C         16.7590  -22.1080   -6.7370 C.2     1  UNL1        0.0290
     14  C         15.4840  -22.6470   -6.5360 C.2     1  UNL1        0.0250
     15  C         15.0650  -23.0140   -5.2620 C.2     1  UNL1        0.0020
     16  C         15.9280  -22.8630   -4.1820 C.2     1  UNL1        0.0070
     17  C         17.2210  -22.3470   -4.3620 C.2     1  UNL1       -0.0540
     18  C         18.1160  -22.2230   -3.1550 C.3     1  UNL1        0.0490
     19  C         17.6460  -21.9400   -5.6520 C.2     1  UNL1       -0.0340
     20  C         19.0450  -21.4050   -5.8350 C.3     1  UNL1        0.0500
     21  C         22.5800  -22.9210  -10.4910 C.2     1  UNL1        0.2520
     22  O         22.8270  -23.6400   -9.5320 O.2     1  UNL1       -0.2680
     23  N         23.5280  -22.5080  -11.4060 N.am    1  UNL1       -0.3520
     24  H         23.3070  -21.7190  -11.9950 H       1  UNL1        0.1630
     25  C         24.9200  -22.8660  -11.2340 C.3     1  UNL1        0.0890
     26  C         25.8550  -21.6550  -11.0280 C.3     1  UNL1        0.0300
     27  C         26.9640  -21.9010  -12.0720 C.3     1  UNL1       -0.0120
     28  C         26.4060  -21.5810  -13.4670 C.3     1  UNL1        0.0050
     29  C         27.0450  -23.4270  -12.1120 C.3     1  UNL1        0.0110
     30  C         25.4560  -22.7570  -13.7320 C.3     1  UNL1        0.0070
     31  C         25.5580  -23.5910  -12.4420 C.3     1  UNL1        0.0090
@<TRIPOS>BOND
     1    30    28    1
     2    30    31    1
     3    28    27    1
     4    31    29    1
     5    31    25    1
     6    29    27    1
     7    27    26    1
     8    24    23    1
     9     5     4    2
    10     5     6    1
    11     4     3    1
    12    23    25    1
    13    23    21   am
    14     7     6    1
    15    25    26    1
    16     6     1    2
    17     3    21    1
    18     3     2    2
    19    21    22    2
    20     1     2    1
    21     1     8    1
    22    10     8    2
    23     8    11    1
    24     8     9    2
    25    12    11    1
    26    11    13    1
    27    13    14    2
    28    13    19    1
    29    14    15    1
    30    20    19    1
    31    19    17    2
    32    15    16    2
    33    17    16    1
    34    17    18    1
