@<TRIPOS>MOLECULE
58339_out_ligand_01.pdbqt
 40 45 0 0 0
SMALL
GASTEIGER

@<TRIPOS>ATOM
      1  C         24.6900  -22.7550  -14.4870 C.2     1  UNL1        0.1020
      2  C         23.7280  -22.6750  -13.4610 C.2     1  UNL1        0.0440
      3  C         22.8340  -21.6010  -13.4090 C.2     1  UNL1        0.0340
      4  C         22.8840  -20.6080  -14.3890 C.2     1  UNL1        0.0190
      5  C         23.8410  -20.6890  -15.4050 C.2     1  UNL1        0.0260
      6  C         24.7510  -21.7560  -15.4610 C.2     1  UNL1        0.0570
      7 CL         25.8390  -21.7350  -16.7990 Cl      1  UNL1       -0.0830
      8  C         21.8130  -21.5750  -12.3260 C.2     1  UNL1        0.2560
      9  O         20.8690  -20.8050  -12.4530 O.2     1  UNL1       -0.2670
     10  N         22.0420  -22.4620  -11.2910 N.am    1  UNL1       -0.3230
     11  H         22.8040  -23.1180  -11.4030 H       1  UNL1        0.1690
     12  C         21.2730  -22.6220  -10.1200 C.2     1  UNL1        0.0350
     13  C         20.0630  -23.3110  -10.2360 C.2     1  UNL1        0.0300
     14  C         19.2390  -23.5200   -9.1200 C.2     1  UNL1        0.0100
     15  C         19.6000  -23.0480   -7.8560 C.2     1  UNL1       -0.0530
     16  C         20.8220  -22.3590   -7.7540 C.2     1  UNL1        0.0100
     17  C         21.6470  -22.1480   -8.8680 C.2     1  UNL1        0.0300
     18  C         18.7630  -23.2300   -6.5960 C.3     1  UNL1        0.0270
     19  C         17.8260  -24.4680   -6.5700 C.3     1  UNL1       -0.0050
     20  C         17.4410  -24.7220   -5.0910 C.3     1  UNL1        0.0100
     21  C         16.5190  -24.2330   -7.3510 C.3     1  UNL1        0.0100
     22  C         16.7030  -23.4950   -4.5140 C.3     1  UNL1       -0.0130
     23  C         15.4180  -23.2630   -5.3250 C.3     1  UNL1        0.0090
     24  C         17.5950  -22.2410   -4.6240 C.3     1  UNL1        0.0100
     25  C         15.7730  -23.0070   -6.7990 C.3     1  UNL1       -0.0130
     26  C         16.6720  -21.7620   -6.8850 C.3     1  UNL1        0.0100
     27  C         17.9790  -21.9850   -6.1020 C.3     1  UNL1       -0.0050
     28  S         25.8070  -24.1330  -14.4270 S.O2    1  UNL1        0.2650
     29  O         26.5280  -24.1370  -15.6850 O.2     1  UNL1       -0.2000
     30  O         25.1250  -25.3330  -14.0010 O.2     1  UNL1       -0.2000
     31  N         26.9400  -23.6560  -13.2720 N.pl3   1  UNL1       -0.2800
     32  H         27.2730  -24.4450  -12.7200 H       1  UNL1        0.1790
     33  C         26.7710  -22.4090  -12.6110 C.2     1  UNL1        0.0490
     34  C         26.3660  -22.3310  -11.2720 C.2     1  UNL1       -0.0350
     35  C         26.1810  -21.0600  -10.7050 C.2     1  UNL1        0.0090
     36  C         26.0640  -23.5430  -10.4360 C.3     1  UNL1        0.0500
     37  C         26.4170  -19.9000  -11.4470 C.2     1  UNL1        0.0070
     38  C         26.8300  -19.9830  -12.7790 C.2     1  UNL1       -0.0600
     39  C         27.1200  -18.7420  -13.5680 C.3     1  UNL1        0.0480
     40  C         27.0180  -21.2470  -13.3500 C.2     1  UNL1        0.0370
@<TRIPOS>BOND
     1     7     6    1
     2    29    28    2
     3     6     5    1
     4     6     1    2
     5     5     4    2
     6     1    28    1
     7     1     2    1
     8    28    30    2
     9    28    31    1
    10     4     3    1
    11    39    38    1
    12     2     3    2
    13     3     8    1
    14    40    38    1
    15    40    33    2
    16    31    32    1
    17    31    33    1
    18    38    37    2
    19    33    34    1
    20     9     8    2
    21     8    10   am
    22    37    35    1
    23    11    10    1
    24    10    12    1
    25    34    35    2
    26    34    36    1
    27    13    12    2
    28    13    14    1
    29    12    17    1
    30    14    15    2
    31    17    16    2
    32    15    16    1
    33    15    18    1
    34    21    25    1
    35    21    19    1
    36    26    25    1
    37    26    27    1
    38    25    23    1
    39    18    19    1
    40    18    27    1
    41    19    20    1
    42    27    24    1
    43    23    22    1
    44    20    22    1
    45    24    22    1
