@<TRIPOS>MOLECULE
58338_out_ligand_01.pdbqt
 41 44 0 0 0
SMALL
GASTEIGER

@<TRIPOS>ATOM
      1  C         21.1260  -21.7220   -7.3450 C.2     1  UNL1        0.2560
      2  O         22.0200  -20.9930   -6.9350 O.2     1  UNL1       -0.2670
      3  N         21.1480  -22.5310   -8.4660 N.am    1  UNL1       -0.3230
      4  H         20.3620  -23.1520   -8.6040 H       1  UNL1        0.1690
      5  C         19.8680  -21.7850   -6.5500 C.2     1  UNL1        0.0340
      6  C         18.9810  -22.8410   -6.7850 C.2     1  UNL1        0.0440
      7  C         17.7950  -22.9640   -6.0370 C.2     1  UNL1        0.1020
      8  C         17.4940  -22.0160   -5.0570 C.2     1  UNL1        0.0570
      9  C         18.3980  -20.9670   -4.8200 C.2     1  UNL1        0.0260
     10 CL         16.0970  -22.0230   -4.0520 Cl      1  UNL1       -0.0830
     11  C         19.5810  -20.8500   -5.5540 C.2     1  UNL1        0.0190
     12  S         16.7540  -24.3490   -6.4440 S.O2    1  UNL1        0.2640
     13  O         15.7770  -24.4580   -5.3780 O.2     1  UNL1       -0.2000
     14  O         17.5470  -25.4980   -6.8130 O.2     1  UNL1       -0.2000
     15  N         15.8960  -23.7980   -7.7900 N.pl3   1  UNL1       -0.2810
     16  H         14.9790  -23.4290   -7.5440 H       1  UNL1        0.1790
     17  C         16.5960  -23.1850   -8.8620 C.2     1  UNL1        0.0420
     18  C         16.1920  -21.9250   -9.3010 C.2     1  UNL1        0.0300
     19  C         16.9020  -21.2810  -10.3140 C.2     1  UNL1        0.0090
     20  C         18.0210  -21.8900  -10.8940 C.2     1  UNL1       -0.0620
     21  C         18.7620  -21.2030  -12.0010 C.3     1  UNL1        0.0480
     22  C         18.4050  -23.1650  -10.4620 C.2     1  UNL1        0.0090
     23  C         17.6990  -23.8060   -9.4440 C.2     1  UNL1        0.0300
     24  C         22.2000  -22.6720   -9.3970 C.2     1  UNL1        0.0350
     25  C         23.4200  -23.2940   -9.1130 C.2     1  UNL1        0.0310
     26  C         24.4080  -23.4050  -10.0990 C.2     1  UNL1        0.0270
     27  C         24.1790  -22.8840  -11.3730 C.2     1  UNL1        0.0800
     28  C         22.9650  -22.2640  -11.6740 C.2     1  UNL1        0.0270
     29  C         21.9850  -22.1540  -10.6840 C.2     1  UNL1        0.0310
     30  S         25.4060  -23.0730  -12.6420 S.O2    1  UNL1        0.2630
     31  O         26.6780  -22.6610  -12.0860 O.2     1  UNL1       -0.2000
     32  O         25.2530  -24.3810  -13.2450 O.2     1  UNL1       -0.2000
     33  N         24.9720  -21.8800  -13.7570 N.pl3   1  UNL1       -0.2810
     34  H         25.1400  -20.9430  -13.3870 H       1  UNL1        0.1790
     35  C         25.2570  -22.1060  -15.1300 C.2     1  UNL1        0.0430
     36  C         26.4920  -21.7480  -15.6650 C.2     1  UNL1        0.0300
     37  C         26.7630  -22.0040  -17.0080 C.2     1  UNL1        0.0030
     38  C         25.7920  -22.6040  -17.8140 C.2     1  UNL1        0.0070
     39  C         24.5390  -22.9440  -17.2870 C.2     1  UNL1       -0.0600
     40  C         23.5100  -23.6100  -18.1530 C.3     1  UNL1        0.0480
     41  C         24.2850  -22.7050  -15.9310 C.2     1  UNL1        0.0370
@<TRIPOS>BOND
     1    40    39    1
     2    38    39    2
     3    38    37    1
     4    39    41    1
     5    37    36    2
     6    41    35    2
     7    36    35    1
     8    35    33    1
     9    33    34    1
    10    33    30    1
    11    32    30    2
    12    30    31    2
    13    30    27    1
    14    21    20    1
    15    28    27    2
    16    28    29    1
    17    27    26    1
    18    20    22    2
    19    20    19    1
    20    29    24    2
    21    22    23    1
    22    19    18    2
    23    26    25    2
    24    23    17    2
    25    24    25    1
    26    24     3    1
    27    18    17    1
    28    17    15    1
    29     4     3    1
    30     3     1   am
    31    15    16    1
    32    15    12    1
    33     1     2    2
    34     1     5    1
    35    14    12    2
    36     6     5    2
    37     6     7    1
    38     5    11    1
    39    12     7    1
    40    12    13    2
    41     7     8    2
    42    11     9    2
    43     8     9    1
    44     8    10    1
