@<TRIPOS>MOLECULE
58337_out_ligand_01.pdbqt
 34 36 0 0 0
SMALL
GASTEIGER

@<TRIPOS>ATOM
      1  C         17.5780  -23.3320   -8.9350 C.2     1  UNL1        0.1020
      2  C         18.9730  -23.4610   -9.0400 C.2     1  UNL1        0.0440
      3  C         19.6700  -22.7950  -10.0540 C.2     1  UNL1        0.0340
      4  C         18.9690  -22.0080  -10.9740 C.2     1  UNL1        0.0190
      5  C         17.5820  -21.8770  -10.8620 C.2     1  UNL1        0.0260
      6  C         16.8790  -22.5350   -9.8440 C.2     1  UNL1        0.0570
      7 CL         15.1670  -22.3190   -9.8290 Cl      1  UNL1       -0.0830
      8  C         21.1430  -22.9860  -10.1530 C.2     1  UNL1        0.2560
      9  O         21.6500  -23.8580   -9.4600 O.2     1  UNL1       -0.2670
     10  N         21.7820  -22.1160  -11.0180 N.am    1  UNL1       -0.3220
     11  H         21.2110  -21.3740  -11.3950 H       1  UNL1        0.1690
     12  C         23.1640  -22.0680  -11.3390 C.2     1  UNL1        0.0430
     13  C         24.1500  -22.4530  -10.4170 C.2     1  UNL1        0.0300
     14  C         25.5120  -22.3740  -10.7210 C.2     1  UNL1        0.0050
     15  C         25.9170  -21.8900  -11.9550 C.2     1  UNL1        0.0370
     16  C         24.9430  -21.5080  -12.8850 C.2     1  UNL1        0.1110
     17  C         23.5570  -21.6170  -12.6240 C.2     1  UNL1       -0.0020
     18  C         22.5360  -21.2440  -13.6720 C.3     1  UNL1        0.0530
     19  N         25.4300  -20.9640  -14.1430 N.pl3   1  UNL1       -0.1150
     20  O         25.6900  -21.7730  -15.0450 O.2     1  UNL1       -0.5320
     21  O         25.5590  -19.7340  -14.2170 O.2     1  UNL1       -0.5320
     22  S         16.7560  -24.1960   -7.6210 S.O2    1  UNL1        0.2650
     23  O         15.6200  -24.8930   -8.1870 O.2     1  UNL1       -0.2000
     24  O         17.7560  -24.9360   -6.8830 O.2     1  UNL1       -0.2000
     25  N         16.1980  -22.9700   -6.6120 N.pl3   1  UNL1       -0.2800
     26  H         15.1960  -23.0430   -6.4530 H       1  UNL1        0.1790
     27  C         17.0140  -22.3820   -5.5920 C.2     1  UNL1        0.0490
     28  C         16.6780  -22.5770   -4.2390 C.2     1  UNL1       -0.0350
     29  C         17.4950  -22.0130   -3.2430 C.2     1  UNL1        0.0090
     30  C         15.4880  -23.3870   -3.8080 C.3     1  UNL1        0.0500
     31  C         18.6030  -21.2360   -3.5800 C.2     1  UNL1        0.0070
     32  C         18.8990  -20.9800   -4.9180 C.2     1  UNL1       -0.0600
     33  C         20.0900  -20.1510   -5.2960 C.3     1  UNL1        0.0480
     34  C         18.0960  -21.5520   -5.9150 C.2     1  UNL1        0.0370
@<TRIPOS>BOND
     1    20    19    2
     2    21    19    2
     3    19    16    1
     4    18    17    1
     5    16    17    1
     6    16    15    2
     7    17    12    2
     8    15    14    1
     9    11    10    1
    10    12    10    1
    11    12    13    1
    12    10     8   am
    13     4     5    2
    14     4     3    1
    15     5     6    1
    16    14    13    2
    17     8     3    1
    18     8     9    2
    19     3     2    2
    20     6     7    1
    21     6     1    2
    22     2     1    1
    23     1    22    1
    24    23    22    2
    25    22    24    2
    26    22    25    1
    27    25    26    1
    28    25    27    1
    29    34    27    2
    30    34    32    1
    31    27    28    1
    32    33    32    1
    33    32    31    2
    34    28    30    1
    35    28    29    2
    36    31    29    1
