@<TRIPOS>MOLECULE
58343_out_ligand_01.pdbqt
 31 33 0 0 0
SMALL
GASTEIGER

@<TRIPOS>ATOM
      1  C         17.4380  -23.4070   -8.7260 C.2     1  UNL1        0.1020
      2  C         18.8360  -23.5420   -8.8210 C.2     1  UNL1        0.0440
      3  C         19.5440  -22.8420   -9.8030 C.2     1  UNL1        0.0340
      4  C         18.8460  -22.0280  -10.7030 C.2     1  UNL1        0.0190
      5  C         17.4570  -21.8980  -10.6070 C.2     1  UNL1        0.0260
      6  C         16.7440  -22.5850   -9.6180 C.2     1  UNL1        0.0570
      7 CL         15.0310  -22.3830   -9.6210 Cl      1  UNL1       -0.0830
      8  S         16.6070  -24.3050   -7.4450 S.O2    1  UNL1        0.2640
      9  O         15.5240  -25.0510   -8.0520 O.2     1  UNL1       -0.2000
     10  O         17.6120  -24.9960   -6.6680 O.2     1  UNL1       -0.2000
     11  N         15.9570  -23.0910   -6.4700 N.pl3   1  UNL1       -0.2810
     12  H         15.3200  -22.4900   -6.9930 H       1  UNL1        0.1790
     13  C         16.8050  -22.4780   -5.5090 C.2     1  UNL1        0.0430
     14  C         16.5710  -22.6890   -4.1520 C.2     1  UNL1        0.0300
     15  C         17.4330  -22.1330   -3.2070 C.2     1  UNL1        0.0030
     16  C         18.5260  -21.3690   -3.6220 C.2     1  UNL1        0.0070
     17  C         18.7620  -21.1480   -4.9840 C.2     1  UNL1       -0.0600
     18  C         19.9620  -20.3660   -5.4300 C.3     1  UNL1        0.0480
     19  C         17.9000  -21.7210   -5.9280 C.2     1  UNL1        0.0370
     20  C         21.0220  -22.9660   -9.9560 C.2     1  UNL1        0.2560
     21  O         21.5970  -23.8090   -9.2780 O.2     1  UNL1       -0.2670
     22  N         21.5930  -22.1190  -10.8900 N.am    1  UNL1       -0.3230
     23  H         20.9680  -21.5600  -11.4550 H       1  UNL1        0.1690
     24  C         22.9640  -21.9960  -11.2050 C.2     1  UNL1        0.0360
     25  C         23.9380  -21.5720  -10.3020 C.2     1  UNL1        0.0300
     26  C         25.2790  -21.4740  -10.6940 C.2     1  UNL1        0.0110
     27  C         25.6740  -21.7960  -11.9990 C.2     1  UNL1       -0.0400
     28  C         27.1200  -21.6790  -12.3880 C.3     1  UNL1        0.0500
     29  C         24.6920  -22.2180  -12.9030 C.2     1  UNL1        0.0420
     30 CL         25.0860  -22.6340  -14.5340 Cl      1  UNL1       -0.0840
     31  C         23.3520  -22.3170  -12.5110 C.2     1  UNL1        0.0530
@<TRIPOS>BOND
     1    30    29    1
     2    29    31    1
     3    29    27    2
     4    31    24    2
     5    28    27    1
     6    27    26    1
     7    23    22    1
     8    24    22    1
     9    24    25    1
    10    22    20   am
    11     4     5    2
    12     4     3    1
    13    26    25    2
    14     5     6    1
    15    20     3    1
    16    20    21    2
    17     3     2    2
    18     7     6    1
    19     6     1    2
    20     2     1    1
    21     1     8    1
    22     9     8    2
    23     8    10    2
    24     8    11    1
    25    12    11    1
    26    11    13    1
    27    19    13    2
    28    19    17    1
    29    13    14    1
    30    18    17    1
    31    17    16    2
    32    14    15    2
    33    16    15    1
