@<TRIPOS>MOLECULE
58346_out_ligand_01.pdbqt
 33 35 0 0 0
SMALL
GASTEIGER

@<TRIPOS>ATOM
      1  C         17.6800  -23.2190   -8.9220 C.2     1  UNL1        0.0860
      2  C         19.0690  -23.4200   -9.0030 C.2     1  UNL1        0.0420
      3  C         19.8060  -22.8660  -10.0520 C.2     1  UNL1        0.0330
      4  C         19.1640  -22.0920  -11.0210 C.2     1  UNL1        0.0170
      5  C         17.7810  -21.8920  -10.9440 C.2     1  UNL1        0.0090
      6  C         17.0150  -22.4510   -9.9000 C.2     1  UNL1       -0.0390
      7  C         15.5330  -22.2050   -9.9100 C.3     1  UNL1        0.0500
      8  C         21.2720  -23.1060  -10.0870 C.2     1  UNL1        0.2560
      9  O         21.7180  -23.9970   -9.3750 O.2     1  UNL1       -0.2670
     10  N         21.9710  -22.2930  -10.9610 N.am    1  UNL1       -0.3230
     11  H         21.4270  -21.6570  -11.5320 H       1  UNL1        0.1690
     12  C         23.3550  -22.3230  -11.2360 C.2     1  UNL1        0.0350
     13  C         24.1780  -21.4870  -10.4670 C.2     1  UNL1        0.0290
     14  C         25.5580  -21.4530  -10.6790 C.2     1  UNL1        0.0030
     15  C         26.1290  -22.2540  -11.6660 C.2     1  UNL1        0.0160
     16  C         25.3250  -23.0930  -12.4520 C.2     1  UNL1        0.0500
     17  C         23.9370  -23.1230  -12.2210 C.2     1  UNL1        0.0450
     18  C         25.9250  -23.9760  -13.5180 C.3     1  UNL1        0.4170
     19  F         26.9940  -24.6930  -13.0750 F       1  UNL1       -0.1660
     20  F         26.3640  -23.2670  -14.5950 F       1  UNL1       -0.1660
     21  F         25.0460  -24.8940  -14.0150 F       1  UNL1       -0.1660
     22  S         16.8490  -24.0720   -7.5830 S.O2    1  UNL1        0.2630
     23  O         15.7120  -24.8010   -8.0970 O.2     1  UNL1       -0.2000
     24  O         17.8810  -24.7670   -6.8380 O.2     1  UNL1       -0.2000
     25  N         16.3340  -22.8240   -6.5950 N.pl3   1  UNL1       -0.2800
     26  H         15.3290  -22.6410   -6.6120 H       1  UNL1        0.1790
     27  C         17.1160  -22.3330   -5.5180 C.2     1  UNL1        0.0480
     28  C         18.1940  -21.4850   -5.7950 C.2     1  UNL1        0.0300
     29  C         18.9530  -20.9410   -4.7570 C.2     1  UNL1        0.0020
     30  C         18.6400  -21.2510   -3.4360 C.2     1  UNL1        0.0010
     31  C         17.5660  -22.0990   -3.1550 C.2     1  UNL1        0.0090
     32  C         16.7800  -22.6400   -4.1890 C.2     1  UNL1       -0.0350
     33  C         15.6510  -23.5660   -3.8270 C.3     1  UNL1        0.0500
@<TRIPOS>BOND
     1    20    18    1
     2    21    18    1
     3    18    19    1
     4    18    16    1
     5    16    17    1
     6    16    15    2
     7    17    12    2
     8    15    14    1
     9    11    10    1
    10    12    10    1
    11    12    13    1
    12     4     5    2
    13     4     3    1
    14    10     8   am
    15     5     6    1
    16    14    13    2
    17     8     3    1
    18     8     9    2
    19     3     2    2
    20     7     6    1
    21     6     1    2
    22     2     1    1
    23     1    22    1
    24    23    22    2
    25    22    24    2
    26    22    25    1
    27    26    25    1
    28    25    27    1
    29    28    27    2
    30    28    29    1
    31    27    32    1
    32    29    30    2
    33    32    33    1
    34    32    31    2
    35    30    31    1
