@<TRIPOS>MOLECULE
58357_out_ligand_01.pdbqt
 33 35 0 0 0
SMALL
GASTEIGER

@<TRIPOS>ATOM
      1  C         18.6650  -22.4570  -10.0070 C.2     1  UNL1        0.0750
      2  C         19.3130  -23.3920   -9.1910 C.2     1  UNL1        0.0390
      3  C         20.7080  -23.4750   -9.1810 C.2     1  UNL1        0.0280
      4  C         21.4570  -22.6240   -9.9930 C.2     1  UNL1        0.0800
      5  C         20.8260  -21.6730  -10.7980 C.2     1  UNL1        0.0340
      6  C         19.4250  -21.5870  -10.8140 C.2     1  UNL1       -0.0270
      7  C         18.7560  -20.5580  -11.6840 C.3     1  UNL1        0.0510
      8  O         17.3080  -22.2730  -10.0700 O.2     1  UNL1       -0.3420
      9  C         16.4550  -23.3780   -9.7950 C.3     1  UNL1        0.2780
     10  C         16.2700  -23.7060   -8.3060 C.2     1  UNL1        0.2460
     11  N         16.4580  -22.6020   -7.4940 N.am    1  UNL1       -0.3250
     12  H         16.7730  -21.7750   -7.9860 H       1  UNL1        0.1690
     13  O         15.9650  -24.8430   -7.9550 O.2     1  UNL1       -0.2710
     14  C         16.3490  -22.5080   -6.0900 C.2     1  UNL1        0.0410
     15  C         15.1360  -22.7250   -5.4240 C.2     1  UNL1        0.0300
     16  C         15.0490  -22.6300   -4.0320 C.2     1  UNL1        0.0020
     17  C         16.1760  -22.3170   -3.2840 C.2     1  UNL1        0.0010
     18  C         17.3900  -22.0950   -3.9280 C.2     1  UNL1        0.0090
     19  C         17.4960  -22.1790   -5.3300 C.2     1  UNL1       -0.0320
     20  C         18.8610  -21.9410   -5.9400 C.3     1  UNL1        0.0360
     21  C         19.4820  -20.6380   -5.4570 C.3     1  UNL1        0.0100
     22  S         23.2290  -22.7180   -9.9660 S.O2    1  UNL1        0.2630
     23  O         23.5910  -23.7750   -9.0440 O.2     1  UNL1       -0.2000
     24  O         23.7670  -21.3850   -9.8100 O.2     1  UNL1       -0.2000
     25  N         23.5910  -23.3030  -11.5100 N.pl3   1  UNL1       -0.2810
     26  H         24.0020  -24.2340  -11.4560 H       1  UNL1        0.1790
     27  C         24.1540  -22.3970  -12.4490 C.2     1  UNL1        0.0420
     28  C         25.5380  -22.2790  -12.5410 C.2     1  UNL1        0.0300
     29  C         26.1010  -21.4130  -13.4810 C.2     1  UNL1        0.0090
     30  C         25.2820  -20.6740  -14.3440 C.2     1  UNL1       -0.0620
     31  C         25.8850  -19.7210  -15.3340 C.3     1  UNL1        0.0480
     32  C         23.8910  -20.7960  -14.2350 C.2     1  UNL1        0.0090
     33  C         23.3270  -21.6610  -13.2940 C.2     1  UNL1        0.0300
@<TRIPOS>BOND
     1    31    30    1
     2    30    32    2
     3    30    29    1
     4    32    33    1
     5    29    28    2
     6    33    27    2
     7    28    27    1
     8    27    25    1
     9     7     6    1
    10    25    26    1
    11    25    22    1
    12     6     5    1
    13     6     1    2
    14     5     4    2
    15     8     1    1
    16     8     9    1
    17     1     2    1
    18     4    22    1
    19     4     3    1
    20    22    24    2
    21    22    23    2
    22     9    10    1
    23     2     3    2
    24    10    13    2
    25    10    11   am
    26    12    11    1
    27    11    14    1
    28    14    15    2
    29    14    19    1
    30    20    21    1
    31    20    19    1
    32    15    16    1
    33    19    18    2
    34    16    17    2
    35    18    17    1
