@<TRIPOS>MOLECULE
58356_out_ligand_01.pdbqt
 31 33 0 0 0
SMALL
GASTEIGER

@<TRIPOS>ATOM
      1  C         17.5410  -23.5420   -8.6580 C.2     1  UNL1        0.0810
      2  C         18.9380  -23.6910   -8.6800 C.2     1  UNL1        0.0420
      3  C         19.6970  -23.0910   -9.6900 C.2     1  UNL1        0.0330
      4  C         19.0590  -22.3100  -10.6590 C.2     1  UNL1        0.0170
      5  C         17.6700  -22.1550  -10.6320 C.2     1  UNL1        0.0090
      6  C         16.8870  -22.7740   -9.6430 C.2     1  UNL1       -0.0390
      7  C         15.4010  -22.5460   -9.6640 C.3     1  UNL1        0.0500
      8  S         16.6420  -24.3400   -7.3320 S.O2    1  UNL1        0.2460
      9  O         15.5050  -25.0240   -7.9110 O.2     1  UNL1       -0.2060
     10  O         17.6000  -25.0270   -6.4960 O.2     1  UNL1       -0.2060
     11  N         16.0070  -22.9760   -6.5210 N.pl3   1  UNL1       -0.1810
     12  H         15.1230  -23.2670   -6.1010 H       1  UNL1        0.1460
     13  C         16.8850  -22.4410   -5.5190 C.2     1  UNL1        0.0230
     14  C         16.6180  -22.6800   -4.1720 C.2     1  UNL1        0.0240
     15  C         17.4500  -22.1380   -3.1940 C.2     1  UNL1        0.0020
     16  C         18.5390  -21.3460   -3.5620 C.2     1  UNL1        0.0070
     17  C         18.7930  -21.0730   -4.9110 C.2     1  UNL1       -0.0600
     18  C         19.9720  -20.2330   -5.3070 C.3     1  UNL1        0.0480
     19  C         17.9610  -21.6320   -5.8900 C.2     1  UNL1        0.0310
     20  C         21.1750  -23.2820   -9.6780 C.2     1  UNL1        0.2520
     21  O         21.6860  -24.0490   -8.8710 O.2     1  UNL1       -0.2680
     22  N         21.8900  -22.5910  -10.6310 N.am    1  UNL1       -0.3490
     23  H         21.4010  -22.1600  -11.4020 H       1  UNL1        0.1630
     24  C         23.3290  -22.7580  -10.7740 C.3     1  UNL1        0.1140
     25  C         24.0990  -21.8040   -9.8550 C.3     1  UNL1        0.0370
     26  C         23.7110  -22.5860  -12.2340 C.2     1  UNL1       -0.0360
     27  C         23.0670  -21.6110  -13.0110 C.2     1  UNL1        0.0090
     28  C         23.4190  -21.4180  -14.3490 C.2     1  UNL1        0.0010
     29  C         24.4250  -22.1910  -14.9250 C.2     1  UNL1        0.0000
     30  C         25.0790  -23.1570  -14.1650 C.2     1  UNL1        0.0010
     31  C         24.7290  -23.3520  -12.8280 C.2     1  UNL1        0.0090
@<TRIPOS>BOND
     1    29    28    2
     2    29    30    1
     3    28    27    1
     4    30    31    2
     5    27    26    2
     6    31    26    1
     7    26    24    1
     8    23    22    1
     9    24    22    1
    10    24    25    1
    11     4     5    2
    12     4     3    1
    13     5     6    1
    14    22    20   am
    15     3    20    1
    16     3     2    2
    17    20    21    2
    18     7     6    1
    19     6     1    2
    20     2     1    1
    21     1     8    1
    22     9     8    2
    23     8    11    1
    24     8    10    2
    25    11    12    1
    26    11    13    1
    27    19    13    2
    28    19    17    1
    29    13    14    1
    30    18    17    1
    31    17    16    2
    32    14    15    2
    33    16    15    1
