@<TRIPOS>MOLECULE
5836_out_ligand_01.pdbqt
 32 35 0 0 0
SMALL
GASTEIGER

@<TRIPOS>ATOM
      1  C         18.6230  -23.1780   -9.0590 C.2     1  UNL1        0.0800
      2  C         19.5550  -24.0020   -8.4260 C.2     1  UNL1        0.0270
      3  C         20.8750  -24.0280   -8.8870 C.2     1  UNL1        0.0310
      4  C         21.2680  -23.2410   -9.9800 C.2     1  UNL1        0.0340
      5  C         20.3180  -22.4370  -10.6140 C.2     1  UNL1        0.0310
      6  C         18.9940  -22.4100  -10.1630 C.2     1  UNL1        0.0270
      7  N         22.6160  -23.3240  -10.3720 N.am    1  UNL1       -0.3250
      8  C         23.6390  -22.4210  -10.1220 C.2     1  UNL1        0.2540
      9  O         23.5320  -21.3520   -9.5280 O.2     1  UNL1       -0.2700
     10  H         22.9050  -24.1760  -10.8440 H       1  UNL1        0.1690
     11  C         24.9710  -22.8560  -10.7650 C.3     1  UNL1        0.2450
     12  C         24.7470  -23.5710  -12.0930 C.3     1  UNL1        0.2180
     13  O         24.2960  -22.6730  -13.1140 O.2     1  UNL1       -0.3450
     14  C         25.0120  -21.5080  -13.1170 C.2     1  UNL1        0.1020
     15  C         24.9030  -20.7090  -14.2540 C.2     1  UNL1        0.0390
     16  C         25.8130  -21.0970  -12.0510 C.2     1  UNL1        0.1030
     17  C         25.6200  -19.5150  -14.3380 C.2     1  UNL1        0.0030
     18  C         26.4420  -19.1190  -13.2840 C.2     1  UNL1        0.0030
     19  C         26.5390  -19.9110  -12.1380 C.2     1  UNL1        0.0400
     20  O         25.9290  -21.7990  -10.8800 O.2     1  UNL1       -0.3310
     21  S         16.9380  -23.1510   -8.4850 S.O2    1  UNL1        0.2630
     22  O         16.1390  -23.8630   -9.4620 O.2     1  UNL1       -0.2000
     23  O         16.6140  -21.7940   -8.1020 O.2     1  UNL1       -0.2000
     24  N         16.9830  -24.1380   -7.1160 N.pl3   1  UNL1       -0.2810
     25  H         17.7140  -24.8440   -7.1780 H       1  UNL1        0.1790
     26  C         16.7140  -23.5710   -5.8390 C.2     1  UNL1        0.0430
     27  C         15.4610  -23.7720   -5.2600 C.2     1  UNL1        0.0300
     28  C         15.1910  -23.2550   -3.9920 C.2     1  UNL1        0.0030
     29  C         16.1730  -22.5380   -3.3070 C.2     1  UNL1        0.0070
     30  C         17.4350  -22.3400   -3.8760 C.2     1  UNL1       -0.0600
     31  C         18.4800  -21.5420   -3.1550 C.3     1  UNL1        0.0480
     32  C         17.6940  -22.8510   -5.1560 C.2     1  UNL1        0.0370
@<TRIPOS>BOND
     1    17    15    1
     2    17    18    2
     3    15    14    2
     4    18    19    1
     5    14    13    1
     6    14    16    1
     7    13    12    1
     8    19    16    2
     9    12    11    1
    10    16    20    1
    11    20    11    1
    12    10     7    1
    13    11     8    1
    14     5     6    1
    15     5     4    2
    16     7     8   am
    17     7     4    1
    18     6     1    2
    19     8     9    2
    20     4     3    1
    21    22    21    2
    22     1    21    1
    23     1     2    1
    24     3     2    2
    25    21    23    2
    26    21    24    1
    27    25    24    1
    28    24    26    1
    29    26    27    2
    30    26    32    1
    31    27    28    1
    32    32    30    2
    33    28    29    2
    34    30    29    1
    35    30    31    1
