@<TRIPOS>MOLECULE
58360_out_ligand_01.pdbqt
 32 34 0 0 0
SMALL
GASTEIGER

@<TRIPOS>ATOM
      1  C         18.4380  -22.2480  -10.2010 C.2     1  UNL1        0.0860
      2  C         19.7460  -22.7470  -10.0570 C.2     1  UNL1        0.0420
      3  C         20.7840  -22.2450  -10.8430 C.2     1  UNL1        0.0330
      4  C         20.5250  -21.2400  -11.7760 C.2     1  UNL1        0.0170
      5  C         19.2300  -20.7290  -11.9040 C.2     1  UNL1        0.0090
      6  C         18.1670  -21.2180  -11.1200 C.2     1  UNL1       -0.0390
      7  C         16.8060  -20.6150  -11.3290 C.3     1  UNL1        0.0500
      8  S         17.2010  -23.0190   -9.1590 S.O2    1  UNL1        0.2630
      9  O         16.4650  -21.9440   -8.5270 O.2     1  UNL1       -0.2000
     10  O         16.5080  -24.0550   -9.8910 O.2     1  UNL1       -0.2000
     11  N         18.1280  -23.7390   -7.9410 N.pl3   1  UNL1       -0.2810
     12  H         18.0780  -24.7560   -7.9740 H       1  UNL1        0.1790
     13  C         18.1790  -23.1220   -6.6580 C.2     1  UNL1        0.0430
     14  C         17.5530  -23.7510   -5.5810 C.2     1  UNL1        0.0370
     15  C         17.5450  -23.1480   -4.3180 C.2     1  UNL1       -0.0590
     16  C         18.1970  -21.9190   -4.1450 C.2     1  UNL1        0.0130
     17  C         16.9000  -23.8390   -3.1530 C.3     1  UNL1        0.0480
     18  C         18.8210  -21.2780   -5.2230 C.2     1  UNL1       -0.0590
     19  C         19.5400  -19.9780   -5.0230 C.3     1  UNL1        0.0480
     20  C         18.8150  -21.8960   -6.4800 C.2     1  UNL1        0.0370
     21  C         22.1370  -22.8460  -10.7010 C.2     1  UNL1        0.2560
     22  O         22.2780  -23.7260   -9.8590 O.2     1  UNL1       -0.2670
     23  N         23.0960  -22.3040  -11.5340 N.am    1  UNL1       -0.3220
     24  H         22.8180  -21.4870  -12.0570 H       1  UNL1        0.1690
     25  C         24.4520  -22.6990  -11.6750 C.2     1  UNL1        0.0410
     26  C         25.2060  -23.1360  -10.5820 C.2     1  UNL1        0.0300
     27  C         26.5300  -23.5380  -10.7400 C.2     1  UNL1        0.0030
     28  C         27.1210  -23.5110  -11.9970 C.2     1  UNL1        0.0070
     29  C         26.3970  -23.0820  -13.1190 C.2     1  UNL1       -0.0540
     30  C         27.0940  -23.0790  -14.4540 C.3     1  UNL1        0.0490
     31  C         25.0480  -22.6680  -12.9650 C.2     1  UNL1       -0.0290
     32  C         24.2510  -22.2020  -14.1610 C.3     1  UNL1        0.0510
@<TRIPOS>BOND
     1    30    29    1
     2    32    31    1
     3    29    31    1
     4    29    28    2
     5    31    25    2
     6    24    23    1
     7    28    27    1
     8     5     4    2
     9     5     6    1
    10     4     3    1
    11    25    23    1
    12    25    26    1
    13    23    21   am
    14     7     6    1
    15     6     1    2
    16     3    21    1
    17     3     2    2
    18    27    26    2
    19    21    22    2
    20     1     2    1
    21     1     8    1
    22    10     8    2
    23     8     9    2
    24     8    11    1
    25    12    11    1
    26    11    13    1
    27    13    20    2
    28    13    14    1
    29    20    18    1
    30    14    15    2
    31    18    19    1
    32    18    16    2
    33    15    16    1
    34    15    17    1
