@<TRIPOS>MOLECULE
58363_out_ligand_01.pdbqt
 31 33 0 0 0
SMALL
GASTEIGER

@<TRIPOS>ATOM
      1  C         18.0530  -22.9260   -9.1920 C.2     1  UNL1        0.0860
      2  C         19.2160  -22.4420   -9.8140 C.2     1  UNL1        0.0420
      3  C         19.1260  -21.5920  -10.9180 C.2     1  UNL1        0.0330
      4  C         17.8730  -21.2240  -11.4080 C.2     1  UNL1        0.0170
      5  C         16.7150  -21.7260  -10.8050 C.2     1  UNL1        0.0090
      6  C         16.7820  -22.5870   -9.6920 C.2     1  UNL1       -0.0390
      7  C         15.4890  -23.0760   -9.1050 C.3     1  UNL1        0.0500
      8  S         18.3210  -23.9610   -7.7530 S.O2    1  UNL1        0.2630
      9  O         19.6400  -24.5410   -7.9020 O.2     1  UNL1       -0.2000
     10  O         17.1680  -24.8000   -7.5180 O.2     1  UNL1       -0.2000
     11  N         18.4390  -22.8350   -6.4960 N.pl3   1  UNL1       -0.2810
     12  H         18.8880  -21.9720   -6.7960 H       1  UNL1        0.1790
     13  C         17.3760  -22.7360   -5.5550 C.2     1  UNL1        0.0430
     14  C         17.5420  -23.1550   -4.2380 C.2     1  UNL1        0.0300
     15  C         16.4770  -23.0760   -3.3430 C.2     1  UNL1        0.0030
     16  C         15.2410  -22.5840   -3.7670 C.2     1  UNL1        0.0070
     17  C         15.0610  -22.1700   -5.0920 C.2     1  UNL1       -0.0600
     18  C         13.7430  -21.6130   -5.5450 C.3     1  UNL1        0.0480
     19  C         16.1420  -22.2350   -5.9800 C.2     1  UNL1        0.0370
     20  C         20.3850  -21.0560  -11.5020 C.2     1  UNL1        0.2560
     21  O         20.4250  -19.8570  -11.7540 O.2     1  UNL1       -0.2670
     22  N         21.3890  -21.9910  -11.6640 N.am    1  UNL1       -0.3220
     23  H         21.2140  -22.9020  -11.2660 H       1  UNL1        0.1690
     24  C         22.6740  -21.8010  -12.2360 C.2     1  UNL1        0.0410
     25  C         22.8360  -21.4980  -13.5920 C.2     1  UNL1        0.0300
     26  C         24.1050  -21.3250  -14.1390 C.2     1  UNL1        0.0030
     27  C         25.2320  -21.4560  -13.3400 C.2     1  UNL1        0.0070
     28  C         25.1120  -21.7650  -11.9770 C.2     1  UNL1       -0.0540
     29  C         26.3740  -21.8950  -11.1660 C.3     1  UNL1        0.0490
     30  C         23.8230  -21.9410  -11.4120 C.2     1  UNL1       -0.0290
     31  C         23.6710  -22.2680   -9.9440 C.3     1  UNL1        0.0510
@<TRIPOS>BOND
     1    26    25    1
     2    26    27    2
     3    25    24    2
     4    27    28    1
     5    24    22    1
     6    24    30    1
     7    28    30    2
     8    28    29    1
     9    21    20    2
    10    22    20   am
    11    22    23    1
    12    20     3    1
    13    30    31    1
    14     4     3    2
    15     4     5    1
    16     3     2    1
    17     5     6    2
    18     2     1    2
    19     6     1    1
    20     6     7    1
    21     1     8    1
    22     9     8    2
    23     8    10    2
    24     8    11    1
    25    12    11    1
    26    11    13    1
    27    19    13    2
    28    19    17    1
    29    13    14    1
    30    18    17    1
    31    17    16    2
    32    14    15    2
    33    16    15    1
