@<TRIPOS>MOLECULE
58377_out_ligand_01.pdbqt
 33 35 0 0 0
SMALL
GASTEIGER

@<TRIPOS>ATOM
      1  C         21.3290  -22.5930   -9.4040 C.2     1  UNL1        0.0800
      2  C         20.6130  -23.6730   -8.8890 C.2     1  UNL1        0.0280
      3  C         19.3000  -23.8970   -9.3100 C.2     1  UNL1        0.0390
      4  C         18.7020  -23.0480  -10.2490 C.2     1  UNL1        0.0750
      5  C         19.4350  -21.9690  -10.7820 C.2     1  UNL1       -0.0270
      6  C         18.8240  -21.0500  -11.8040 C.3     1  UNL1        0.0510
      7  C         20.7540  -21.7500  -10.3560 C.2     1  UNL1        0.0340
      8  O         17.4320  -23.1910  -10.7430 O.2     1  UNL1       -0.3420
      9  C         16.3530  -22.5860  -10.0420 C.3     1  UNL1        0.2780
     10  C         16.1270  -23.1080   -8.6150 C.2     1  UNL1        0.2460
     11  O         15.8160  -24.2800   -8.4260 O.2     1  UNL1       -0.2710
     12  N         16.3370  -22.1310   -7.6580 N.am    1  UNL1       -0.3250
     13  H         16.5360  -21.2140   -8.0390 H       1  UNL1        0.1690
     14  C         16.2330  -22.2310   -6.2510 C.2     1  UNL1        0.0410
     15  C         15.0130  -22.4990   -5.6210 C.2     1  UNL1        0.0300
     16  C         14.9330  -22.5990   -4.2340 C.2     1  UNL1        0.0030
     17  C         16.0730  -22.4340   -3.4560 C.2     1  UNL1        0.0070
     18  C         17.3140  -22.1660   -4.0520 C.2     1  UNL1       -0.0540
     19  C         18.5090  -21.9940   -3.1530 C.3     1  UNL1        0.0490
     20  C         17.4030  -22.0600   -5.4630 C.2     1  UNL1       -0.0290
     21  C         18.7270  -21.7580   -6.1270 C.3     1  UNL1        0.0510
     22  S         23.0030  -22.3200   -8.8790 S.O2    1  UNL1        0.2630
     23  O         23.6860  -23.5930   -8.8120 O.2     1  UNL1       -0.2000
     24  O         22.9570  -21.4420   -7.7270 O.2     1  UNL1       -0.2000
     25  N         23.6400  -21.3960  -10.1430 N.pl3   1  UNL1       -0.2810
     26  H         23.9240  -20.4750   -9.8080 H       1  UNL1        0.1790
     27  C         24.4980  -22.0420  -11.0720 C.2     1  UNL1        0.0420
     28  C         25.8650  -21.7700  -11.0720 C.2     1  UNL1        0.0300
     29  C         26.7060  -22.4350  -11.9670 C.2     1  UNL1        0.0090
     30  C         26.1860  -23.3840  -12.8580 C.2     1  UNL1       -0.0620
     31  C         27.0850  -24.0730  -13.8420 C.3     1  UNL1        0.0480
     32  C         24.8090  -23.6420  -12.8540 C.2     1  UNL1        0.0090
     33  C         23.9690  -22.9780  -11.9580 C.2     1  UNL1        0.0300
@<TRIPOS>BOND
     1    31    30    1
     2    30    32    2
     3    30    29    1
     4    32    33    1
     5    29    28    2
     6    33    27    2
     7     6     5    1
     8    28    27    1
     9    27    25    1
    10     5     7    1
    11     5     4    2
    12     8     4    1
    13     8     9    1
    14     7     1    2
    15     4     3    1
    16    25    26    1
    17    25    22    1
    18     9    10    1
    19     1     2    1
    20     1    22    1
    21     3     2    2
    22    22    23    2
    23    22    24    2
    24    10    11    2
    25    10    12   am
    26    13    12    1
    27    12    14    1
    28    14    15    2
    29    14    20    1
    30    21    20    1
    31    15    16    1
    32    20    18    2
    33    16    17    2
    34    18    17    1
    35    18    19    1
