@<TRIPOS>MOLECULE
58392_out_ligand_01.pdbqt
 30 32 0 0 0
SMALL
GASTEIGER

@<TRIPOS>ATOM
      1  C         21.3430  -22.4030  -10.1720 C.2     1  UNL1        0.0860
      2  C         20.5990  -22.8980   -9.0890 C.2     1  UNL1        0.0420
      3  C         19.2040  -22.8370   -9.1130 C.2     1  UNL1        0.0330
      4  C         18.5480  -22.2710  -10.2100 C.2     1  UNL1        0.0170
      5  C         19.2890  -21.7800  -11.2880 C.2     1  UNL1        0.0090
      6  C         20.6940  -21.8320  -11.2870 C.2     1  UNL1       -0.0390
      7  C         21.4250  -21.2920  -12.4860 C.3     1  UNL1        0.0500
      8  S         23.1210  -22.5530  -10.0800 S.O2    1  UNL1        0.2630
      9  O         23.7090  -21.2330  -10.1540 O.2     1  UNL1       -0.2000
     10  O         23.4360  -23.4260   -8.9680 O.2     1  UNL1       -0.2000
     11  N         23.5010  -23.4150  -11.4860 N.pl3   1  UNL1       -0.2810
     12  H         23.3080  -24.4080  -11.3540 H       1  UNL1        0.1790
     13  C         24.7090  -23.0790  -12.1580 C.2     1  UNL1        0.0430
     14  C         25.9350  -23.3520  -11.5560 C.2     1  UNL1        0.0300
     15  C         27.1190  -23.0780  -12.2400 C.2     1  UNL1        0.0030
     16  C         27.0740  -22.5320  -13.5230 C.2     1  UNL1        0.0070
     17  C         25.8450  -22.2470  -14.1320 C.2     1  UNL1       -0.0600
     18  C         25.7970  -21.7110  -15.5320 C.3     1  UNL1        0.0480
     19  C         24.6600  -22.5410  -13.4460 C.2     1  UNL1        0.0370
     20  C         18.4420  -23.3480   -7.9410 C.2     1  UNL1        0.2560
     21  O         18.6120  -24.5160   -7.6160 O.2     1  UNL1       -0.2670
     22  N         17.5940  -22.4220   -7.3640 N.am    1  UNL1       -0.3220
     23  H         17.4950  -21.5430   -7.8520 H       1  UNL1        0.1690
     24  C         16.7770  -22.5880   -6.2210 C.2     1  UNL1        0.0410
     25  C         15.5280  -23.2180   -6.2770 C.2     1  UNL1        0.0300
     26  C         14.7460  -23.3740   -5.1300 C.2     1  UNL1        0.0020
     27  C         15.2030  -22.9030   -3.9060 C.2     1  UNL1        0.0010
     28  C         16.4430  -22.2760   -3.8280 C.2     1  UNL1        0.0090
     29  C         17.2430  -22.1120   -4.9740 C.2     1  UNL1       -0.0350
     30  C         18.5740  -21.4250   -4.8180 C.3     1  UNL1        0.0500
@<TRIPOS>BOND
     1    18    17    1
     2    17    16    2
     3    17    19    1
     4    16    15    1
     5    19    13    2
     6     7     6    1
     7    15    14    2
     8    13    14    1
     9    13    11    1
    10    11    12    1
    11    11     8    1
    12     5     6    1
    13     5     4    2
    14     6     1    2
    15     4     3    1
    16     1     8    1
    17     1     2    1
    18     9     8    2
    19     8    10    2
    20     3     2    2
    21     3    20    1
    22    20    21    2
    23    20    22   am
    24    23    22    1
    25    22    24    1
    26    25    24    2
    27    25    26    1
    28    24    29    1
    29    26    27    2
    30    29    30    1
    31    29    28    2
    32    27    28    1
