@<TRIPOS>MOLECULE
583_out_ligand_01.pdbqt
 32 34 0 0 0
SMALL
GASTEIGER

@<TRIPOS>ATOM
      1  C         18.8280  -22.3830  -10.1030 C.2     1  UNL1        0.0390
      2  C         20.1240  -22.7370   -9.7140 C.2     1  UNL1        0.0420
      3  C         21.2140  -22.1620  -10.3690 C.2     1  UNL1        0.0800
      4  C         21.0220  -21.2080  -11.3710 C.2     1  UNL1        0.0260
      5  C         19.7250  -20.8370  -11.7340 C.2     1  UNL1        0.0090
      6  C         18.6110  -21.4090  -11.0980 C.2     1  UNL1       -0.0460
      7  C         17.2310  -20.9580  -11.4960 C.3     1  UNL1        0.0490
      8  C         17.7140  -23.0780   -9.4170 C.2     1  UNL1        0.2520
      9  N         17.9880  -23.4730   -8.1290 N.am    1  UNL1       -0.3530
     10  H         18.9160  -23.3390   -7.7560 H       1  UNL1        0.1630
     11  O         16.6430  -23.2310   -9.9870 O.2     1  UNL1       -0.2680
     12  C         17.0740  -24.3010   -7.3780 C.3     1  UNL1        0.1610
     13  C         16.6800  -23.6110   -6.0980 C.2     1  UNL1       -0.0380
     14  C         15.4350  -23.8650   -5.5130 C.2     1  UNL1        0.0090
     15  C         15.0840  -23.2540   -4.3090 C.2     1  UNL1        0.0030
     16  C         15.9770  -22.3890   -3.6730 C.2     1  UNL1        0.0370
     17  C         17.2270  -22.1330   -4.2380 C.2     1  UNL1        0.0680
     18  C         17.5720  -22.7480   -5.4440 C.2     1  UNL1        0.0450
     19  O         18.1940  -21.3180   -3.7170 O.2     1  UNL1       -0.3560
     20  C         18.9950  -20.5990   -4.6450 C.3     1  UNL1        0.2100
     21  S         22.8680  -22.6280   -9.9100 S.O2    1  UNL1        0.2630
     22  O         23.6100  -21.4090   -9.6660 O.2     1  UNL1       -0.2000
     23  O         22.7800  -23.6670   -8.9070 O.2     1  UNL1       -0.2000
     24  N         23.4920  -23.2830  -11.3400 N.pl3   1  UNL1       -0.2780
     25  H         23.4510  -24.3030  -11.3190 H       1  UNL1        0.1790
     26  C         24.6930  -22.7220  -11.8750 C.2     1  UNL1        0.0810
     27  C         25.9350  -23.0150  -11.3170 C.2     1  UNL1        0.0330
     28  C         27.0970  -22.4920  -11.8950 C.2     1  UNL1        0.0020
     29  C         27.0150  -21.6770  -13.0260 C.2     1  UNL1        0.0030
     30  C         25.7730  -21.3800  -13.5850 C.2     1  UNL1        0.0440
     31  C         24.6220  -21.9050  -13.0070 C.2     1  UNL1        0.1430
     32  F         23.4290  -21.6330  -13.5560 F       1  UNL1       -0.2040
@<TRIPOS>BOND
     1    30    29    2
     2    30    31    1
     3    32    31    1
     4    29    28    1
     5    31    26    2
     6    28    27    2
     7    26    24    1
     8    26    27    1
     9     5     4    2
    10     5     6    1
    11     7     6    1
    12     4     3    1
    13    24    25    1
    14    24    21    1
    15     6     1    2
    16     3    21    1
    17     3     2    2
    18     1     2    1
    19     1     8    1
    20    11     8    2
    21    21    22    2
    22    21    23    2
    23     8     9   am
    24     9    10    1
    25     9    12    1
    26    12    13    1
    27    13    14    2
    28    13    18    1
    29    14    15    1
    30    18    17    2
    31    20    19    1
    32    15    16    2
    33    17    19    1
    34    17    16    1
