@<TRIPOS>MOLECULE
58404_out_ligand_01.pdbqt
 33 35 0 0 0
SMALL
GASTEIGER

@<TRIPOS>ATOM
      1  C         21.6540  -22.6220  -10.1520 C.2     1  UNL1        0.0800
      2  C         20.8870  -23.5440   -9.4410 C.2     1  UNL1        0.0280
      3  C         19.4920  -23.4610   -9.4800 C.2     1  UNL1        0.0390
      4  C         18.8630  -22.4580  -10.2250 C.2     1  UNL1        0.0750
      5  C         19.6420  -21.5160  -10.9270 C.2     1  UNL1       -0.0270
      6  C         18.9920  -20.4150  -11.7220 C.3     1  UNL1        0.0510
      7  C         21.0410  -21.6020  -10.8830 C.2     1  UNL1        0.0340
      8  O         17.5070  -22.2750  -10.3120 O.2     1  UNL1       -0.3420
      9  C         16.6500  -23.3820  -10.0560 C.3     1  UNL1        0.2780
     10  C         16.3920  -23.6680   -8.5710 C.2     1  UNL1        0.2460
     11  O         16.0390  -24.7850   -8.2050 O.2     1  UNL1       -0.2710
     12  N         16.5810  -22.5510   -7.7770 N.am    1  UNL1       -0.3250
     13  H         16.9290  -21.7420   -8.2820 H       1  UNL1        0.1690
     14  C         16.4300  -22.4220   -6.3760 C.2     1  UNL1        0.0420
     15  C         15.2000  -22.6440   -5.7460 C.2     1  UNL1        0.0300
     16  C         15.0620  -22.5040   -4.3650 C.2     1  UNL1        0.0040
     17  C         16.1570  -22.1360   -3.5960 C.2     1  UNL1        0.0240
     18  C         17.3940  -21.9080   -4.2030 C.2     1  UNL1        0.0420
     19 CL         18.6920  -21.4480   -3.1530 Cl      1  UNL1       -0.0840
     20  C         17.5580  -22.0470   -5.5970 C.2     1  UNL1       -0.0130
     21  C         18.8940  -21.8130   -6.2590 C.3     1  UNL1        0.0520
     22  S         23.4260  -22.7190  -10.0880 S.O2    1  UNL1        0.2630
     23  O         23.7650  -23.7800   -9.1620 O.2     1  UNL1       -0.2000
     24  O         23.9630  -21.3870   -9.9160 O.2     1  UNL1       -0.2000
     25  N         23.8210  -23.2990  -11.6250 N.pl3   1  UNL1       -0.2810
     26  H         24.2690  -24.2130  -11.5600 H       1  UNL1        0.1790
     27  C         24.3560  -22.3790  -12.5660 C.2     1  UNL1        0.0420
     28  C         25.7160  -22.0780  -12.5560 C.2     1  UNL1        0.0300
     29  C         26.2280  -21.1460  -13.4610 C.2     1  UNL1        0.0090
     30  C         25.3820  -20.5080  -14.3770 C.2     1  UNL1       -0.0620
     31  C         25.9210  -19.5070  -15.3560 C.3     1  UNL1        0.0480
     32  C         24.0160  -20.8160  -14.3740 C.2     1  UNL1        0.0090
     33  C         23.5030  -21.7460  -13.4680 C.2     1  UNL1        0.0300
@<TRIPOS>BOND
     1    31    30    1
     2    30    32    2
     3    30    29    1
     4    32    33    1
     5    33    27    2
     6    29    28    2
     7    27    28    1
     8    27    25    1
     9     6     5    1
    10    25    26    1
    11    25    22    1
    12     5     7    1
    13     5     4    2
    14     7     1    2
    15     8     4    1
    16     8     9    1
    17     4     3    1
    18     1    22    1
    19     1     2    1
    20    22    24    2
    21    22    23    2
    22     9    10    1
    23     3     2    2
    24    10    11    2
    25    10    12   am
    26    13    12    1
    27    12    14    1
    28    14    15    2
    29    14    20    1
    30    21    20    1
    31    15    16    1
    32    20    18    2
    33    16    17    2
    34    18    17    1
    35    18    19    1
