@<TRIPOS>MOLECULE
58408_out_ligand_01.pdbqt
 34 37 0 0 0
SMALL
GASTEIGER

@<TRIPOS>ATOM
      1  C         18.0970  -23.7710   -8.3580 C.2     1  UNL1        0.0800
      2  C         19.3340  -24.3190   -8.0010 C.2     1  UNL1        0.0270
      3  C         20.4730  -23.9840   -8.7350 C.2     1  UNL1        0.0310
      4  C         20.3700  -23.1160   -9.8230 C.2     1  UNL1        0.0420
      5  C         19.1310  -22.5920  -10.1940 C.2     1  UNL1        0.0310
      6  C         17.9880  -22.9230   -9.4650 C.2     1  UNL1        0.0270
      7  N         21.5190  -22.8100  -10.6000 N.pl3   1  UNL1       -0.2810
      8  H         21.4030  -22.1650  -11.3810 H       1  UNL1        0.1790
      9  S         22.9630  -22.4820   -9.7770 S.O2    1  UNL1        0.2630
     10  O         22.6630  -21.3890   -8.8760 O.2     1  UNL1       -0.2000
     11  O         23.5250  -23.7200   -9.2830 O.2     1  UNL1       -0.2000
     12  C         24.0050  -21.8440  -11.0630 C.2     1  UNL1        0.0800
     13  C         25.2390  -21.2830  -10.7330 C.2     1  UNL1        0.0260
     14  C         26.0560  -20.7820  -11.7460 C.2     1  UNL1        0.0140
     15  C         25.6520  -20.8420  -13.0910 C.2     1  UNL1       -0.0260
     16  C         26.4630  -20.3360  -14.1200 C.2     1  UNL1        0.0120
     17  C         24.4040  -21.4260  -13.4180 C.2     1  UNL1       -0.0250
     18  C         26.0500  -20.4030  -15.4510 C.2     1  UNL1        0.0010
     19  C         24.8220  -20.9750  -15.7720 C.2     1  UNL1        0.0010
     20  C         24.0050  -21.4850  -14.7630 C.2     1  UNL1        0.0120
     21  C         23.5910  -21.9330  -12.3960 C.2     1  UNL1        0.0370
     22  S         16.6380  -24.2170   -7.4410 S.O2    1  UNL1        0.2630
     23  O         15.6150  -24.6010   -8.3910 O.2     1  UNL1       -0.2000
     24  O         17.0480  -25.1170   -6.3840 O.2     1  UNL1       -0.2000
     25  N         16.2010  -22.7780   -6.6780 N.pl3   1  UNL1       -0.2800
     26  H         15.1920  -22.6600   -6.6180 H       1  UNL1        0.1790
     27  C         17.0150  -22.2390   -5.6400 C.2     1  UNL1        0.0490
     28  C         16.6780  -22.4530   -4.2920 C.2     1  UNL1       -0.0350
     29  C         17.5130  -21.9240   -3.2970 C.2     1  UNL1        0.0090
     30  C         15.4470  -23.2140   -3.8860 C.3     1  UNL1        0.0500
     31  C         18.6590  -21.2010   -3.6330 C.2     1  UNL1        0.0070
     32  C         18.9960  -20.9930   -4.9730 C.2     1  UNL1       -0.0600
     33  C         20.2020  -20.1800   -5.3410 C.3     1  UNL1        0.0480
     34  C         18.1560  -21.5020   -5.9700 C.2     1  UNL1        0.0370
@<TRIPOS>BOND
     1    19    18    2
     2    19    20    1
     3    18    16    1
     4    20    17    2
     5    16    15    2
     6    17    15    1
     7    17    21    1
     8    15    14    1
     9    21    12    2
    10    14    13    2
    11     8     7    1
    12    12    13    1
    13    12     9    1
    14     7     4    1
    15     7     9    1
    16     5     4    2
    17     5     6    1
    18     4     3    1
    19     9    11    2
    20     9    10    2
    21     6     1    2
    22     3     2    2
    23    23    22    2
    24     1     2    1
    25     1    22    1
    26    22    25    1
    27    22    24    2
    28    25    26    1
    29    25    27    1
    30    34    27    2
    31    34    32    1
    32    27    28    1
    33    33    32    1
    34    32    31    2
    35    28    30    1
    36    28    29    2
    37    31    29    1
