@<TRIPOS>MOLECULE
58400_out_ligand_01.pdbqt
 33 36 0 0 0
SMALL
GASTEIGER

@<TRIPOS>ATOM
      1  C         19.4680  -23.5110   -7.7710 C.2     1  UNL1        0.0800
      2  C         20.1100  -24.5270   -8.4850 C.2     1  UNL1        0.0280
      3  C         21.4380  -24.3590   -8.8870 C.2     1  UNL1        0.0380
      4  C         22.1210  -23.1780   -8.5820 C.2     1  UNL1        0.0690
      5  C         21.4600  -22.1620   -7.8830 C.2     1  UNL1        0.0380
      6  C         20.1340  -22.3210   -7.4780 C.2     1  UNL1        0.0280
      7  O         23.4090  -22.8780   -8.9310 O.2     1  UNL1       -0.3420
      8  C         23.6560  -21.6240   -9.5570 C.3     1  UNL1        0.2780
      9  C         24.4710  -21.6990  -10.8560 C.2     1  UNL1        0.2460
     10  O         25.5450  -21.1120  -10.9530 O.2     1  UNL1       -0.2710
     11  N         23.8440  -22.4470  -11.8350 N.am    1  UNL1       -0.3250
     12  H         22.9790  -22.8940  -11.5480 H       1  UNL1        0.1690
     13  C         24.2920  -22.7140  -13.1430 C.2     1  UNL1        0.0370
     14  C         25.0730  -23.8770  -13.3230 C.2     1  UNL1        0.0320
     15  C         25.5670  -24.2330  -14.5830 C.2     1  UNL1        0.0420
     16  C         25.2620  -23.4090  -15.6420 C.2     1  UNL1        0.1050
     17  C         24.5020  -22.2760  -15.4760 C.2     1  UNL1        0.1070
     18  O         25.6500  -23.5930  -16.9310 O.2     1  UNL1       -0.3230
     19  C         24.0020  -21.9010  -14.2440 C.2     1  UNL1        0.0690
     20  O         24.3160  -21.6040  -16.6460 O.2     1  UNL1       -0.3230
     21  C         25.0510  -22.4410  -17.5610 C.3     1  UNL1        0.3520
     22  S         17.7760  -23.7230   -7.2770 S.O2    1  UNL1        0.2630
     23  O         17.6350  -25.0060   -6.6230 O.2     1  UNL1       -0.2000
     24  O         17.3670  -22.5030   -6.6120 O.2     1  UNL1       -0.2000
     25  N         16.9580  -23.7440   -8.7560 N.pl3   1  UNL1       -0.2810
     26  H         16.8650  -24.6990   -9.1010 H       1  UNL1        0.1790
     27  C         17.2780  -22.7380   -9.7070 C.2     1  UNL1        0.0430
     28  C         16.3330  -21.7760  -10.0520 C.2     1  UNL1        0.0300
     29  C         16.6450  -20.8130  -11.0090 C.2     1  UNL1        0.0030
     30  C         17.8970  -20.8200  -11.6280 C.2     1  UNL1        0.0070
     31  C         18.8440  -21.7990  -11.3030 C.2     1  UNL1       -0.0600
     32  C         20.1990  -21.7930  -11.9460 C.3     1  UNL1        0.0480
     33  C         18.5280  -22.7540  -10.3290 C.2     1  UNL1        0.0370
@<TRIPOS>BOND
     1    21    18    1
     2    21    20    1
     3    18    16    1
     4    20    17    1
     5    16    17    2
     6    16    15    1
     7    17    19    1
     8    15    14    2
     9    19    13    2
    10    14    13    1
    11    13    11    1
    12    32    31    1
    13    11    12    1
    14    11     9   am
    15    30    31    2
    16    30    29    1
    17    31    33    1
    18    29    28    2
    19    10     9    2
    20     9     8    1
    21    33    27    2
    22    28    27    1
    23    27    25    1
    24     8     7    1
    25    26    25    1
    26     7     4    1
    27     3     4    2
    28     3     2    1
    29    25    22    1
    30     4     5    1
    31     2     1    2
    32     5     6    2
    33     1     6    1
    34     1    22    1
    35    22    23    2
    36    22    24    2
