@<TRIPOS>MOLECULE
5840_out_ligand_01.pdbqt
 34 37 0 0 0
SMALL
GASTEIGER

@<TRIPOS>ATOM
      1  C         23.9700  -21.6840  -10.6240 C.ar    1  UNL1        0.1920
      2  N         25.2450  -21.3750  -10.6270 N.ar    1  UNL1       -0.1220
      3  N         25.6720  -21.3750  -11.9240 N.ar    1  UNL1       -0.1280
      4  C         24.6390  -21.6390  -12.7110 C.ar    1  UNL1        0.1670
      5  N         23.5330  -21.8610  -11.9090 N.ar    1  UNL1       -0.3070
      6  S         22.9790  -21.8600   -9.2210 S.3     1  UNL1       -0.0810
      7  C         22.8210  -23.6640   -9.1150 C.3     1  UNL1        0.1850
      8  C         21.4470  -24.0690   -8.6080 C.2     1  UNL1        0.2310
      9  N         20.8430  -23.0940   -7.8350 N.am    1  UNL1       -0.3270
     10  H         21.4350  -22.3130   -7.5540 H       1  UNL1        0.1690
     11  O         20.9710  -25.1630   -8.9030 O.2     1  UNL1       -0.2720
     12  C         19.5360  -23.0820   -7.3140 C.2     1  UNL1        0.0340
     13  C         18.6370  -24.1410   -7.4400 C.2     1  UNL1        0.0300
     14  C         17.3430  -24.0390   -6.9160 C.2     1  UNL1        0.0090
     15  C         16.9290  -22.8770   -6.2570 C.2     1  UNL1       -0.0620
     16  C         15.5350  -22.7820   -5.7110 C.3     1  UNL1        0.0480
     17  C         17.8310  -21.8140   -6.1290 C.2     1  UNL1        0.0090
     18  C         19.1240  -21.9180   -6.6530 C.2     1  UNL1        0.0300
     19  C         22.2130  -22.2970  -12.3270 C.3     1  UNL1        0.1370
     20  C         21.2320  -21.1320  -12.4890 C.3     1  UNL1        0.0590
     21  C         19.9060  -21.4290  -11.8330 C.2     1  UNL1       -0.0570
     22  C         19.6870  -22.6590  -11.1980 C.2     1  UNL1        0.0070
     23  C         18.4580  -22.9380  -10.6000 C.2     1  UNL1        0.0010
     24  C         17.4340  -21.9940  -10.6360 C.2     1  UNL1        0.0000
     25  C         17.6390  -20.7690  -11.2670 C.2     1  UNL1        0.0010
     26  C         18.8680  -20.4880  -11.8680 C.2     1  UNL1        0.0070
     27  C         24.7360  -21.7690  -14.1650 C.2     1  UNL1        0.0450
     28  C         24.7450  -23.0230  -14.7920 C.2     1  UNL1        0.0180
     29  C         24.8620  -23.1270  -16.1810 C.2     1  UNL1        0.0010
     30  C         24.9580  -21.9770  -16.9630 C.2     1  UNL1        0.0030
     31  C         24.9180  -20.7230  -16.3600 C.2     1  UNL1        0.0370
     32  C         24.7960  -20.6240  -14.9770 C.2     1  UNL1        0.0790
     33  O         24.7300  -19.3540  -14.4660 O.2     1  UNL1       -0.3600
     34  H         23.7970  -19.0680  -14.4940 H       1  UNL1        0.2170
@<TRIPOS>BOND
     1    30    31    2
     2    30    29    1
     3    31    32    1
     4    29    28    2
     5    32    33    1
     6    32    27    2
     7    28    27    1
     8    34    33    1
     9    27     4    1
    10     4     3   ar
    11     4     5   ar
    12    20    19    1
    13    20    21    1
    14    19     5    1
    15     3     2   ar
    16     5     1   ar
    17    26    21    2
    18    26    25    1
    19    21    22    1
    20    25    24    2
    21    22    23    2
    22    24    23    1
    23     2     1   ar
    24     1     6    1
    25     6     7    1
    26     7     8    1
    27    11     8    2
    28     8     9   am
    29     9    10    1
    30     9    12    1
    31    13    12    2
    32    13    14    1
    33    12    18    1
    34    14    15    2
    35    18    17    2
    36    15    17    1
    37    15    16    1
