@<TRIPOS>MOLECULE
58419_out_ligand_01.pdbqt
 34 36 0 0 0
SMALL
GASTEIGER

@<TRIPOS>ATOM
      1  C         19.4760  -23.5070   -7.7600 C.2     1  UNL1        0.0800
      2  C         20.1030  -24.5490   -8.4490 C.2     1  UNL1        0.0280
      3  C         21.4180  -24.3910   -8.9000 C.2     1  UNL1        0.0380
      4  C         22.1050  -23.1990   -8.6560 C.2     1  UNL1        0.0690
      5  C         21.4720  -22.1710   -7.9480 C.2     1  UNL1        0.0380
      6  C         20.1610  -22.3210   -7.4930 C.2     1  UNL1        0.0280
      7  O         23.3960  -22.9230   -9.0150 O.2     1  UNL1       -0.3420
      8  C         23.6820  -21.6370   -9.5550 C.3     1  UNL1        0.2780
      9  C         24.6520  -21.6370  -10.7440 C.2     1  UNL1        0.2460
     10  O         25.4830  -20.7440  -10.8700 O.2     1  UNL1       -0.2710
     11  N         24.4710  -22.7250  -11.5790 N.am    1  UNL1       -0.3250
     12  H         23.6800  -23.3120  -11.3300 H       1  UNL1        0.1690
     13  C         25.1740  -23.0600  -12.7560 C.2     1  UNL1        0.0430
     14  C         24.7040  -22.7190  -14.0320 C.2     1  UNL1        0.0660
     15  C         25.4410  -23.0710  -15.1720 C.2     1  UNL1        0.1050
     16  C         26.6480  -23.7650  -15.0570 C.2     1  UNL1        0.0370
     17  C         27.1210  -24.1040  -13.7930 C.2     1  UNL1        0.0110
     18  C         26.3980  -23.7590  -12.6360 C.2     1  UNL1       -0.0350
     19  C         26.9630  -24.1650  -11.2980 C.3     1  UNL1        0.0500
     20  N         24.9440  -22.7070  -16.5050 N.pl3   1  UNL1       -0.1160
     21  O         25.0320  -23.5500  -17.4080 O.2     1  UNL1       -0.5320
     22  O         24.4580  -21.5760  -16.6490 O.2     1  UNL1       -0.5320
     23  S         17.8100  -23.7200   -7.1700 S.O2    1  UNL1        0.2630
     24  O         17.4640  -22.5600   -6.3790 O.2     1  UNL1       -0.2000
     25  O         17.7180  -25.0560   -6.6180 O.2     1  UNL1       -0.2000
     26  N         16.8990  -23.7350   -8.5900 N.pl3   1  UNL1       -0.2810
     27  H         16.6480  -24.6790   -8.8760 H       1  UNL1        0.1790
     28  C         17.1820  -22.7830   -9.6090 C.2     1  UNL1        0.0430
     29  C         16.2400  -21.8240   -9.9720 C.2     1  UNL1        0.0300
     30  C         16.5490  -20.8810  -10.9510 C.2     1  UNL1        0.0030
     31  C         17.8040  -20.8930  -11.5620 C.2     1  UNL1        0.0070
     32  C         18.7620  -21.8450  -11.1940 C.2     1  UNL1       -0.0600
     33  C         20.0990  -21.8780  -11.8730 C.3     1  UNL1        0.0480
     34  C         18.4370  -22.8010  -10.2220 C.2     1  UNL1        0.0370
@<TRIPOS>BOND
     1    21    20    2
     2    22    20    2
     3    20    15    1
     4    15    16    2
     5    15    14    1
     6    16    17    1
     7    14    13    2
     8    17    18    2
     9    13    18    1
    10    13    11    1
    11    18    19    1
    12    33    32    1
    13    11    12    1
    14    11     9   am
    15    31    32    2
    16    31    30    1
    17    32    34    1
    18    30    29    2
    19    10     9    2
    20     9     8    1
    21    34    28    2
    22    29    28    1
    23    28    26    1
    24     8     7    1
    25     7     4    1
    26     3     4    2
    27     3     2    1
    28    27    26    1
    29     4     5    1
    30    26    23    1
    31     2     1    2
    32     5     6    2
    33     1     6    1
    34     1    23    1
    35    23    25    2
    36    23    24    2
