@<TRIPOS>MOLECULE
58418_out_ligand_01.pdbqt
 31 33 0 0 0
SMALL
GASTEIGER

@<TRIPOS>ATOM
      1  C         17.6060  -23.3790   -8.7920 C.2     1  UNL1        0.0810
      2  C         18.9980  -23.5560   -8.8230 C.2     1  UNL1        0.0420
      3  C         19.7550  -23.0100   -9.8630 C.2     1  UNL1        0.0330
      4  C         19.1210  -22.2750  -10.8680 C.2     1  UNL1        0.0170
      5  C         17.7340  -22.1000  -10.8390 C.2     1  UNL1        0.0090
      6  C         16.9560  -22.6410   -9.8020 C.2     1  UNL1       -0.0390
      7  C         15.4670  -22.4250   -9.8420 C.3     1  UNL1        0.0500
      8  S         16.7050  -24.1300   -7.4400 S.O2    1  UNL1        0.2460
      9  O         17.6710  -24.7570   -6.5630 O.2     1  UNL1       -0.2060
     10  O         15.6010  -24.8750   -8.0020 O.2     1  UNL1       -0.2060
     11  N         16.1400  -22.7320   -6.6390 N.pl3   1  UNL1       -0.1810
     12  H         16.0340  -21.9910   -7.3320 H       1  UNL1        0.1460
     13  C         16.9420  -22.3170   -5.5210 C.2     1  UNL1        0.0280
     14  C         18.0600  -21.5150   -5.7680 C.2     1  UNL1        0.0250
     15  C         18.8560  -21.0660   -4.7160 C.2     1  UNL1        0.0020
     16  C         18.5330  -21.4160   -3.4080 C.2     1  UNL1        0.0010
     17  C         17.4160  -22.2120   -3.1530 C.2     1  UNL1        0.0080
     18  C         16.6040  -22.6730   -4.2030 C.2     1  UNL1       -0.0400
     19  C         15.4060  -23.5190   -3.8780 C.3     1  UNL1        0.0500
     20  C         21.2300  -23.2020   -9.8450 C.2     1  UNL1        0.2520
     21  O         21.7280  -24.0170   -9.0770 O.2     1  UNL1       -0.2680
     22  N         21.9520  -22.4470  -10.7400 N.am    1  UNL1       -0.3490
     23  H         21.4620  -21.9840  -11.4950 H       1  UNL1        0.1630
     24  C         23.3890  -22.6200  -10.8980 C.3     1  UNL1        0.1140
     25  C         24.1750  -21.6380  -10.0220 C.3     1  UNL1        0.0370
     26  C         23.7520  -22.4930  -12.3690 C.2     1  UNL1       -0.0360
     27  C         23.0940  -21.5460  -13.1680 C.2     1  UNL1        0.0090
     28  C         23.4280  -21.3950  -14.5160 C.2     1  UNL1        0.0010
     29  C         24.4280  -22.1850  -15.0800 C.2     1  UNL1        0.0000
     30  C         25.0970  -23.1230  -14.2960 C.2     1  UNL1        0.0010
     31  C         24.7660  -23.2740  -12.9490 C.2     1  UNL1        0.0090
@<TRIPOS>BOND
     1    29    28    2
     2    29    30    1
     3    28    27    1
     4    30    31    2
     5    27    26    2
     6    31    26    1
     7    26    24    1
     8    23    22    1
     9    24    22    1
    10    24    25    1
    11     4     5    2
    12     4     3    1
    13     5     6    1
    14    22    20   am
    15     3    20    1
    16     3     2    2
    17    20    21    2
    18     7     6    1
    19     6     1    2
    20     2     1    1
    21     1     8    1
    22    10     8    2
    23     8    11    1
    24     8     9    2
    25    12    11    1
    26    11    13    1
    27    14    13    2
    28    14    15    1
    29    13    18    1
    30    15    16    2
    31    18    19    1
    32    18    17    2
    33    16    17    1
