@<TRIPOS>MOLECULE
58413_out_ligand_01.pdbqt
 38 41 0 0 0
SMALL
GASTEIGER

@<TRIPOS>ATOM
      1  O         19.4410  -21.0880  -12.4720 O.2     1  UNL1       -0.3420
      2  C         18.6100  -21.5780  -11.5040 C.2     1  UNL1        0.0690
      3  C         17.3350  -21.0990  -11.2010 C.2     1  UNL1        0.0380
      4  C         16.5840  -21.6970  -10.1840 C.2     1  UNL1        0.0280
      5  C         17.1190  -22.7710   -9.4670 C.2     1  UNL1        0.0800
      6  C         18.3870  -23.2680   -9.7720 C.2     1  UNL1        0.0280
      7  C         19.1260  -22.6660  -10.7920 C.2     1  UNL1        0.0380
      8  S         16.1570  -23.5260   -8.1810 S.O2    1  UNL1        0.2630
      9  O         15.4800  -22.4590   -7.4730 O.2     1  UNL1       -0.2000
     10  O         15.4150  -24.6360   -8.7360 O.2     1  UNL1       -0.2000
     11  N         17.3430  -24.1080   -7.1240 N.pl3   1  UNL1       -0.2810
     12  H         18.1300  -24.4880   -7.6470 H       1  UNL1        0.1790
     13  C         17.6450  -23.3290   -5.9740 C.2     1  UNL1        0.0430
     14  C         17.1730  -23.7290   -4.7250 C.2     1  UNL1        0.0300
     15  C         17.4350  -22.9450   -3.6030 C.2     1  UNL1        0.0030
     16  C         18.1660  -21.7620   -3.7300 C.2     1  UNL1        0.0070
     17  C         18.6460  -21.3550   -4.9820 C.2     1  UNL1       -0.0600
     18  C         19.3900  -20.0600   -5.1220 C.3     1  UNL1        0.0480
     19  C         18.3670  -22.1420   -6.1080 C.2     1  UNL1        0.0370
     20  C         20.6430  -20.4550  -12.0370 C.3     1  UNL1        0.2780
     21  C         21.8560  -21.0820  -12.7330 C.2     1  UNL1        0.2460
     22  O         22.0030  -20.9890  -13.9490 O.2     1  UNL1       -0.2710
     23  N         22.6870  -21.7500  -11.8580 N.am    1  UNL1       -0.3230
     24  H         22.4090  -21.7140  -10.8790 H       1  UNL1        0.1690
     25  C         23.8840  -22.4420  -12.1270 C.2     1  UNL1        0.0700
     26  C         24.2040  -22.9910  -13.3690 C.2     1  UNL1        0.0560
     27  C         25.4190  -23.6610  -13.5410 C.2     1  UNL1        0.0360
     28 CL         25.8110  -24.3350  -15.0770 Cl      1  UNL1       -0.0840
     29  C         26.3200  -23.7980  -12.4850 C.2     1  UNL1        0.0260
     30  C         26.0120  -23.2550  -11.2400 C.2     1  UNL1        0.0410
     31  C         24.8060  -22.5680  -11.0720 C.2     1  UNL1        0.1020
     32  O         24.4630  -22.0660   -9.8330 O.2     1  UNL1       -0.3090
     33  C         23.3120  -22.5510   -9.2530 C.2     1  UNL1        0.0760
     34  C         22.8640  -23.8670   -9.3960 C.2     1  UNL1        0.0370
     35  C         21.7040  -24.2800   -8.7390 C.2     1  UNL1        0.0030
     36  C         21.0020  -23.3850   -7.9320 C.2     1  UNL1        0.0000
     37  C         21.4610  -22.0790   -7.7740 C.2     1  UNL1        0.0030
     38  C         22.6200  -21.6640   -8.4280 C.2     1  UNL1        0.0370
@<TRIPOS>BOND
     1    28    27    1
     2    22    21    2
     3    27    26    1
     4    27    29    2
     5    26    25    2
     6    21    20    1
     7    21    23   am
     8    29    30    1
     9     1    20    1
    10     1     2    1
    11    25    23    1
    12    25    31    1
    13    23    24    1
    14     2     3    2
    15     2     7    1
    16    30    31    2
    17     3     4    1
    18    31    32    1
    19     7     6    2
    20     4     5    2
    21    32    33    1
    22     6     5    1
    23     5     8    1
    24    34    33    2
    25    34    35    1
    26    33    38    1
    27    35    36    2
    28    10     8    2
    29    38    37    2
    30     8     9    2
    31     8    11    1
    32    36    37    1
    33    12    11    1
    34    11    13    1
    35    19    13    2
    36    19    17    1
    37    13    14    1
    38    18    17    1
    39    17    16    2
    40    14    15    2
    41    16    15    1
