@<TRIPOS>MOLECULE
58410_out_ligand_01.pdbqt
 32 34 0 0 0
SMALL
GASTEIGER

@<TRIPOS>ATOM
      1  C         19.7310  -21.7550  -11.3430 C.2     1  UNL1        0.0330
      2  C         18.5730  -21.2450  -11.9360 C.2     1  UNL1        0.0170
      3  C         17.3250  -21.4960  -11.3620 C.2     1  UNL1        0.0090
      4  C         17.2030  -22.2710  -10.1960 C.2     1  UNL1       -0.0390
      5  C         15.8290  -22.4890   -9.6250 C.3     1  UNL1        0.0500
      6  C         18.3780  -22.7850   -9.6090 C.2     1  UNL1        0.0810
      7  C         19.6330  -22.5300  -10.1830 C.2     1  UNL1        0.0420
      8  C         21.0790  -21.5270  -11.9350 C.2     1  UNL1        0.2560
      9  N         22.0900  -22.2750  -11.3730 N.am    1  UNL1       -0.3210
     10  H         21.8500  -22.9800  -10.6830 H       1  UNL1        0.1690
     11  O         21.1720  -20.7330  -12.8630 O.2     1  UNL1       -0.2670
     12  C         23.4670  -22.2630  -11.6900 C.2     1  UNL1        0.0680
     13  C         23.9860  -22.7460  -12.8920 C.2     1  UNL1        0.0320
     14  C         25.3610  -22.6970  -13.1340 C.2     1  UNL1        0.0020
     15  C         26.2210  -22.1640  -12.1770 C.2     1  UNL1        0.0030
     16  C         25.7130  -21.6750  -10.9710 C.2     1  UNL1        0.0390
     17  C         24.3390  -21.7210  -10.7210 C.2     1  UNL1        0.0950
     18  O         23.7300  -21.2650   -9.5730 O.2     1  UNL1       -0.3490
     19  C         23.2200  -22.2470   -8.6710 C.3     1  UNL1        0.1710
     20  C         22.1660  -21.5790   -7.8060 C.3     1  UNL1        0.0340
     21  S         18.3370  -23.7640   -8.1110 S.O2    1  UNL1        0.2460
     22  O         19.5690  -24.5170   -8.0380 O.2     1  UNL1       -0.2060
     23  O         17.0450  -24.4160   -8.0420 O.2     1  UNL1       -0.2060
     24  N         18.3170  -22.5270   -6.9340 N.pl3   1  UNL1       -0.1810
     25  H         18.2480  -21.6380   -7.4330 H       1  UNL1        0.1460
     26  C         17.2520  -22.6560   -5.9810 C.2     1  UNL1        0.0230
     27  C         17.4410  -23.4320   -4.8390 C.2     1  UNL1        0.0240
     28  C         16.4000  -23.5880   -3.9260 C.2     1  UNL1        0.0020
     29  C         15.1640  -22.9820   -4.1640 C.2     1  UNL1        0.0070
     30  C         14.9540  -22.2320   -5.3290 C.2     1  UNL1       -0.0600
     31  C         13.6310  -21.5720   -5.5790 C.3     1  UNL1        0.0480
     32  C         16.0100  -22.0670   -6.2350 C.2     1  UNL1        0.0310
@<TRIPOS>BOND
     1    14    13    1
     2    14    15    2
     3    13    12    2
     4    11     8    2
     5    15    16    1
     6     2     3    1
     7     2     1    2
     8     8     9   am
     9     8     1    1
    10    12     9    1
    11    12    17    1
    12     9    10    1
    13     3     4    2
    14     1     7    1
    15    16    17    2
    16    17    18    1
    17     4     5    1
    18     4     6    1
    19     7     6    2
    20     6    21    1
    21    18    19    1
    22    19    20    1
    23    21    23    2
    24    21    22    2
    25    21    24    1
    26    25    24    1
    27    24    26    1
    28    32    26    2
    29    32    30    1
    30    26    27    1
    31    31    30    1
    32    30    29    2
    33    27    28    2
    34    29    28    1
