@<TRIPOS>MOLECULE
5842_out_ligand_01.pdbqt
 32 35 0 0 0
SMALL
GASTEIGER

@<TRIPOS>ATOM
      1  C         23.7130  -21.6440  -10.3870 C.ar    1  UNL1        0.1920
      2  N         24.9550  -21.2280  -10.3670 N.ar    1  UNL1       -0.1220
      3  N         25.4180  -21.2310  -11.6570 N.ar    1  UNL1       -0.1280
      4  C         24.4510  -21.6600  -12.4460 C.ar    1  UNL1        0.1660
      5  N         23.3400  -21.9260  -11.6720 N.ar    1  UNL1       -0.3070
      6  S         22.6860  -21.8220   -9.0110 S.3     1  UNL1       -0.0810
      7  C         22.5630  -23.6360   -8.9190 C.3     1  UNL1        0.1850
      8  C         21.1540  -24.0510   -8.5290 C.2     1  UNL1        0.2310
      9  O         20.7100  -25.1420   -8.8850 O.2     1  UNL1       -0.2720
     10  N         20.4790  -23.1060   -7.7740 N.am    1  UNL1       -0.3250
     11  H         20.9040  -22.1790   -7.6980 H       1  UNL1        0.1690
     12  C         19.1990  -23.2370   -7.1750 C.2     1  UNL1        0.0560
     13  C         18.3410  -24.3110   -7.4410 C.2     1  UNL1        0.0310
     14  C         17.0950  -24.4080   -6.8120 C.2     1  UNL1        0.0020
     15  C         16.6840  -23.4320   -5.9080 C.2     1  UNL1        0.0020
     16  C         17.5220  -22.3540   -5.6310 C.2     1  UNL1        0.0260
     17  C         18.7710  -22.2620   -6.2530 C.2     1  UNL1        0.0600
     18 CL         19.7560  -20.8950   -5.8570 Cl      1  UNL1       -0.0820
     19  C         22.0380  -22.3540  -12.1470 C.3     1  UNL1        0.1370
     20  C         21.0900  -21.1790  -12.3930 C.3     1  UNL1        0.0590
     21  C         19.7490  -21.4190  -11.7460 C.2     1  UNL1       -0.0570
     22  C         19.4720  -22.6440  -11.1240 C.2     1  UNL1        0.0070
     23  C         18.2180  -22.8800  -10.5600 C.2     1  UNL1        0.0010
     24  C         17.2320  -21.8970  -10.6130 C.2     1  UNL1        0.0000
     25  C         17.4980  -20.6750  -11.2290 C.2     1  UNL1        0.0010
     26  C         18.7510  -20.4350  -11.7950 C.2     1  UNL1        0.0070
     27  C         24.5380  -21.8030  -13.8890 C.2     1  UNL1        0.0290
     28  C         25.0170  -22.9800  -14.4680 C.2     1  UNL1        0.0180
     29  C         25.1180  -23.0720  -15.8540 C.2     1  UNL1        0.0200
     30  C         24.7220  -21.9860  -16.6180 C.2     1  UNL1        0.1160
     31  N         24.2400  -20.8370  -16.0960 N.2     1  UNL1       -0.2720
     32  C         24.1420  -20.7810  -14.7460 C.2     1  UNL1        0.1310
@<TRIPOS>BOND
     1    30    31    2
     2    30    29    1
     3    31    32    1
     4    29    28    2
     5    32    27    2
     6    28    27    1
     7    27     4    1
     8     4     5   ar
     9     4     3   ar
    10    20    19    1
    11    20    21    1
    12    19     5    1
    13    26    21    2
    14    26    25    1
    15    21    22    1
    16     5     1   ar
    17     3     2   ar
    18    25    24    2
    19    22    23    2
    20    24    23    1
    21     1     2   ar
    22     1     6    1
    23     6     7    1
    24     7     8    1
    25     9     8    2
    26     8    10   am
    27    10    11    1
    28    10    12    1
    29    13    12    2
    30    13    14    1
    31    12    17    1
    32    14    15    2
    33    17    18    1
    34    17    16    2
    35    15    16    1
