@<TRIPOS>MOLECULE
5848_out_ligand_01.pdbqt
 32 35 0 0 0
SMALL
GASTEIGER

@<TRIPOS>ATOM
      1  C         23.8290  -21.6540  -10.4430 C.ar    1  UNL1        0.1920
      2  N         25.0750  -21.2450  -10.4230 N.ar    1  UNL1       -0.1220
      3  N         25.5400  -21.2560  -11.7150 N.ar    1  UNL1       -0.1280
      4  C         24.5570  -21.6360  -12.5040 C.ar    1  UNL1        0.1660
      5  N         23.4480  -21.9130  -11.7290 N.ar    1  UNL1       -0.3070
      6  S         22.8010  -21.8300   -9.0670 S.3     1  UNL1       -0.0810
      7  C         22.6970  -23.6390   -8.9290 C.3     1  UNL1        0.1850
      8  C         21.2920  -24.0830   -8.5540 C.2     1  UNL1        0.2310
      9  N         20.6260  -23.1700   -7.7570 N.am    1  UNL1       -0.3270
     10  H         21.1880  -22.4110   -7.3720 H       1  UNL1        0.1690
     11  O         20.8460  -25.1550   -8.9610 O.2     1  UNL1       -0.2720
     12  C         19.2900  -23.2190   -7.3160 C.2     1  UNL1        0.0340
     13  C         18.7170  -22.0160   -6.8880 C.2     1  UNL1        0.0300
     14  C         17.3880  -21.9720   -6.4570 C.2     1  UNL1        0.0090
     15  C         16.6060  -23.1310   -6.4540 C.2     1  UNL1       -0.0620
     16  C         15.1750  -23.1010   -6.0050 C.3     1  UNL1        0.0480
     17  C         17.1790  -24.3350   -6.8830 C.2     1  UNL1        0.0090
     18  C         18.5120  -24.3780   -7.3090 C.2     1  UNL1        0.0300
     19  C         22.1580  -22.3840  -12.2000 C.3     1  UNL1        0.1370
     20  C         21.1890  -21.2330  -12.4690 C.3     1  UNL1        0.0590
     21  C         19.8540  -21.4680  -11.8110 C.2     1  UNL1       -0.0570
     22  C         18.8570  -20.4850  -11.8590 C.2     1  UNL1        0.0070
     23  C         17.6180  -20.7060  -11.2540 C.2     1  UNL1        0.0010
     24  C         17.3640  -21.9110  -10.6030 C.2     1  UNL1        0.0000
     25  C         18.3470  -22.8980  -10.5570 C.2     1  UNL1        0.0010
     26  C         19.5870  -22.6800  -11.1610 C.2     1  UNL1        0.0070
     27  C         24.6250  -21.7530  -13.9520 C.2     1  UNL1        0.0290
     28  C         25.0250  -22.9420  -14.5640 C.2     1  UNL1        0.0180
     29  C         25.0520  -23.0210  -15.9560 C.2     1  UNL1        0.0200
     30  C         24.6680  -21.9070  -16.6860 C.2     1  UNL1        0.1160
     31  N         24.2820  -20.7390  -16.1270 N.2     1  UNL1       -0.2720
     32  C         24.2870  -20.6840  -14.7740 C.2     1  UNL1        0.1310
@<TRIPOS>BOND
     1    30    31    2
     2    30    29    1
     3    31    32    1
     4    29    28    2
     5    32    27    2
     6    28    27    1
     7    27     4    1
     8     4     5   ar
     9     4     3   ar
    10    20    19    1
    11    20    21    1
    12    19     5    1
    13    22    21    2
    14    22    23    1
    15    21    26    1
    16     5     1   ar
    17     3     2   ar
    18    23    24    2
    19    26    25    2
    20    24    25    1
    21     1     2   ar
    22     1     6    1
    23     6     7    1
    24    11     8    2
    25     7     8    1
    26     8     9   am
    27     9    10    1
    28     9    12    1
    29    12    18    2
    30    12    13    1
    31    18    17    1
    32    13    14    2
    33    17    15    2
    34    14    15    1
    35    15    16    1
