@<TRIPOS>MOLECULE
5851_out_ligand_01.pdbqt
 39 43 0 0 0
SMALL
GASTEIGER

@<TRIPOS>ATOM
      1  C         23.5580  -21.6380  -10.4260 C.ar    1  UNL1        0.1920
      2  N         24.8190  -21.2840  -10.5340 N.ar    1  UNL1       -0.1230
      3  N         25.0870  -21.1060  -11.8640 N.ar    1  UNL1       -0.1320
      4  C         23.9940  -21.3930  -12.5500 C.ar    1  UNL1        0.1480
      5  N         22.9760  -21.6960  -11.6680 N.ar    1  UNL1       -0.3100
      6  S         22.7720  -22.0880   -8.9540 S.3     1  UNL1       -0.0810
      7  C         22.5190  -23.8600   -9.2280 C.3     1  UNL1        0.1850
      8  C         21.1530  -24.3150   -8.7230 C.2     1  UNL1        0.2310
      9  O         20.8010  -25.4890   -8.8260 O.2     1  UNL1       -0.2720
     10  N         20.4300  -23.2920   -8.1190 N.am    1  UNL1       -0.3260
     11  H         20.7740  -22.3530   -8.3180 H       1  UNL1        0.1690
     12  C         19.2600  -23.3970   -7.3160 C.2     1  UNL1        0.0450
     13  C         18.3840  -24.4820   -7.4630 C.2     1  UNL1        0.0300
     14  C         17.2560  -24.6010   -6.6610 C.2     1  UNL1        0.0030
     15  C         17.0010  -23.6530   -5.6740 C.2     1  UNL1        0.0120
     16  C         17.8510  -22.5570   -5.4910 C.2     1  UNL1       -0.0240
     17  C         17.5700  -21.6330   -4.4650 C.2     1  UNL1        0.0120
     18  C         18.9930  -22.3960   -6.3200 C.2     1  UNL1        0.0010
     19  C         18.3820  -20.5260   -4.2430 C.2     1  UNL1        0.0010
     20  C         19.5000  -20.3340   -5.0430 C.2     1  UNL1        0.0010
     21  C         19.8000  -21.2500   -6.0660 C.2     1  UNL1        0.0140
     22  C         21.6310  -22.1330  -12.0150 C.3     1  UNL1        0.1370
     23  C         20.6070  -20.9890  -12.1320 C.3     1  UNL1        0.0590
     24  C         19.2400  -21.3650  -11.6120 C.2     1  UNL1       -0.0570
     25  C         18.9980  -22.6490  -11.0940 C.2     1  UNL1        0.0070
     26  C         17.7630  -22.9610  -10.5240 C.2     1  UNL1        0.0010
     27  C         16.7650  -21.9910  -10.4580 C.2     1  UNL1        0.0000
     28  C         16.9860  -20.7220  -10.9920 C.2     1  UNL1        0.0010
     29  C         18.2070  -20.4170  -11.5890 C.2     1  UNL1        0.0070
     30  C         23.8780  -21.4570  -14.0400 C.3     1  UNL1        0.2000
     31  N         25.1520  -21.6640  -14.7230 N.pl3   1  UNL1       -0.3830
     32  H         25.2170  -22.5980  -15.1280 H       1  UNL1        0.1600
     33  C         25.6880  -20.6980  -15.5800 C.2     1  UNL1        0.0290
     34  C         25.7240  -20.8210  -16.9750 C.2     1  UNL1        0.0290
     35  C         26.1900  -19.7770  -17.7890 C.2     1  UNL1        0.0040
     36  C         26.5990  -18.5750  -17.2150 C.2     1  UNL1        0.0240
     37  C         26.5450  -18.4230  -15.8360 C.2     1  UNL1        0.0360
     38 CL         27.0120  -16.9220  -15.1200 Cl      1  UNL1       -0.0840
     39  C         26.0870  -19.4710  -15.0270 C.2     1  UNL1        0.0520
@<TRIPOS>BOND
     1    35    36    2
     2    35    34    1
     3    36    37    1
     4    34    33    2
     5    37    38    1
     6    37    39    2
     7    33    39    1
     8    33    31    1
     9    32    31    1
    10    31    30    1
    11    30     4    1
    12     4     3   ar
    13     4     5   ar
    14    23    22    1
    15    23    24    1
    16    22     5    1
    17     3     2   ar
    18     5     1   ar
    19    24    29    2
    20    24    25    1
    21    29    28    1
    22    25    26    2
    23    28    27    2
    24     2     1   ar
    25    26    27    1
    26     1     6    1
    27     7     6    1
    28     7     8    1
    29     9     8    2
    30     8    10   am
    31    11    10    1
    32    10    12    1
    33    13    12    2
    34    13    14    1
    35    12    18    1
    36    14    15    2
    37    18    21    1
    38    18    16    2
    39    21    20    2
    40    15    16    1
    41    16    17    1
    42    20    19    1
    43    17    19    2
