@<TRIPOS>MOLECULE
5858_out_ligand_01.pdbqt
 33 36 0 0 0
SMALL
GASTEIGER

@<TRIPOS>ATOM
      1  C         24.0730  -21.6710  -10.6060 C.ar    1  UNL1        0.1920
      2  N         25.3420  -21.3450  -10.6550 N.ar    1  UNL1       -0.1220
      3  N         25.7330  -21.3820  -11.9680 N.ar    1  UNL1       -0.1280
      4  C         24.7010  -21.7640  -12.7030 C.ar    1  UNL1        0.1660
      5  N         23.6170  -21.9500  -11.8670 N.ar    1  UNL1       -0.3070
      6  S         23.1020  -21.7420   -9.1790 S.3     1  UNL1       -0.0810
      7  C         22.8660  -23.5350   -8.9970 C.3     1  UNL1        0.1850
      8  C         21.4530  -23.8650   -8.5410 C.2     1  UNL1        0.2310
      9  N         20.8120  -22.8040   -7.9260 N.am    1  UNL1       -0.3260
     10  H         21.2800  -21.9010   -7.9850 H       1  UNL1        0.1690
     11  O         20.9870  -24.9870   -8.7180 O.2     1  UNL1       -0.2720
     12  C         19.5470  -22.8010   -7.3080 C.2     1  UNL1        0.0360
     13  C         19.3250  -21.8330   -6.3210 C.2     1  UNL1        0.0300
     14  C         18.1010  -21.7720   -5.6470 C.2     1  UNL1        0.0110
     15  C         17.0740  -22.6820   -5.9400 C.2     1  UNL1       -0.0400
     16  C         15.7890  -22.6120   -5.1660 C.3     1  UNL1        0.0500
     17  C         17.3130  -23.6630   -6.9140 C.2     1  UNL1        0.0420
     18  C         18.5330  -23.7180   -7.6000 C.2     1  UNL1        0.0530
     19 CL         16.1130  -24.8520   -7.3080 Cl      1  UNL1       -0.0840
     20  C         22.2730  -22.3290  -12.2620 C.3     1  UNL1        0.1370
     21  C         21.3500  -21.1180  -12.4040 C.3     1  UNL1        0.0590
     22  C         19.9900  -21.3880  -11.8160 C.2     1  UNL1       -0.0570
     23  C         18.9940  -20.4010  -11.8470 C.2     1  UNL1        0.0070
     24  C         17.7320  -20.6540  -11.3080 C.2     1  UNL1        0.0010
     25  C         17.4520  -21.8950  -10.7360 C.2     1  UNL1        0.0000
     26  C         18.4330  -22.8850  -10.7060 C.2     1  UNL1        0.0010
     27  C         19.6960  -22.6350  -11.2470 C.2     1  UNL1        0.0070
     28  C         24.6990  -21.9290  -14.1490 C.2     1  UNL1        0.0290
     29  C         25.0320  -23.1530  -14.7340 C.2     1  UNL1        0.0180
     30  C         25.0550  -23.2710  -16.1250 C.2     1  UNL1        0.0200
     31  C         24.7340  -22.1550  -16.8830 C.2     1  UNL1        0.1160
     32  N         24.3870  -20.9600  -16.3530 N.2     1  UNL1       -0.2720
     33  C         24.3590  -20.8810  -15.0000 C.2     1  UNL1        0.1310
@<TRIPOS>BOND
     1    31    32    2
     2    31    30    1
     3    32    33    1
     4    30    29    2
     5    33    28    2
     6    29    28    1
     7    28     4    1
     8     4     3   ar
     9     4     5   ar
    10    21    20    1
    11    21    22    1
    12    20     5    1
    13     3     2   ar
    14     5     1   ar
    15    23    22    2
    16    23    24    1
    17    22    27    1
    18    24    25    2
    19    27    26    2
    20    25    26    1
    21     2     1   ar
    22     1     6    1
    23     6     7    1
    24     7     8    1
    25    11     8    2
    26     8     9   am
    27    10     9    1
    28     9    12    1
    29    18    12    2
    30    18    17    1
    31    19    17    1
    32    12    13    1
    33    17    15    2
    34    13    14    2
    35    15    14    1
    36    15    16    1
