@<TRIPOS>MOLECULE
586_out_ligand_01.pdbqt
 33 35 0 0 0
SMALL
GASTEIGER

@<TRIPOS>ATOM
      1  C         21.0690  -21.7390  -11.7240 C.2     1  UNL1        0.2560
      2  O         20.3400  -20.7820  -11.9600 O.2     1  UNL1       -0.2670
      3  N         20.7810  -22.8200  -10.9110 N.am    1  UNL1       -0.3230
      4  H         21.4270  -23.5980  -10.9190 H       1  UNL1        0.1690
      5  C         19.6290  -23.0040  -10.1160 C.2     1  UNL1        0.0350
      6  C         19.7820  -23.7310   -8.9290 C.2     1  UNL1        0.0310
      7  C         18.6910  -23.9540   -8.0800 C.2     1  UNL1        0.0210
      8  C         17.4280  -23.4560   -8.4080 C.2     1  UNL1        0.0050
      9  C         17.2770  -22.7190   -9.5840 C.2     1  UNL1        0.0210
     10  C         18.3700  -22.4970  -10.4330 C.2     1  UNL1        0.0310
     11  S         16.0150  -23.7060   -7.3500 S.3     1  UNL1       -0.0900
     12  C         16.5600  -22.9540   -5.8150 C.2     1  UNL1        0.0120
     13  C         17.6550  -22.0740   -5.8480 C.2     1  UNL1        0.0260
     14  C         18.1340  -21.4660   -4.6810 C.2     1  UNL1       -0.0610
     15  C         19.2810  -20.5010   -4.7450 C.3     1  UNL1        0.0480
     16  C         17.4930  -21.7320   -3.4700 C.2     1  UNL1        0.0070
     17  C         16.4110  -22.6130   -3.4220 C.2     1  UNL1        0.0090
     18  C         15.9360  -23.2390   -4.5850 C.2     1  UNL1       -0.0450
     19  C         14.7750  -24.1900   -4.4780 C.3     1  UNL1        0.0490
     20  C         22.3950  -21.7870  -12.4070 C.2     1  UNL1        0.0340
     21  C         22.5240  -21.1680  -13.6570 C.2     1  UNL1        0.0200
     22  C         23.7470  -21.1770  -14.3310 C.2     1  UNL1        0.0390
     23  C         24.8600  -21.7850  -13.7480 C.2     1  UNL1        0.0910
     24  C         24.7370  -22.4090  -12.5050 C.2     1  UNL1        0.1080
     25  C         23.5100  -22.4030  -11.8250 C.2     1  UNL1        0.0440
     26  O         26.0400  -21.8350  -14.4400 O.2     1  UNL1       -0.3540
     27  C         26.5800  -20.5220  -14.6250 C.3     1  UNL1        0.2100
     28  S         26.1110  -23.2200  -11.7390 S.O2    1  UNL1        0.2420
     29  O         27.1210  -22.2110  -11.4920 O.2     1  UNL1       -0.2060
     30  O         26.3810  -24.4210  -12.4910 O.2     1  UNL1       -0.2060
     31  N         25.5570  -23.6530  -10.2150 N.3     1  UNL1       -0.2250
     32  H         26.3350  -23.7850   -9.5700 H       1  UNL1        0.1360
     33  H         24.8220  -23.0320   -9.8670 H       1  UNL1        0.1360
@<TRIPOS>BOND
     1    27    26    1
     2    26    23    1
     3    22    23    2
     4    22    21    1
     5    23    24    1
     6    21    20    2
     7    24    25    2
     8    24    28    1
     9    30    28    2
    10    20    25    1
    11    20     1    1
    12     2     1    2
    13    28    29    2
    14    28    31    1
    15     1     3   am
    16     4     3    1
    17     3     5    1
    18    10     5    2
    19    10     9    1
    20    31    33    1
    21    31    32    1
    22     5     6    1
    23     9     8    2
    24     6     7    2
    25     8     7    1
    26     8    11    1
    27    11    12    1
    28    13    12    2
    29    13    14    1
    30    12    18    1
    31    15    14    1
    32    14    16    2
    33    18    19    1
    34    18    17    2
    35    16    17    1
