@<TRIPOS>MOLECULE
58712_out_ligand_01.pdbqt
 36 40 0 0 0
SMALL
GASTEIGER

@<TRIPOS>ATOM
      1  C         25.2510  -22.2060  -12.9400 C.2     1  UNL1        0.0250
      2  C         25.4600  -21.2300  -11.9620 C.2     1  UNL1        0.0250
      3  C         24.6890  -21.2240  -10.7970 C.2     1  UNL1        0.0190
      4  C         23.6920  -22.1930  -10.6180 C.2     1  UNL1        0.0330
      5  C         23.4880  -23.1740  -11.5960 C.2     1  UNL1        0.0190
      6  C         24.2560  -23.1720  -12.7620 C.2     1  UNL1        0.0250
      7  C         22.8470  -22.2230   -9.3940 C.2     1  UNL1        0.2710
      8  O         23.0940  -21.4420   -8.4810 O.2     1  UNL1       -0.2660
      9  N         21.8510  -23.1880   -9.3980 N.am    1  UNL1       -0.2430
     10  H         21.8110  -23.8860  -10.1300 H       1  UNL1        0.1920
     11  N         21.0310  -23.3090   -8.3160 N.2     1  UNL1       -0.1830
     12  C         19.7650  -23.1780   -8.5430 C.2     1  UNL1        0.1510
     13  C         18.7300  -23.2790   -7.4870 C.2     1  UNL1       -0.0060
     14  C         17.7800  -24.3170   -7.6580 C.2     1  UNL1        0.0140
     15  C         16.7470  -24.5190   -6.7320 C.2     1  UNL1        0.0090
     16  C         16.6700  -23.6800   -5.6360 C.2     1  UNL1       -0.0460
     17  C         17.5970  -22.6790   -5.4780 C.2     1  UNL1       -0.0120
     18  C         15.6690  -23.6900   -4.5180 C.2     1  UNL1        0.0440
     19  C         17.3290  -21.9770   -4.3270 C.2     1  UNL1       -0.0460
     20  C         18.6560  -22.4120   -6.3560 C.2     1  UNL1       -0.0130
     21  C         18.1390  -20.9180   -3.9630 C.2     1  UNL1        0.0080
     22  C         16.1250  -22.5200   -3.6140 C.2     1  UNL1        0.0440
     23  C         19.2190  -20.5910   -4.7900 C.2     1  UNL1        0.0010
     24  C         19.4790  -21.3210   -5.9670 C.2     1  UNL1        0.0130
     25  N         26.0440  -22.1370  -14.1400 N.pl3   1  UNL1       -0.1760
     26  C         26.9790  -23.2710  -14.3320 C.3     1  UNL1        0.1360
     27  S         25.1040  -21.7310  -15.5260 S.O2    1  UNL1        0.2470
     28  O         23.7170  -21.5850  -15.1320 O.2     1  UNL1       -0.2050
     29  O         25.4870  -22.6240  -16.6020 O.2     1  UNL1       -0.2050
     30  C         25.6980  -20.1030  -15.9220 C.2     1  UNL1        0.0750
     31  C         25.8340  -19.7430  -17.2660 C.2     1  UNL1        0.0250
     32  C         26.3000  -18.4690  -17.5900 C.2     1  UNL1        0.0080
     33  C         26.6470  -17.5600  -16.5810 C.2     1  UNL1       -0.0620
     34  C         27.1210  -16.1810  -16.9370 C.3     1  UNL1        0.0480
     35  C         26.5010  -17.9350  -15.2370 C.2     1  UNL1        0.0080
     36  C         26.0350  -19.2080  -14.9040 C.2     1  UNL1        0.0250
@<TRIPOS>BOND
     1    32    31    1
     2    32    33    2
     3    31    30    2
     4    34    33    1
     5    29    27    2
     6    33    35    1
     7    30    27    1
     8    30    36    1
     9    27    28    2
    10    27    25    1
    11    35    36    2
    12    26    25    1
    13    25     1    1
    14     1     6    2
    15     1     2    1
    16     6     5    1
    17     2     3    2
    18     5     4    2
    19     3     4    1
    20     4     7    1
    21    10     9    1
    22     9     7   am
    23     9    11    1
    24     7     8    2
    25    12    11    2
    26    12    13    1
    27    14    13    2
    28    14    15    1
    29    13    20    1
    30    15    16    2
    31    20    24    1
    32    20    17    2
    33    24    23    2
    34    16    17    1
    35    16    18    1
    36    17    19    1
    37    23    21    1
    38    18    22    2
    39    19    21    2
    40    19    22    1
