@<TRIPOS>MOLECULE
5883_out_ligand_01.pdbqt
 34 37 0 0 0
SMALL
GASTEIGER

@<TRIPOS>ATOM
      1  C         23.7930  -21.6660  -10.4280 C.ar    1  UNL1        0.1920
      2  N         25.0510  -21.3000  -10.4150 N.ar    1  UNL1       -0.1220
      3  N         25.4850  -21.2430  -11.7100 N.ar    1  UNL1       -0.1280
      4  C         24.4900  -21.6080  -12.5000 C.ar    1  UNL1        0.1640
      5  N         23.3850  -21.8750  -11.7170 N.ar    1  UNL1       -0.3070
      6  S         22.7790  -21.8600   -9.0450 S.3     1  UNL1       -0.0810
      7  C         22.6290  -23.6660   -8.9690 C.3     1  UNL1        0.1850
      8  C         21.2160  -24.0860   -8.6000 C.2     1  UNL1        0.2310
      9  N         20.5390  -23.1400   -7.8500 N.am    1  UNL1       -0.3270
     10  H         20.9740  -22.2180   -7.7890 H       1  UNL1        0.1690
     11  O         20.7810  -25.1820   -8.9490 O.2     1  UNL1       -0.2720
     12  C         19.2730  -23.2660   -7.2480 C.2     1  UNL1        0.0340
     13  C         18.5120  -24.4340   -7.2700 C.2     1  UNL1        0.0300
     14  C         17.2750  -24.4930   -6.6150 C.2     1  UNL1        0.0170
     15  C         16.7820  -23.3750   -5.9340 C.2     1  UNL1        0.0090
     16  C         17.5390  -22.2010   -5.9170 C.2     1  UNL1        0.0170
     17  C         18.7790  -22.1480   -6.5630 C.2     1  UNL1        0.0300
     18  C         15.4690  -23.3900   -5.2250 C.2     1  UNL1        0.1550
     19  C         14.5370  -22.2230   -5.3910 C.3     1  UNL1        0.0960
     20  O         15.1700  -24.3460   -4.5080 O.2     1  UNL1       -0.2930
     21  C         22.0660  -22.2690  -12.1770 C.3     1  UNL1        0.1370
     22  C         21.1170  -21.0780  -12.2910 C.3     1  UNL1        0.0590
     23  C         19.7550  -21.3840  -11.7220 C.2     1  UNL1       -0.0570
     24  C         18.7180  -20.4500  -11.8230 C.2     1  UNL1        0.0070
     25  C         17.4620  -20.7280  -11.2820 C.2     1  UNL1        0.0010
     26  C         17.2320  -21.9420  -10.6370 C.2     1  UNL1        0.0000
     27  C         18.2530  -22.8820  -10.5420 C.2     1  UNL1        0.0010
     28  C         19.5090  -22.6070  -11.0840 C.2     1  UNL1        0.0070
     29  C         24.5460  -21.6970  -13.9530 C.2     1  UNL1        0.0150
     30  C         24.3540  -20.5560  -14.7300 C.2     1  UNL1        0.0340
     31  C         24.3940  -20.6860  -16.1090 C.2     1  UNL1        0.1170
     32  N         24.6130  -21.8580  -16.7420 N.2     1  UNL1       -0.2730
     33  C         24.8370  -22.9410  -15.9670 C.2     1  UNL1        0.1170
     34  C         24.8140  -22.9120  -14.5860 C.2     1  UNL1        0.0340
@<TRIPOS>BOND
     1    32    31    2
     2    32    33    1
     3    31    30    1
     4    33    34    2
     5    30    29    2
     6    34    29    1
     7    29     4    1
     8     4     5   ar
     9     4     3   ar
    10    22    21    1
    11    22    23    1
    12    21     5    1
    13    24    23    2
    14    24    25    1
    15    23    28    1
    16     5     1   ar
    17     3     2   ar
    18    25    26    2
    19    28    27    2
    20    26    27    1
    21     1     2   ar
    22     1     6    1
    23     6     7    1
    24     7     8    1
    25    11     8    2
    26     8     9   am
    27     9    10    1
    28     9    12    1
    29    13    12    2
    30    13    14    1
    31    12    17    1
    32    14    15    2
    33    17    16    2
    34    15    16    1
    35    15    18    1
    36    19    18    1
    37    18    20    2
