@<TRIPOS>MOLECULE
5885_out_ligand_01.pdbqt
 31 34 0 0 0
SMALL
GASTEIGER

@<TRIPOS>ATOM
      1  C         17.9460  -23.8110   -8.4280 C.2     1  UNL1        0.0800
      2  C         19.2890  -24.1110   -8.1980 C.2     1  UNL1        0.0270
      3  C         20.2530  -23.7070   -9.1250 C.2     1  UNL1        0.0310
      4  C         19.8860  -22.9950  -10.2760 C.2     1  UNL1        0.0350
      5  C         18.5400  -22.6810  -10.4810 C.2     1  UNL1        0.0310
      6  C         17.5690  -23.0790   -9.5560 C.2     1  UNL1        0.0270
      7  N         20.9180  -22.6330  -11.1580 N.am    1  UNL1       -0.3200
      8  C         21.0420  -21.4780  -11.9170 C.2     1  UNL1        0.2960
      9  O         20.2350  -20.5550  -11.9580 O.2     1  UNL1       -0.2640
     10  H         21.6880  -23.2870  -11.2810 H       1  UNL1        0.1690
     11  C         22.2950  -21.4770  -12.7110 C.2     1  UNL1        0.2560
     12  N         22.3820  -20.9980  -13.9970 N.2     1  UNL1       -0.0340
     13  C         23.6400  -21.1760  -14.3250 C.cat   1  UNL1        0.7510
     14  N         24.2850  -20.8770  -15.4920 N.2     1  UNL1       -0.0730
     15  N         24.3110  -21.7600  -13.2460 N.pl3   1  UNL1       -0.0690
     16  C         25.5510  -21.1640  -15.5310 C.2     1  UNL1        0.1380
     17  C         26.3520  -21.7840  -14.4370 C.2     1  UNL1        0.0400
     18  C         25.6660  -22.0570  -13.3180 C.2     1  UNL1        0.1390
     19  N         23.4560  -21.9590  -12.2160 N.pl3   1  UNL1       -0.1260
     20  S         16.7120  -24.3110   -7.2480 S.O2    1  UNL1        0.2630
     21  O         15.5940  -24.8680   -7.9810 O.2     1  UNL1       -0.2000
     22  O         17.3810  -25.0770   -6.2160 O.2     1  UNL1       -0.2000
     23  N         16.2540  -22.8580   -6.5250 N.pl3   1  UNL1       -0.2800
     24  H         15.2420  -22.7620   -6.4600 H       1  UNL1        0.1790
     25  C         17.0560  -22.2860   -5.4950 C.2     1  UNL1        0.0480
     26  C         18.1760  -21.5210   -5.8370 C.2     1  UNL1        0.0300
     27  C         18.9870  -20.9720   -4.8460 C.2     1  UNL1        0.0020
     28  C         18.6790  -21.1790   -3.5050 C.2     1  UNL1        0.0010
     29  C         17.5570  -21.9310   -3.1550 C.2     1  UNL1        0.0090
     30  C         16.7300  -22.4920   -4.1420 C.2     1  UNL1       -0.0350
     31  C         15.5240  -23.2820   -3.7200 C.3     1  UNL1        0.0500
@<TRIPOS>BOND
     1    16    14    2
     2    16    17    1
     3    14    13    1
     4    17    18    2
     5    13    12    2
     6    13    15    1
     7    12    11    2
     8    18    15    1
     9    15    19    1
    10    11    19    1
    11    11     8    1
    12     9     8    2
    13     8     7   am
    14    10     7    1
    15     7     4    1
    16     5     4    2
    17     5     6    1
    18     4     3    1
    19     6     1    2
    20     3     2    2
    21     1     2    1
    22     1    20    1
    23    21    20    2
    24    20    23    1
    25    20    22    2
    26    23    24    1
    27    23    25    1
    28    26    25    2
    29    26    27    1
    30    25    30    1
    31    27    28    2
    32    30    31    1
    33    30    29    2
    34    28    29    1
