@<TRIPOS>MOLECULE
58893_out_ligand_01.pdbqt
 39 43 0 0 0
SMALL
GASTEIGER

@<TRIPOS>ATOM
      1  O         18.6110  -21.4360   -6.8770 O.2     1  UNL1       -0.2670
      2  C         19.0500  -22.5810   -6.8520 C.2     1  UNL1        0.2560
      3  N         18.5020  -23.6500   -6.1700 N.am    1  UNL1       -0.3220
      4  H         18.9190  -24.5690   -6.3230 H       1  UNL1        0.1690
      5  C         17.3440  -23.6820   -5.3520 C.2     1  UNL1        0.0500
      6  C         17.4120  -23.5900   -3.9570 C.2     1  UNL1        0.0300
      7  C         16.2500  -23.5910   -3.1780 C.2     1  UNL1        0.0020
      8  C         15.0000  -23.6780   -3.7810 C.2     1  UNL1        0.0010
      9  C         14.9080  -23.7840   -5.1670 C.2     1  UNL1        0.0190
     10  C         16.0710  -23.8100   -5.9590 C.2     1  UNL1        0.0580
     11  C         15.9500  -23.9810   -7.4430 C.2     1  UNL1        0.2530
     12  O         15.8740  -25.1040   -7.9350 O.2     1  UNL1       -0.2680
     13  N         15.8610  -22.8270   -8.1950 N.am    1  UNL1       -0.3560
     14  H         15.5830  -21.9800   -7.7130 H       1  UNL1        0.1620
     15  C         15.5230  -22.8930   -9.6080 C.3     1  UNL1        0.1270
     16  C         15.9190  -21.6250  -10.3700 C.3     1  UNL1        0.0580
     17  C         17.3650  -21.6150  -10.8100 C.2     1  UNL1       -0.0570
     18  C         18.1500  -22.7700  -10.6920 C.2     1  UNL1        0.0070
     19  C         19.4890  -22.7600  -11.0840 C.2     1  UNL1        0.0010
     20  C         20.0570  -21.5960  -11.5980 C.2     1  UNL1        0.0000
     21  C         19.2860  -20.4430  -11.7230 C.2     1  UNL1        0.0010
     22  C         17.9460  -20.4500  -11.3340 C.2     1  UNL1        0.0070
     23  C         20.2890  -22.8810   -7.6370 C.2     1  UNL1        0.0320
     24  C         21.2930  -21.9040   -7.6860 C.2     1  UNL1        0.0170
     25  C         22.4740  -22.1320   -8.3970 C.2     1  UNL1        0.0100
     26  C         22.6760  -23.3450   -9.0690 C.2     1  UNL1       -0.0300
     27  C         21.6750  -24.3260   -9.0100 C.2     1  UNL1        0.0100
     28  C         20.4930  -24.1020   -8.2960 C.2     1  UNL1        0.0170
     29  C         23.9560  -23.5990   -9.8390 C.3     1  UNL1        0.3110
     30  N         24.5970  -22.3610  -10.3070 N.3     1  UNL1        0.0970
     31  C         23.7740  -21.6530  -11.2990 C.3     1  UNL1        0.2770
     32  C         23.5690  -22.4130  -12.6180 C.3     1  UNL1        0.0690
     33  C         24.8280  -23.0820  -13.1120 C.2     1  UNL1       -0.0490
     34  C         24.8690  -23.6300  -14.4000 C.2     1  UNL1        0.0070
     35  C         25.9400  -23.2150  -12.2600 C.2     1  UNL1       -0.0240
     36  C         26.0130  -24.2910  -14.8480 C.2     1  UNL1        0.0010
     37  C         27.1210  -24.4120  -14.0130 C.2     1  UNL1        0.0010
     38  C         27.0870  -23.8730  -12.7260 C.2     1  UNL1        0.0090
     39  C         25.9370  -22.5980  -10.8770 C.3     1  UNL1        0.3110
@<TRIPOS>BOND
     1    36    34    1
     2    36    37    2
     3    34    33    2
     4    37    38    1
     5    33    32    1
     6    33    35    1
     7    38    35    2
     8    32    31    1
     9    35    39    1
    10    21    20    2
    11    21    22    1
    12    20    19    1
    13    22    17    2
    14    31    30    1
    15    19    18    2
    16    39    30    1
    17    17    18    1
    18    17    16    1
    19    16    15    1
    20    30    29    1
    21    29    26    1
    22    15    13    1
    23    26    27    2
    24    26    25    1
    25    27    28    1
    26    25    24    2
    27    28    23    2
    28    13    14    1
    29    13    11   am
    30    12    11    2
    31    24    23    1
    32    23     2    1
    33    11    10    1
    34     1     2    2
    35     2     3   am
    36     4     3    1
    37     3     5    1
    38    10     5    2
    39    10     9    1
    40     5     6    1
    41     9     8    2
    42     6     7    2
    43     8     7    1
