@<TRIPOS>MOLECULE
588_out_ligand_01.pdbqt
 37 40 0 0 0
SMALL
GASTEIGER

@<TRIPOS>ATOM
      1  C         20.3100  -22.4300   -7.3990 C.2     1  UNL1        0.0330
      2  C         20.7350  -21.2520   -6.7670 C.2     1  UNL1        0.0170
      3  C         19.9940  -20.7010   -5.7170 C.2     1  UNL1        0.0030
      4  C         18.8270  -21.3270   -5.2860 C.2     1  UNL1        0.0250
      5  C         18.4200  -22.5170   -5.8970 C.2     1  UNL1        0.0750
      6  C         19.1520  -23.0760   -6.9510 C.2     1  UNL1        0.0410
      7  C         21.1350  -22.9710   -8.5200 C.2     1  UNL1        0.2560
      8  O         21.1070  -24.1780   -8.7210 O.2     1  UNL1       -0.2670
      9  N         21.8770  -22.0300   -9.2120 N.am    1  UNL1       -0.3230
     10  H         21.8690  -21.0810   -8.8620 H       1  UNL1        0.1690
     11  C         22.7150  -22.2510  -10.3240 C.2     1  UNL1        0.0350
     12  C         22.2300  -21.8620  -11.5760 C.2     1  UNL1        0.0310
     13  C         22.9980  -22.0460  -12.7340 C.2     1  UNL1        0.0260
     14  C         24.2780  -22.6080  -12.6770 C.2     1  UNL1        0.0100
     15  C         24.7420  -23.0070  -11.4150 C.2     1  UNL1        0.0260
     16  C         23.9760  -22.8370  -10.2540 C.2     1  UNL1        0.0310
     17  N         25.0950  -22.8080  -13.8010 N.pl3   1  UNL1       -0.2790
     18  C         24.4990  -22.2670  -15.0490 C.3     1  UNL1        0.1220
     19  C         25.5300  -22.3190  -16.1910 C.3     1  UNL1        0.1820
     20  O         26.0450  -23.6480  -16.3830 O.3     1  UNL1       -0.3890
     21  C         26.6730  -24.1100  -15.1730 C.3     1  UNL1        0.1820
     22  C         25.6700  -24.1510  -14.0090 C.3     1  UNL1        0.1220
     23  S         16.9240  -23.3010   -5.3450 S.O2    1  UNL1        0.2450
     24  O         16.6770  -22.8630   -3.9870 O.2     1  UNL1       -0.2060
     25  O         17.0180  -24.6990   -5.6990 O.2     1  UNL1       -0.2060
     26  N         15.7700  -22.5180   -6.3300 N.pl3   1  UNL1       -0.1810
     27  H         14.8450  -22.7700   -5.9730 H       1  UNL1        0.1460
     28  C         15.8820  -22.8560   -7.7180 C.2     1  UNL1        0.0230
     29  C         15.3090  -24.0310   -8.2020 C.2     1  UNL1        0.0240
     30  C         15.4720  -24.3810   -9.5410 C.2     1  UNL1        0.0030
     31  C         16.2170  -23.5630  -10.3910 C.2     1  UNL1        0.0160
     32  C         16.8070  -22.3840   -9.9100 C.2     1  UNL1        0.0490
     33  C         16.6440  -22.0460   -8.5580 C.2     1  UNL1        0.0400
     34  C         17.6380  -21.5170  -10.8210 C.3     1  UNL1        0.4170
     35  F         17.8760  -22.0880  -12.0330 F       1  UNL1       -0.1660
     36  F         17.0520  -20.3150  -11.0770 F       1  UNL1       -0.1660
     37  F         18.8650  -21.2310  -10.3020 F       1  UNL1       -0.1660
@<TRIPOS>BOND
     1    20    19    1
     2    20    21    1
     3    19    18    1
     4    21    22    1
     5    18    17    1
     6    22    17    1
     7    17    14    1
     8    13    14    2
     9    13    12    1
    10    14    15    1
    11    35    34    1
    12    12    11    2
    13    15    16    2
    14    36    34    1
    15    34    37    1
    16    34    32    1
    17    31    32    2
    18    31    30    1
    19    11    16    1
    20    11     9    1
    21    32    33    1
    22    30    29    2
    23     9    10    1
    24     9     7   am
    25     8     7    2
    26    33    28    2
    27     7     1    1
    28    29    28    1
    29    28    26    1
    30     1     6    2
    31     1     2    1
    32     6     5    1
    33     2     3    2
    34    26    27    1
    35    26    23    1
    36     5    23    1
    37     5     4    2
    38     3     4    1
    39    25    23    2
    40    23    24    2
