@<TRIPOS>MOLECULE
58923_out_ligand_01.pdbqt
 35 38 0 0 0
SMALL
GASTEIGER

@<TRIPOS>ATOM
      1  C         21.5440  -23.2930   -8.3950 C.2     1  UNL1        0.0690
      2  C         20.7690  -24.4480   -8.5230 C.2     1  UNL1        0.0380
      3  C         19.4870  -24.4970   -7.9660 C.2     1  UNL1        0.0280
      4  C         18.9860  -23.3880   -7.2770 C.2     1  UNL1        0.0790
      5  C         19.7460  -22.2260   -7.1570 C.2     1  UNL1        0.0280
      6  C         21.0240  -22.1850   -7.7170 C.2     1  UNL1        0.0380
      7  O         22.8000  -23.1030   -8.9060 O.2     1  UNL1       -0.3420
      8  C         23.1520  -21.7930   -9.3380 C.3     1  UNL1        0.2780
      9  C         24.0650  -21.7400  -10.5700 C.2     1  UNL1        0.2460
     10  O         25.0130  -20.9620  -10.6110 O.2     1  UNL1       -0.2710
     11  N         23.6680  -22.6160  -11.5650 N.am    1  UNL1       -0.3250
     12  H         22.8810  -23.2130  -11.3250 H       1  UNL1        0.1690
     13  C         24.2580  -22.8270  -12.8240 C.2     1  UNL1        0.0370
     14  C         25.1300  -23.8800  -13.1110 C.2     1  UNL1        0.0320
     15  C         25.6700  -24.0280  -14.3920 C.2     1  UNL1        0.0420
     16  C         25.3410  -23.1220  -15.3960 C.2     1  UNL1        0.1020
     17  C         24.4950  -22.0500  -15.1110 C.2     1  UNL1        0.1040
     18  O         25.8900  -23.3410  -16.6330 O.2     1  UNL1       -0.3460
     19  C         23.9430  -21.9110  -13.8370 C.2     1  UNL1        0.0690
     20  O         24.1510  -21.0960  -16.0370 O.2     1  UNL1       -0.3460
     21  C         25.0150  -21.1430  -17.1790 C.3     1  UNL1        0.2020
     22  C         25.2190  -22.5760  -17.6420 C.3     1  UNL1        0.2020
     23  S         17.3530  -23.4610   -6.5880 S.O2    1  UNL1        0.2580
     24  O         16.9090  -24.8360   -6.5760 O.2     1  UNL1       -0.2010
     25  O         17.3480  -22.6440   -5.3950 O.2     1  UNL1       -0.2010
     26  N         16.4590  -22.6300   -7.7390 N.3     1  UNL1       -0.3150
     27  H         15.6160  -22.2080   -7.3440 H       1  UNL1        0.1720
     28  C         16.3480  -23.2080   -9.0870 C.3     1  UNL1        0.1370
     29  C         16.3390  -22.0980  -10.1440 C.3     1  UNL1        0.0580
     30  C         17.7040  -21.8160  -10.7280 C.2     1  UNL1       -0.0570
     31  C         18.0450  -20.5250  -11.1520 C.2     1  UNL1        0.0070
     32  C         19.3130  -20.2630  -11.6710 C.2     1  UNL1        0.0010
     33  C         20.2510  -21.2880  -11.7720 C.2     1  UNL1        0.0000
     34  C         19.9230  -22.5750  -11.3550 C.2     1  UNL1        0.0010
     35  C         18.6550  -22.8400  -10.8350 C.2     1  UNL1        0.0070
@<TRIPOS>BOND
     1    22    21    1
     2    22    18    1
     3    21    20    1
     4    18    16    1
     5    20    17    1
     6    16    17    2
     7    16    15    1
     8    17    19    1
     9    15    14    2
    10    19    13    2
    11    14    13    1
    12    13    11    1
    13    33    32    2
    14    33    34    1
    15    32    31    1
    16    11    12    1
    17    11     9   am
    18    34    35    2
    19    31    30    2
    20    35    30    1
    21    30    29    1
    22    10     9    2
    23     9     8    1
    24    29    28    1
    25     8     7    1
    26    28    26    1
    27     7     1    1
    28     2     1    2
    29     2     3    1
    30     1     6    1
    31     3     4    2
    32    26    27    1
    33    26    23    1
    34     6     5    2
    35     4     5    1
    36     4    23    1
    37    23    24    2
    38    23    25    2
