@<TRIPOS>MOLECULE
58951_out_ligand_01.pdbqt
 28 31 0 0 0
SMALL
GASTEIGER

@<TRIPOS>ATOM
      1  C         19.9960  -21.8870  -11.0980 C.2     1  UNL1        0.0320
      2  C         18.8480  -21.6080  -11.8500 C.2     1  UNL1        0.0180
      3  C         17.5830  -21.7710  -11.2790 C.2     1  UNL1        0.0190
      4  C         17.4590  -22.1920   -9.9490 C.2     1  UNL1        0.0450
      5  C         18.6050  -22.4450   -9.1830 C.2     1  UNL1       -0.0380
      6  C         19.8720  -22.2970   -9.7630 C.2     1  UNL1        0.0250
      7  C         18.4430  -22.9090   -7.7650 C.3     1  UNL1        0.0770
      8  C         17.1710  -22.2740   -7.2010 C.3     1  UNL1        0.1690
      9  O         16.0350  -22.6000   -8.0300 O.3     1  UNL1       -0.3070
     10  C         16.1030  -22.3970   -9.3700 C.2     1  UNL1        0.2940
     11  O         15.1100  -22.4100  -10.0850 O.2     1  UNL1       -0.2590
     12  C         21.3650  -21.7280  -11.6640 C.2     1  UNL1        0.2560
     13  O         21.4930  -21.0500  -12.6760 O.2     1  UNL1       -0.2670
     14  N         22.3720  -22.3480  -10.9460 N.am    1  UNL1       -0.3230
     15  H         22.1180  -22.7590  -10.0570 H       1  UNL1        0.1690
     16  C         23.7450  -22.3960  -11.2690 C.2     1  UNL1        0.0370
     17  C         24.5810  -21.4550  -10.6470 C.2     1  UNL1        0.0290
     18  C         25.9540  -21.4330  -10.9060 C.2     1  UNL1        0.0050
     19  C         26.5060  -22.3560  -11.7890 C.2     1  UNL1        0.0420
     20  C         25.6780  -23.2900  -12.4010 C.2     1  UNL1        0.1180
     21  F         26.2120  -24.1800  -13.2470 F       1  UNL1       -0.2060
     22  C         24.3080  -23.3190  -12.1500 C.2     1  UNL1        0.0710
     23  C         16.9200  -22.7450   -5.7830 C.2     1  UNL1       -0.0290
     24  C         15.7550  -23.4690   -5.4830 C.2     1  UNL1        0.0100
     25  C         15.4930  -23.8850   -4.1760 C.2     1  UNL1        0.0010
     26  C         16.3880  -23.5800   -3.1540 C.2     1  UNL1        0.0000
     27  C         17.5460  -22.8590   -3.4340 C.2     1  UNL1        0.0010
     28  C         17.8100  -22.4410   -4.7400 C.2     1  UNL1        0.0100
@<TRIPOS>BOND
     1    21    20    1
     2    13    12    2
     3    20    22    1
     4    20    19    2
     5    22    16    2
     6     2     3    1
     7     2     1    2
     8    19    18    1
     9    12     1    1
    10    12    14   am
    11     3     4    2
    12    16    14    1
    13    16    17    1
    14     1     6    1
    15    14    15    1
    16    18    17    2
    17    11    10    2
    18     4    10    1
    19     4     5    1
    20     6     5    2
    21    10     9    1
    22     5     7    1
    23     9     8    1
    24     7     8    1
    25     8    23    1
    26    23    24    2
    27    23    28    1
    28    24    25    1
    29    28    27    2
    30    25    26    2
    31    27    26    1
