@<TRIPOS>MOLECULE
58956_out_ligand_01.pdbqt
 34 37 0 0 0
SMALL
GASTEIGER

@<TRIPOS>ATOM
      1  C         21.5640  -22.0730  -11.3830 C.2     1  UNL1        0.0350
      2  C         21.3530  -21.1950  -12.4480 C.2     1  UNL1        0.0310
      3  C         22.2550  -21.1430  -13.5190 C.2     1  UNL1        0.0270
      4  C         23.3810  -21.9660  -13.5160 C.2     1  UNL1        0.0800
      5  C         23.5990  -22.8600  -12.4670 C.2     1  UNL1        0.0270
      6  C         22.6940  -22.9050  -11.4030 C.2     1  UNL1        0.0310
      7  N         20.7140  -22.1800  -10.2640 N.am    1  UNL1       -0.3210
      8  C         19.3380  -22.3600  -10.2490 C.2     1  UNL1        0.2800
      9  O         18.6490  -22.5290  -11.2510 O.2     1  UNL1       -0.2650
     10  H         21.1720  -22.1970   -9.3640 H       1  UNL1        0.1690
     11  C         18.7690  -22.3660   -8.9080 C.ar    1  UNL1        0.1500
     12  O         17.4050  -22.4380   -8.8150 O.2     1  UNL1       -0.3040
     13  C         17.0780  -22.4610   -7.4990 C.ar    1  UNL1        0.0870
     14  C         15.7840  -22.5490   -6.9940 C.2     1  UNL1        0.0450
     15  C         18.2190  -22.3850   -6.7190 C.ar    1  UNL1        0.0070
     16  C         15.6370  -22.5610   -5.5940 C.2     1  UNL1       -0.0530
     17  C         14.2480  -22.6520   -5.0170 C.3     1  UNL1        0.0490
     18  C         16.7720  -22.4750   -4.7570 C.2     1  UNL1       -0.0550
     19  C         18.0640  -22.3890   -5.3200 C.2     1  UNL1        0.0220
     20  C         16.6360  -22.4830   -3.2570 C.3     1  UNL1        0.0490
     21  C         19.3210  -22.3040   -7.6290 C.ar    1  UNL1       -0.0090
     22  C         20.7500  -22.1490   -7.2540 C.3     1  UNL1        0.0520
     23  S         24.5140  -21.9130  -14.8810 S.O2    1  UNL1        0.2640
     24  O         24.4060  -23.1430  -15.6320 O.2     1  UNL1       -0.2000
     25  O         24.3460  -20.6320  -15.5360 O.2     1  UNL1       -0.2000
     26  N         25.9990  -21.8310  -14.1060 N.pl3   1  UNL1       -0.2580
     27  H         26.2350  -22.6820  -13.6020 H       1  UNL1        0.1810
     28  C         26.3790  -20.5480  -13.5570 C.ar    1  UNL1        0.1900
     29  O         26.8040  -19.4800  -14.2820 O.2     1  UNL1       -0.1940
     30  N         27.1210  -18.4360  -13.4360 N.ar    1  UNL1       -0.1310
     31  C         26.8790  -18.8870  -12.2000 C.ar    1  UNL1        0.0680
     32  C         27.1090  -18.0040  -11.0330 C.3     1  UNL1        0.0730
     33  C         26.4190  -20.2350  -12.2150 C.ar    1  UNL1        0.0180
     34  C         26.0620  -21.0890  -11.0620 C.3     1  UNL1        0.0550
@<TRIPOS>BOND
     1    24    23    2
     2    25    23    2
     3    23    26    1
     4    23     4    1
     5    29    28   ar
     6    29    30   ar
     7    26    27    1
     8    26    28    1
     9    28    33   ar
    10     3     4    2
    11     3     2    1
    12     4     5    1
    13    30    31   ar
    14     5     6    2
    15     2     1    2
    16    33    31   ar
    17    33    34    1
    18    31    32    1
    19     6     1    1
    20     1     7    1
    21     9     8    2
    22     7     8   am
    23     7    10    1
    24     8    11    1
    25    11    12   ar
    26    11    21   ar
    27    12    13   ar
    28    21    22    1
    29    21    15   ar
    30    13    14    2
    31    13    15   ar
    32    14    16    1
    33    15    19    2
    34    16    17    1
    35    16    18    2
    36    19    18    1
    37    18    20    1
