@<TRIPOS>MOLECULE
58974_out_ligand_01.pdbqt
 33 36 0 0 0
SMALL
GASTEIGER

@<TRIPOS>ATOM
      1  C         22.7800  -22.7130  -11.3270 C.2     1  UNL1        0.0320
      2  C         21.5200  -22.1990  -11.6430 C.2     1  UNL1        0.0190
      3  C         20.4550  -22.3320  -10.7430 C.2     1  UNL1        0.0300
      4  C         20.6430  -22.9640   -9.5120 C.2     1  UNL1        0.0350
      5  C         21.9140  -23.4600   -9.1910 C.2     1  UNL1        0.0300
      6  C         22.9810  -23.3340  -10.0890 C.2     1  UNL1        0.0190
      7  N         19.6250  -23.1360   -8.5530 N.am    1  UNL1       -0.3230
      8  C         18.3030  -22.7450   -8.6510 C.2     1  UNL1        0.2570
      9  O         17.7630  -22.1450   -9.5700 O.2     1  UNL1       -0.2670
     10  H         19.8980  -23.5780   -7.6830 H       1  UNL1        0.1690
     11  C         17.4960  -23.0690   -7.4500 C.2     1  UNL1        0.0430
     12  C         16.4660  -24.0020   -7.6300 C.2     1  UNL1        0.0180
     13  C         15.6220  -24.3130   -6.5720 C.2     1  UNL1        0.0020
     14  C         15.8060  -23.6960   -5.3350 C.2     1  UNL1        0.0120
     15  C         16.8490  -22.7770   -5.1280 C.2     1  UNL1       -0.0250
     16  C         17.0280  -22.1820   -3.8690 C.2     1  UNL1        0.0120
     17  C         17.7300  -22.4540   -6.1910 C.2     1  UNL1       -0.0100
     18  C         18.0710  -21.2860   -3.6370 C.2     1  UNL1        0.0010
     19  C         18.9570  -20.9790   -4.6600 C.2     1  UNL1        0.0010
     20  C         18.7940  -21.5580   -5.9200 C.2     1  UNL1        0.0130
     21  C         23.8850  -22.5520  -12.3110 C.2     1  UNL1        0.2560
     22  O         24.9210  -23.1820  -12.1370 O.2     1  UNL1       -0.2670
     23  N         23.6300  -21.6470  -13.3270 N.am    1  UNL1       -0.3230
     24  H         22.7890  -21.0900  -13.2370 H       1  UNL1        0.1690
     25  C         24.4680  -21.3260  -14.4160 C.2     1  UNL1        0.0370
     26  C         25.0630  -20.0550  -14.4060 C.2     1  UNL1        0.0290
     27  C         25.9080  -19.6470  -15.4410 C.2     1  UNL1        0.0050
     28  C         26.1670  -20.5060  -16.5050 C.2     1  UNL1        0.0360
     29  C         25.5700  -21.7720  -16.5240 C.2     1  UNL1        0.1050
     30  C         24.7210  -22.1870  -15.4870 C.2     1  UNL1        0.0650
     31  N         25.8340  -22.6730  -17.6530 N.pl3   1  UNL1       -0.1160
     32  O         24.8630  -23.2620  -18.1530 O.2     1  UNL1       -0.5320
     33  O         27.0050  -22.8030  -18.0330 O.2     1  UNL1       -0.5320
@<TRIPOS>BOND
     1    32    31    2
     2    33    31    2
     3    31    29    1
     4    29    28    2
     5    29    30    1
     6    28    27    1
     7    30    25    2
     8    27    26    2
     9    25    26    1
    10    25    23    1
    11    23    24    1
    12    23    21   am
    13    21    22    2
    14    21     1    1
    15     2     1    2
    16     2     3    1
    17     1     6    1
    18     3     4    2
    19     6     5    2
    20     9     8    2
    21     4     5    1
    22     4     7    1
    23     8     7   am
    24     8    11    1
    25     7    10    1
    26    12    11    2
    27    12    13    1
    28    11    17    1
    29    13    14    2
    30    17    20    1
    31    17    15    2
    32    20    19    2
    33    14    15    1
    34    15    16    1
    35    19    18    1
    36    16    18    2
