@<TRIPOS>MOLECULE
58973_out_ligand_01.pdbqt
 37 41 0 0 0
SMALL
GASTEIGER

@<TRIPOS>ATOM
      1  C         18.6790  -23.4710   -8.8500 C.2     1  UNL1        0.0800
      2  C         19.0020  -22.5170   -9.8160 C.2     1  UNL1        0.0270
      3  C         20.3180  -22.4190  -10.2820 C.2     1  UNL1        0.0310
      4  C         21.3060  -23.2850   -9.8040 C.2     1  UNL1        0.0340
      5  C         20.9560  -24.2690   -8.8680 C.2     1  UNL1        0.0310
      6  C         19.6460  -24.3680   -8.3930 C.2     1  UNL1        0.0270
      7  N         22.6570  -23.2290  -10.1920 N.am    1  UNL1       -0.3260
      8  C         23.5690  -22.2130   -9.9660 C.2     1  UNL1        0.2400
      9  O         23.3200  -21.1120   -9.4780 O.2     1  UNL1       -0.2710
     10  H         23.0170  -24.0420  -10.6800 H       1  UNL1        0.1690
     11  C         24.9710  -22.5210  -10.5000 C.3     1  UNL1        0.2350
     12  N         25.1680  -22.0850  -11.8670 N.am    1  UNL1       -0.3040
     13  C         24.7380  -22.7600  -13.0050 C.2     1  UNL1        0.2590
     14  O         24.1740  -23.8350  -13.0820 O.2     1  UNL1       -0.2670
     15  C         25.1770  -21.9280  -14.1450 C.2     1  UNL1        0.0450
     16  C         25.0380  -22.0740  -15.5100 C.2     1  UNL1        0.0180
     17  C         25.8490  -20.8560  -13.6180 C.2     1  UNL1        0.0170
     18  C         25.6070  -21.0830  -16.3290 C.2     1  UNL1        0.0020
     19  C         26.3020  -19.9800  -15.7730 C.2     1  UNL1        0.0120
     20  C         26.4380  -19.8490  -14.3720 C.2     1  UNL1       -0.0230
     21  C         27.0910  -18.8430  -13.6310 C.2     1  UNL1        0.0120
     22  C         27.1200  -18.9020  -12.2170 C.2     1  UNL1        0.0030
     23  C         26.5000  -19.9520  -11.5130 C.2     1  UNL1        0.0310
     24  C         25.8610  -20.9280  -12.2500 C.2     1  UNL1        0.0500
     25  S         17.0170  -23.5790   -8.2280 S.O2    1  UNL1        0.2630
     26  O         16.9650  -24.7030   -7.3200 O.2     1  UNL1       -0.2000
     27  O         16.1200  -23.5040   -9.3660 O.2     1  UNL1       -0.2000
     28  N         16.7950  -22.1340   -7.3750 N.pl3   1  UNL1       -0.2800
     29  H         17.1650  -21.3320   -7.8800 H       1  UNL1        0.1790
     30  C         16.8950  -22.1230   -5.9500 C.2     1  UNL1        0.0540
     31  C         15.7710  -22.4410   -5.1610 C.2     1  UNL1       -0.0340
     32  C         15.9170  -22.5450   -3.7670 C.2     1  UNL1        0.0090
     33  C         14.4000  -22.6830   -5.7360 C.3     1  UNL1        0.0500
     34  C         17.1440  -22.2950   -3.1590 C.2     1  UNL1        0.0010
     35  C         18.2400  -21.9340   -3.9360 C.2     1  UNL1        0.0090
     36  C         18.1340  -21.8430   -5.3360 C.2     1  UNL1       -0.0340
     37  C         19.3730  -21.4280   -6.0860 C.3     1  UNL1        0.0500
@<TRIPOS>BOND
     1    18    19    2
     2    18    16    1
     3    19    20    1
     4    16    15    2
     5    20    21    1
     6    20    17    2
     7    15    17    1
     8    15    13    1
     9    21    22    2
    10    17    24    1
    11    14    13    2
    12    13    12   am
    13    24    12    1
    14    24    23    2
    15    22    23    1
    16    12    11    1
    17    10     7    1
    18    11     8    1
    19     3     2    1
    20     3     4    2
    21     7     8   am
    22     7     4    1
    23     8     9    2
    24     2     1    2
    25     4     5    1
    26    27    25    2
    27     5     6    2
    28     1     6    1
    29     1    25    1
    30    25    28    1
    31    25    26    2
    32    29    28    1
    33    28    30    1
    34    37    36    1
    35    30    36    2
    36    30    31    1
    37    33    31    1
    38    36    35    1
    39    31    32    2
    40    35    34    2
    41    32    34    1
