@<TRIPOS>MOLECULE
58990_out_ligand_01.pdbqt
 31 33 0 0 0
SMALL
GASTEIGER

@<TRIPOS>ATOM
      1  N         23.1420  -23.1800  -10.6300 N.am    1  UNL1       -0.3530
      2  C         22.7080  -22.1570   -9.8270 C.2     1  UNL1        0.2520
      3  O         23.4180  -21.2050   -9.5220 O.2     1  UNL1       -0.2680
      4  H         22.5390  -23.9740  -10.8090 H       1  UNL1        0.1630
      5  C         21.2810  -22.2820   -9.3620 C.2     1  UNL1        0.0430
      6  C         21.1230  -22.6740   -8.0800 C.2     1  UNL1        0.0290
      7  C         19.8490  -22.8720   -7.3760 C.2     1  UNL1       -0.0350
      8  C         19.3460  -21.8410   -6.5750 C.2     1  UNL1        0.0110
      9  C         18.1430  -22.0050   -5.8860 C.2     1  UNL1        0.0010
     10  C         17.4400  -23.2060   -5.9880 C.2     1  UNL1        0.0000
     11  C         17.9400  -24.2420   -6.7760 C.2     1  UNL1        0.0010
     12  C         19.1420  -24.0760   -7.4680 C.2     1  UNL1        0.0110
     13  C         20.1510  -21.9900  -10.2650 C.2     1  UNL1       -0.0210
     14  C         20.2520  -20.9400  -11.1890 C.2     1  UNL1        0.0120
     15  C         19.1840  -20.6380  -12.0350 C.2     1  UNL1        0.0010
     16  C         18.0070  -21.3810  -11.9630 C.2     1  UNL1        0.0000
     17  C         17.8960  -22.4260  -11.0470 C.2     1  UNL1        0.0010
     18  C         18.9630  -22.7290  -10.2000 C.2     1  UNL1        0.0120
     19  C         24.4980  -23.2280  -11.1130 C.3     1  UNL1        0.1610
     20  C         24.5410  -23.0460  -12.6080 C.2     1  UNL1       -0.0400
     21  C         25.2170  -23.9810  -13.4070 C.2     1  UNL1        0.0100
     22  C         25.2870  -23.8120  -14.7910 C.2     1  UNL1        0.0250
     23  C         24.6720  -22.7040  -15.3790 C.2     1  UNL1        0.0740
     24  C         24.0100  -21.7560  -14.5980 C.2     1  UNL1        0.0250
     25  C         23.9470  -21.9290  -13.2140 C.2     1  UNL1        0.0100
     26  S         24.7740  -22.5000  -17.1350 S.O2    1  UNL1        0.2390
     27  O         24.4160  -21.1390  -17.4650 O.2     1  UNL1       -0.2060
     28  O         25.9960  -23.1180  -17.5910 O.2     1  UNL1       -0.2060
     29  N         23.4760  -23.4360  -17.6660 N.3     1  UNL1       -0.2250
     30  H         23.7500  -23.9020  -18.5320 H       1  UNL1        0.1360
     31  H         22.6150  -22.9040  -17.7820 H       1  UNL1        0.1360
@<TRIPOS>BOND
     1    30    29    1
     2    31    29    1
     3    29    26    1
     4    28    26    2
     5    27    26    2
     6    26    23    1
     7    23    22    2
     8    23    24    1
     9    22    21    1
    10    24    25    2
    11    21    20    2
    12    25    20    1
    13    20    19    1
    14    15    16    2
    15    15    14    1
    16    16    17    1
    17    14    13    2
    18    19     1    1
    19    17    18    2
    20     4     1    1
    21     1     2   am
    22    13    18    1
    23    13     5    1
    24     2     3    2
    25     2     5    1
    26     5     6    2
    27     6     7    1
    28    12     7    2
    29    12    11    1
    30     7     8    1
    31    11    10    2
    32     8     9    2
    33    10     9    1
