@<TRIPOS>MOLECULE
58996_out_ligand_01.pdbqt
 33 36 0 0 0
SMALL
GASTEIGER

@<TRIPOS>ATOM
      1  N         21.1710  -22.6670  -10.4170 N.am    1  UNL1       -0.3110
      2  C         20.6180  -21.8900  -11.4210 C.2     1  UNL1        0.2570
      3  O         21.1670  -21.4260  -12.4010 O.2     1  UNL1       -0.2670
      4  C         19.2020  -21.7160  -11.0960 C.2     1  UNL1        0.0430
      5  C         18.2420  -21.0090  -11.7990 C.2     1  UNL1        0.0180
      6  C         16.9410  -21.0220  -11.3000 C.2     1  UNL1        0.0010
      7  C         16.6350  -21.7420  -10.1330 C.2     1  UNL1        0.0010
      8  C         17.6260  -22.4510   -9.4420 C.2     1  UNL1        0.0130
      9  C         18.9260  -22.4220   -9.9260 C.2     1  UNL1        0.0130
     10  C         20.1810  -23.0830   -9.4190 C.3     1  UNL1        0.1690
     11  C         22.5660  -23.1050  -10.4200 C.3     1  UNL1        0.1340
     12  C         23.5880  -22.0200  -10.7920 C.3     1  UNL1        0.0580
     13  C         24.2610  -22.2490  -12.1260 C.2     1  UNL1       -0.0570
     14  C         24.6280  -23.5470  -12.5130 C.2     1  UNL1        0.0090
     15  C         25.2090  -23.7730  -13.7610 C.2     1  UNL1        0.0250
     16  C         25.4380  -22.6940  -14.6200 C.2     1  UNL1        0.0740
     17  C         25.0840  -21.3950  -14.2480 C.2     1  UNL1        0.0250
     18  C         24.4970  -21.1760  -12.9990 C.2     1  UNL1        0.0090
     19  S         26.1530  -23.0050  -16.2110 S.O2    1  UNL1        0.2390
     20  O         26.4710  -21.7330  -16.8110 O.2     1  UNL1       -0.2060
     21  O         27.1210  -24.0710  -16.0870 O.2     1  UNL1       -0.2060
     22  N         24.8520  -23.6740  -17.0460 N.3     1  UNL1       -0.2250
     23  H         25.0750  -23.9250  -18.0090 H       1  UNL1        0.1360
     24  H         24.0640  -23.0250  -16.9960 H       1  UNL1        0.1360
     25  O         20.0400  -24.4820   -9.5670 O.3     1  UNL1       -0.3660
     26  H         19.1010  -24.6500   -9.3780 H       1  UNL1        0.2130
     27  C         20.5990  -22.6800   -7.9810 C.3     1  UNL1        0.1050
     28  C         19.5260  -22.5520   -6.9170 C.2     1  UNL1       -0.0530
     29  C         19.4390  -21.3770   -6.1550 C.2     1  UNL1        0.0070
     30  C         18.4890  -21.2520   -5.1410 C.2     1  UNL1        0.0010
     31  C         17.6120  -22.3020   -4.8740 C.2     1  UNL1        0.0000
     32  C         17.7010  -23.4810   -5.6070 C.2     1  UNL1        0.0010
     33  C         18.6590  -23.6110   -6.6160 C.2     1  UNL1        0.0070
@<TRIPOS>BOND
     1    23    22    1
     2    22    24    1
     3    22    19    1
     4    20    19    2
     5    19    21    2
     6    19    16    1
     7    16    17    2
     8    16    15    1
     9    17    18    1
    10    15    14    2
    11    18    13    2
    12    14    13    1
    13     3     2    2
    14    13    12    1
    15     5     6    1
    16     5     4    2
    17     2     4    1
    18     2     1   am
    19     6     7    2
    20     4     9    1
    21    12    11    1
    22    11     1    1
    23     1    10    1
    24     7     8    1
    25     9     8    2
    26     9    10    1
    27    25    10    1
    28    25    26    1
    29    10    27    1
    30    27    28    1
    31    28    33    2
    32    28    29    1
    33    33    32    1
    34    29    30    2
    35    32    31    2
    36    30    31    1
