@<TRIPOS>MOLECULE
59004_out_ligand_01.pdbqt
 27 29 0 0 0
SMALL
GASTEIGER

@<TRIPOS>ATOM
      1  C         20.0280  -23.1420   -9.4690 C.2     1  UNL1        0.2800
      2  O         20.0700  -24.3120   -9.1030 O.2     1  UNL1       -0.2650
      3  N         19.1970  -22.1770   -8.9160 N.am    1  UNL1       -0.3210
      4  H         19.1690  -21.2900   -9.3990 H       1  UNL1        0.1690
      5  C         18.3130  -22.3140   -7.8280 C.2     1  UNL1        0.0350
      6  C         18.7000  -22.2390   -6.4870 C.2     1  UNL1        0.0310
      7  C         17.7560  -22.3830   -5.4630 C.2     1  UNL1        0.0270
      8  C         16.4140  -22.5880   -5.7840 C.2     1  UNL1        0.0740
      9  C         16.0100  -22.6730   -7.1160 C.2     1  UNL1        0.0270
     10  C         16.9590  -22.5330   -8.1320 C.2     1  UNL1        0.0310
     11  S         15.2280  -22.7670   -4.4790 S.O2    1  UNL1        0.2390
     12  O         14.1670  -21.8090   -4.6880 O.2     1  UNL1       -0.2060
     13  O         14.9790  -24.1740   -4.2800 O.2     1  UNL1       -0.2060
     14  N         16.0930  -22.1930   -3.1530 N.3     1  UNL1       -0.2250
     15  H         16.8840  -21.6430   -3.4880 H       1  UNL1        0.1360
     16  H         16.3810  -22.9280   -2.5070 H       1  UNL1        0.1360
     17  C         20.8460  -22.6450  -10.5690 C.ar    1  UNL1        0.1500
     18  C         20.6140  -21.7560  -11.6170 C.ar    1  UNL1       -0.0090
     19  C         21.8270  -21.7170  -12.3780 C.ar    1  UNL1        0.0070
     20  C         19.3880  -20.9660  -11.8960 C.3     1  UNL1        0.0520
     21  C         22.2670  -21.0550  -13.5390 C.2     1  UNL1        0.0150
     22  C         22.7170  -22.5570  -11.7290 C.ar    1  UNL1        0.0870
     23  C         23.5780  -21.2730  -13.9900 C.2     1  UNL1        0.0070
     24  C         24.4570  -22.1210  -13.3000 C.2     1  UNL1       -0.0590
     25  C         25.8450  -22.3540  -13.8250 C.3     1  UNL1        0.0480
     26  C         24.0260  -22.7940  -12.1470 C.2     1  UNL1        0.0440
     27  O         22.1340  -23.1080  -10.6370 O.2     1  UNL1       -0.3040
@<TRIPOS>BOND
     1    23    21    1
     2    23    24    2
     3    25    24    1
     4    21    19    2
     5    24    26    1
     6    19    22   ar
     7    19    18   ar
     8    26    22    2
     9    20    18    1
    10    22    27   ar
    11    18    17   ar
    12    27    17   ar
    13    17     1    1
    14     1     2    2
    15     1     3   am
    16     4     3    1
    17     3     5    1
    18    10     5    2
    19    10     9    1
    20     5     6    1
    21     9     8    2
    22     6     7    2
    23     8     7    1
    24     8    11    1
    25    12    11    2
    26    11    13    2
    27    11    14    1
    28    15    14    1
    29    14    16    1
