@<TRIPOS>MOLECULE
59023_out_ligand_01.pdbqt
 29 32 0 0 0
SMALL
GASTEIGER

@<TRIPOS>ATOM
      1  S         20.9310  -23.1430   -8.8640 S.O2    1  UNL1        0.2630
      2  O         21.7110  -22.4940   -7.8340 O.2     1  UNL1       -0.2000
      3  O         20.8960  -24.5840   -8.9920 O.2     1  UNL1       -0.2000
      4  N         19.3150  -22.6420   -8.7410 N.pl3   1  UNL1       -0.2810
      5  H         18.8360  -22.8040   -9.6290 H       1  UNL1        0.1790
      6  C         18.6150  -22.9670   -7.5470 C.2     1  UNL1        0.0430
      7  C         18.7380  -22.1350   -6.4330 C.2     1  UNL1        0.0480
      8  C         17.9900  -22.4680   -5.3210 C.2     1  UNL1        0.0500
      9  C         17.8970  -21.8200   -4.0140 C.2     1  UNL1        0.2590
     10  C         17.1470  -23.5670   -5.3000 C.2     1  UNL1        0.0480
     11  N         17.0050  -22.5480   -3.2880 N.am    1  UNL1       -0.2890
     12  O         18.5190  -20.8360   -3.6740 O.2     1  UNL1       -0.2670
     13  C         16.5170  -23.6130   -3.9800 C.2     1  UNL1        0.2590
     14  H         16.7490  -22.3340   -2.3360 H       1  UNL1        0.1720
     15  O         15.7260  -24.4540   -3.6090 O.2     1  UNL1       -0.2670
     16  C         17.0060  -24.4000   -6.3920 C.2     1  UNL1        0.0200
     17  C         17.7540  -24.0850   -7.5330 C.2     1  UNL1        0.0310
     18  C         21.4140  -22.4900  -10.4440 C.2     1  UNL1        0.0820
     19  C         20.4770  -21.7220  -11.1810 C.2     1  UNL1        0.0280
     20  C         20.8160  -21.1930  -12.4310 C.2     1  UNL1        0.0330
     21  C         22.0840  -21.4640  -12.8910 C.ar    1  UNL1        0.0630
     22  N         22.6980  -21.0820  -14.0770 N.ar    1  UNL1       -0.3070
     23  C         22.9970  -22.2310  -12.1640 C.ar    1  UNL1        0.0640
     24  C         23.9980  -21.6070  -14.1040 C.ar    1  UNL1        0.3250
     25  H         22.3050  -20.5290  -14.8220 H       1  UNL1        0.1700
     26  O         24.8180  -21.4720  -14.9940 O.2     1  UNL1       -0.2470
     27  N         24.1690  -22.3170  -12.9070 N.ar    1  UNL1       -0.3060
     28  H         25.0150  -22.8070  -12.6660 H       1  UNL1        0.1700
     29  C         22.6970  -22.7670  -10.9370 C.2     1  UNL1        0.0570
@<TRIPOS>BOND
     1    26    24    2
     2    25    22    1
     3    24    22   ar
     4    24    27   ar
     5    22    21   ar
     6    27    28    1
     7    27    23   ar
     8    21    20    2
     9    21    23   ar
    10    20    19    1
    11    23    29    2
    12    19    18    2
    13    29    18    1
    14    18     1    1
    15     5     4    1
    16     3     1    2
    17     1     4    1
    18     1     2    2
    19     4     6    1
    20     6    17    2
    21     6     7    1
    22    17    16    1
    23     7     8    2
    24    16    10    2
    25     8    10    1
    26     8     9    1
    27    10    13    1
    28     9    12    2
    29     9    11   am
    30    13    15    2
    31    13    11   am
    32    11    14    1
