@<TRIPOS>MOLECULE
59037_out_ligand_01.pdbqt
 27 30 0 0 0
SMALL
GASTEIGER

@<TRIPOS>ATOM
      1  N         18.6770  -24.1260   -8.5010 N.pl3   1  UNL1       -0.2810
      2  H         18.6590  -25.0920   -8.8270 H       1  UNL1        0.1790
      3  C         17.8040  -23.7150   -7.4650 C.2     1  UNL1        0.0430
      4  C         18.0430  -24.1600   -6.1630 C.2     1  UNL1        0.0480
      5  C         17.1990  -23.6890   -5.1780 C.2     1  UNL1        0.0500
      6  C         17.1760  -23.9590   -3.7420 C.2     1  UNL1        0.2590
      7  C         16.1620  -22.8110   -5.4520 C.2     1  UNL1        0.0480
      8  N         16.1450  -23.2310   -3.2310 N.am    1  UNL1       -0.2890
      9  O         17.9310  -24.7040   -3.1530 O.2     1  UNL1       -0.2670
     10  C         15.4840  -22.5250   -4.1880 C.2     1  UNL1        0.2590
     11  H         15.8880  -23.2310   -2.2560 H       1  UNL1        0.1720
     12  O         14.5190  -21.8000   -4.0560 O.2     1  UNL1       -0.2670
     13  C         15.9090  -22.3550   -6.7290 C.2     1  UNL1        0.0200
     14  C         16.7510  -22.8170   -7.7480 C.2     1  UNL1        0.0310
     15  S         20.2410  -23.4900   -8.5580 S.O2    1  UNL1        0.2650
     16  O         20.3810  -22.5660   -7.4490 O.2     1  UNL1       -0.2000
     17  O         21.1560  -24.6030   -8.6940 O.2     1  UNL1       -0.2000
     18  C         20.2840  -22.5540  -10.0580 C.2     1  UNL1        0.1090
     19  C         19.1120  -21.8910  -10.4590 C.2     1  UNL1        0.0280
     20  C         19.1100  -21.1430  -11.6280 C.2     1  UNL1        0.0030
     21  C         20.2730  -21.0600  -12.3840 C.2     1  UNL1        0.0140
     22  C         21.4430  -21.7260  -11.9780 C.2     1  UNL1       -0.0060
     23  C         22.6110  -21.6360  -12.7480 C.2     1  UNL1        0.0150
     24  C         21.4710  -22.4970  -10.7920 C.2     1  UNL1        0.0900
     25  C         23.7640  -22.2940  -12.3470 C.2     1  UNL1        0.0200
     26  C         23.7100  -23.0300  -11.1830 C.2     1  UNL1        0.1170
     27  N         22.6010  -23.1440  -10.4210 N.2     1  UNL1       -0.2590
@<TRIPOS>BOND
     1    23    25    2
     2    23    22    1
     3    21    22    2
     4    21    20    1
     5    25    26    1
     6    22    24    1
     7    20    19    2
     8    26    27    2
     9    24    27    1
    10    24    18    2
    11    19    18    1
    12    18    15    1
    13     2     1    1
    14    17    15    2
    15    15     1    1
    16    15    16    2
    17     1     3    1
    18    14     3    2
    19    14    13    1
    20     3     4    1
    21    13     7    2
    22     4     5    2
    23     7     5    1
    24     7    10    1
    25     5     6    1
    26    10    12    2
    27    10     8   am
    28     6     8   am
    29     6     9    2
    30     8    11    1
