@<TRIPOS>MOLECULE
5904_out_ligand_01.pdbqt
 34 37 0 0 0
SMALL
GASTEIGER

@<TRIPOS>ATOM
      1  C         24.1590  -21.7070  -10.7220 C.ar    1  UNL1        0.1920
      2  N         25.4420  -21.4340  -10.7600 N.ar    1  UNL1       -0.1220
      3  N         25.8390  -21.4900  -12.0720 N.ar    1  UNL1       -0.1280
      4  C         24.7750  -21.7320  -12.8240 C.ar    1  UNL1        0.1670
      5  N         23.6850  -21.9180  -11.9890 N.ar    1  UNL1       -0.3070
      6  S         23.2060  -21.7190   -9.2850 S.3     1  UNL1       -0.0810
      7  C         22.9130  -23.5110   -9.1530 C.3     1  UNL1        0.1850
      8  C         21.5500  -23.8470   -8.5670 C.2     1  UNL1        0.2310
      9  O         21.0500  -24.9520   -8.7820 O.2     1  UNL1       -0.2720
     10  N         20.9450  -22.8060   -7.8850 N.am    1  UNL1       -0.3260
     11  H         21.5380  -22.0030   -7.6550 H       1  UNL1        0.1690
     12  C         19.6540  -22.7980   -7.3120 C.2     1  UNL1        0.0360
     13  C         19.3810  -21.8020   -6.3680 C.2     1  UNL1        0.0290
     14  C         18.1330  -21.7330   -5.7370 C.2     1  UNL1        0.0040
     15  C         17.1410  -22.6560   -6.0570 C.2     1  UNL1        0.0240
     16  C         17.4000  -23.6310   -7.0140 C.2     1  UNL1        0.0360
     17 CL         16.1710  -24.7680   -7.4140 Cl      1  UNL1       -0.0840
     18  C         18.6480  -23.7100   -7.6390 C.2     1  UNL1        0.0530
     19  C         22.3400  -22.2850  -12.3860 C.3     1  UNL1        0.1370
     20  C         21.4010  -21.0840  -12.5000 C.3     1  UNL1        0.0590
     21  C         20.0750  -21.3850  -11.8550 C.2     1  UNL1       -0.0570
     22  C         19.0340  -20.4510  -11.8850 C.2     1  UNL1        0.0070
     23  C         17.7920  -20.7640  -11.3330 C.2     1  UNL1        0.0010
     24  C         17.5790  -22.0120  -10.7530 C.2     1  UNL1        0.0000
     25  C         18.6090  -22.9460  -10.7170 C.2     1  UNL1        0.0010
     26  C         19.8500  -22.6350  -11.2670 C.2     1  UNL1        0.0070
     27  C         24.8100  -21.8810  -14.2770 C.2     1  UNL1        0.0450
     28  C         24.8900  -23.1430  -14.8770 C.2     1  UNL1        0.0180
     29  C         24.9530  -23.2710  -16.2650 C.2     1  UNL1        0.0010
     30  C         24.9220  -22.1370  -17.0700 C.2     1  UNL1        0.0030
     31  C         24.8100  -20.8770  -16.4920 C.2     1  UNL1        0.0370
     32  C         24.7370  -20.7530  -15.1080 C.2     1  UNL1        0.0790
     33  O         24.5880  -19.4870  -14.6100 O.2     1  UNL1       -0.3600
     34  H         23.6450  -19.3630  -14.3770 H       1  UNL1        0.2170
@<TRIPOS>BOND
     1    30    31    2
     2    30    29    1
     3    31    32    1
     4    29    28    2
     5    32    33    1
     6    32    27    2
     7    28    27    1
     8    33    34    1
     9    27     4    1
    10     4     3   ar
    11     4     5   ar
    12    20    19    1
    13    20    21    1
    14    19     5    1
    15     3     2   ar
    16     5     1   ar
    17    22    21    2
    18    22    23    1
    19    21    26    1
    20    23    24    2
    21    26    25    2
    22     2     1   ar
    23    24    25    1
    24     1     6    1
    25     6     7    1
    26     7     8    1
    27     9     8    2
    28     8    10   am
    29    10    11    1
    30    10    12    1
    31    18    12    2
    32    18    16    1
    33    17    16    1
    34    12    13    1
    35    16    15    2
    36    13    14    2
    37    15    14    1
