@<TRIPOS>MOLECULE
5907_out_ligand_01.pdbqt
 35 38 0 0 0
SMALL
GASTEIGER

@<TRIPOS>ATOM
      1  C         24.0670  -21.6150  -10.6100 C.ar    1  UNL1        0.1920
      2  N         25.3440  -21.3160  -10.6050 N.ar    1  UNL1       -0.1220
      3  N         25.7910  -21.3940  -11.9010 N.ar    1  UNL1       -0.1280
      4  C         24.7650  -21.6920  -12.6840 C.ar    1  UNL1        0.1670
      5  N         23.6480  -21.8670  -11.8900 N.ar    1  UNL1       -0.3070
      6  S         23.0590  -21.7120   -9.2080 S.3     1  UNL1       -0.0810
      7  C         22.7510  -23.4940   -9.1440 C.3     1  UNL1        0.1850
      8  C         21.4250  -23.8060   -8.4730 C.2     1  UNL1        0.2310
      9  N         20.9320  -22.7520   -7.7260 N.am    1  UNL1       -0.3270
     10  H         21.5880  -21.9920   -7.5290 H       1  UNL1        0.1690
     11  O         20.8810  -24.8970   -8.6380 O.2     1  UNL1       -0.2720
     12  C         19.6500  -22.6240   -7.1520 C.2     1  UNL1        0.0350
     13  C         19.3070  -21.6380   -6.2360 C.2     1  UNL1        0.0300
     14  C         18.0300  -21.6230   -5.6570 C.2     1  UNL1        0.0090
     15  C         17.0730  -22.5940   -5.9880 C.2     1  UNL1       -0.0560
     16  C         15.7170  -22.5500   -5.3330 C.3     1  UNL1        0.0490
     17  C         17.4030  -23.5790   -6.9390 C.2     1  UNL1       -0.0540
     18  C         18.6940  -23.5870   -7.5020 C.2     1  UNL1        0.0370
     19  C         16.4210  -24.6440   -7.3420 C.3     1  UNL1        0.0490
     20  C         22.3310  -22.2770  -12.3310 C.3     1  UNL1        0.1370
     21  C         21.3710  -21.1010  -12.4860 C.3     1  UNL1        0.0590
     22  C         20.0400  -21.4020  -11.8440 C.2     1  UNL1       -0.0570
     23  C         18.9920  -20.4760  -11.9150 C.2     1  UNL1        0.0070
     24  C         17.7520  -20.7700  -11.3420 C.2     1  UNL1        0.0010
     25  C         17.5460  -21.9930  -10.7060 C.2     1  UNL1        0.0000
     26  C         18.5800  -22.9210  -10.6410 C.2     1  UNL1        0.0010
     27  C         19.8220  -22.6290  -11.2080 C.2     1  UNL1        0.0070
     28  C         24.8270  -21.8830  -14.1310 C.2     1  UNL1        0.0450
     29  C         25.0150  -23.1770  -14.6370 C.2     1  UNL1        0.0180
     30  C         25.0590  -23.3980  -16.0140 C.2     1  UNL1        0.0010
     31  C         24.9180  -22.3330  -16.9020 C.2     1  UNL1        0.0030
     32  C         24.7530  -21.0370  -16.4160 C.2     1  UNL1        0.0370
     33  C         24.7160  -20.8160  -15.0380 C.2     1  UNL1        0.0790
     34  O         24.5890  -19.5370  -14.5630 O.2     1  UNL1       -0.3600
     35  H         23.8270  -19.5050  -13.9570 H       1  UNL1        0.2170
@<TRIPOS>BOND
     1    31    32    2
     2    31    30    1
     3    32    33    1
     4    30    29    2
     5    33    34    1
     6    33    28    2
     7    29    28    1
     8    34    35    1
     9    28     4    1
    10     4     3   ar
    11     4     5   ar
    12    21    20    1
    13    21    22    1
    14    20     5    1
    15    23    22    2
    16    23    24    1
    17     3     2   ar
    18     5     1   ar
    19    22    27    1
    20    24    25    2
    21    27    26    2
    22    25    26    1
    23     1     2   ar
    24     1     6    1
    25     6     7    1
    26     7     8    1
    27    11     8    2
    28     8     9   am
    29     9    10    1
    30     9    12    1
    31    18    12    2
    32    18    17    1
    33    19    17    1
    34    12    13    1
    35    17    15    2
    36    13    14    2
    37    15    14    1
    38    15    16    1
