@<TRIPOS>MOLECULE
59112_out_ligand_01.pdbqt
 35 38 0 0 0
SMALL
GASTEIGER

@<TRIPOS>ATOM
      1  C         24.4850  -21.7590  -12.0940 C.2     1  UNL1        0.0800
      2  C         24.6440  -21.6310  -10.7130 C.2     1  UNL1        0.0270
      3  C         23.5380  -21.7750   -9.8700 C.2     1  UNL1        0.0310
      4  C         22.2710  -22.0370  -10.4000 C.2     1  UNL1        0.0350
      5  C         22.1250  -22.1490  -11.7910 C.2     1  UNL1        0.0310
      6  C         23.2250  -22.0080  -12.6400 C.2     1  UNL1        0.0270
      7  N         21.1100  -22.1950   -9.6230 N.am    1  UNL1       -0.3210
      8  C         20.6110  -23.3470   -9.0390 C.2     1  UNL1        0.2800
      9  O         21.1220  -24.4600   -9.1140 O.2     1  UNL1       -0.2650
     10  H         20.5490  -21.3660   -9.4570 H       1  UNL1        0.1690
     11  C         19.3780  -23.1040   -8.3020 C.ar    1  UNL1        0.1500
     12  O         19.4230  -23.1080   -6.9310 O.2     1  UNL1       -0.3040
     13  C         18.1650  -22.8600   -6.4830 C.ar    1  UNL1        0.0870
     14  C         17.7890  -22.7840   -5.1440 C.2     1  UNL1        0.0450
     15  C         17.2950  -22.6940   -7.5500 C.ar    1  UNL1        0.0070
     16  C         16.4350  -22.5190   -4.8680 C.2     1  UNL1       -0.0530
     17  C         15.9970  -22.4310   -3.4290 C.3     1  UNL1        0.0490
     18  C         15.5120  -22.3430   -5.9230 C.2     1  UNL1       -0.0550
     19  C         14.0580  -22.0590   -5.6470 C.3     1  UNL1        0.0490
     20  C         15.9420  -22.4300   -7.2650 C.2     1  UNL1        0.0220
     21  C         18.0810  -22.8510   -8.7320 C.ar    1  UNL1       -0.0090
     22  C         17.6200  -22.7660  -10.1420 C.3     1  UNL1        0.0520
     23  S         25.8920  -21.5470  -13.1580 S.O2    1  UNL1        0.2760
     24  O         27.0640  -21.6950  -12.3170 O.2     1  UNL1       -0.2000
     25  O         25.7170  -20.3490  -13.9510 O.2     1  UNL1       -0.2000
     26  N         25.8590  -22.8890  -14.1340 N.pl3   1  UNL1       -0.1090
     27  H         26.5430  -23.5940  -13.8880 H       1  UNL1        0.1980
     28  C         25.7470  -22.6850  -15.5030 C.cat   1  UNL1        0.7360
     29  N         26.5160  -21.7660  -16.0870 N.2     1  UNL1       -0.0670
     30  C         26.2500  -21.5090  -17.3810 C.2     1  UNL1        0.0510
     31  C         25.2120  -22.1230  -18.0580 C.2     1  UNL1        0.0540
     32  C         27.1210  -20.5080  -18.0770 C.3     1  UNL1        0.0710
     33  C         24.4450  -23.0190  -17.3370 C.2     1  UNL1        0.0510
     34  C         23.2880  -23.7170  -17.9870 C.3     1  UNL1        0.0710
     35  N         24.6890  -23.2960  -16.0410 N.2     1  UNL1       -0.0670
@<TRIPOS>BOND
     1    32    30    1
     2    31    30    2
     3    31    33    1
     4    34    33    1
     5    30    29    1
     6    33    35    2
     7    29    28    2
     8    35    28    1
     9    28    26    1
    10    26    27    1
    11    26    23    1
    12    25    23    2
    13    23    24    2
    14    23     1    1
    15     6     1    2
    16     6     5    1
    17     1     2    1
    18     5     4    2
    19     2     3    2
    20     4     3    1
    21     4     7    1
    22    22    21    1
    23     7    10    1
    24     7     8   am
    25     9     8    2
    26     8    11    1
    27    21    11   ar
    28    21    15   ar
    29    11    12   ar
    30    15    20    1
    31    15    13   ar
    32    20    18    2
    33    12    13   ar
    34    13    14    1
    35    18    19    1
    36    18    16    1
    37    14    16    2
    38    16    17    1
