@<TRIPOS>MOLECULE
5912_out_ligand_01.pdbqt
 28 31 0 0 0
SMALL
GASTEIGER

@<TRIPOS>ATOM
      1  C         19.7290  -23.2190   -8.7600 C.2     1  UNL1        0.0320
      2  C         20.9970  -23.8100   -8.6750 C.2     1  UNL1        0.0170
      3  C         21.9740  -23.5090   -9.6280 C.2     1  UNL1        0.0100
      4  C         21.6970  -22.6240  -10.6800 C.2     1  UNL1       -0.0300
      5  C         20.4200  -22.0500  -10.7680 C.2     1  UNL1        0.0100
      6  C         19.4400  -22.3500   -9.8180 C.2     1  UNL1        0.0170
      7  C         18.6560  -23.5120   -7.7670 C.2     1  UNL1        0.2560
      8  O         18.4730  -24.6760   -7.4300 O.2     1  UNL1       -0.2670
      9  N         17.9380  -22.4110   -7.3460 N.am    1  UNL1       -0.3200
     10  H         18.1140  -21.5230   -7.8040 H       1  UNL1        0.1690
     11  C         16.8940  -22.3780   -6.3960 C.2     1  UNL1        0.0730
     12  C         15.5380  -22.4650   -6.7080 C.2     1  UNL1        0.0330
     13  C         14.5750  -22.4260   -5.6900 C.2     1  UNL1        0.0020
     14  C         14.9600  -22.3010   -4.3550 C.2     1  UNL1        0.0030
     15  C         16.3110  -22.2170   -4.0310 C.2     1  UNL1        0.0440
     16  C         17.2610  -22.2570   -5.0480 C.2     1  UNL1        0.1430
     17  F         18.5630  -22.1770   -4.7240 F       1  UNL1       -0.2040
     18  C         22.7580  -22.2950  -11.7120 C.3     1  UNL1        0.3110
     19  N         24.0260  -23.0040  -11.4790 N.3     1  UNL1        0.0970
     20  C         24.5980  -23.5370  -12.7260 C.3     1  UNL1        0.2770
     21  C         25.0280  -22.4650  -13.7400 C.3     1  UNL1        0.0690
     22  C         25.7350  -21.2990  -13.0950 C.2     1  UNL1       -0.0490
     23  C         26.3840  -20.3470  -13.8930 C.2     1  UNL1        0.0070
     24  C         25.6940  -21.1280  -11.7000 C.2     1  UNL1       -0.0240
     25  C         27.0060  -19.2440  -13.3090 C.2     1  UNL1        0.0010
     26  C         26.9820  -19.0820  -11.9260 C.2     1  UNL1        0.0010
     27  C         26.3340  -20.0210  -11.1240 C.2     1  UNL1        0.0090
     28  C         25.0350  -22.1620  -10.8100 C.3     1  UNL1        0.3110
@<TRIPOS>BOND
     1    23    25    1
     2    23    22    2
     3    21    22    1
     4    21    20    1
     5    25    26    2
     6    22    24    1
     7    20    19    1
     8    26    27    1
     9    18    19    1
    10    18     4    1
    11    24    27    2
    12    24    28    1
    13    19    28    1
    14     5     4    2
    15     5     6    1
    16     4     3    1
    17     6     1    2
    18     3     2    2
    19     1     2    1
    20     1     7    1
    21    10     9    1
    22     7     8    2
    23     7     9   am
    24     9    11    1
    25    12    11    2
    26    12    13    1
    27    11    16    1
    28    13    14    2
    29    16    17    1
    30    16    15    2
    31    14    15    1
