@<TRIPOS>MOLECULE
59145_out_ligand_01.pdbqt
 34 37 0 0 0
SMALL
GASTEIGER

@<TRIPOS>ATOM
      1  C         23.7260  -21.8480  -11.8080 C.2     1  UNL1        0.0800
      2  C         22.4240  -22.0970  -12.2410 C.2     1  UNL1        0.0270
      3  C         21.4000  -22.2310  -11.3000 C.2     1  UNL1        0.0310
      4  C         21.6670  -22.1150   -9.9260 C.2     1  UNL1        0.0350
      5  C         22.9740  -21.8500   -9.5100 C.2     1  UNL1        0.0310
      6  C         24.0040  -21.7130  -10.4460 C.2     1  UNL1        0.0270
      7  N         20.5710  -22.2570   -9.0510 N.am    1  UNL1       -0.3210
      8  C         20.1930  -23.3830   -8.3330 C.2     1  UNL1        0.2800
      9  O         20.7280  -24.4820   -8.4350 O.2     1  UNL1       -0.2650
     10  H         19.9440  -21.4670   -8.9980 H       1  UNL1        0.1690
     11  C         19.0490  -23.1570   -7.4600 C.ar    1  UNL1        0.1500
     12  O         17.9850  -24.0080   -7.6040 O.2     1  UNL1       -0.3040
     13  C         17.0240  -23.6270   -6.7270 C.ar    1  UNL1        0.0870
     14  C         15.7800  -24.2410   -6.5800 C.2     1  UNL1        0.0410
     15  C         17.4530  -22.5320   -5.9890 C.ar    1  UNL1        0.0090
     16  C         14.9280  -23.6950   -5.6150 C.2     1  UNL1        0.0450
     17  C         15.3280  -22.5980   -4.8550 C.2     1  UNL1        0.1170
     18  F         14.4890  -22.1000   -3.9380 F       1  UNL1       -0.2060
     19  C         16.5820  -22.0010   -5.0200 C.2     1  UNL1        0.0570
     20  C         18.7770  -22.2360   -6.4490 C.ar    1  UNL1       -0.0090
     21  C         19.6700  -21.1760   -5.9110 C.3     1  UNL1        0.0520
     22  S         25.0370  -21.6450  -12.9890 S.O2    1  UNL1        0.2760
     23  O         25.4000  -22.9800  -13.4270 O.2     1  UNL1       -0.2000
     24  O         26.0470  -20.7680  -12.4360 O.2     1  UNL1       -0.2000
     25  N         24.2970  -20.9230  -14.2860 N.pl3   1  UNL1       -0.1090
     26  H         23.2860  -20.9160  -14.2350 H       1  UNL1        0.1980
     27  C         24.7870  -21.2140  -15.5510 C.cat   1  UNL1        0.7360
     28  N         24.1150  -22.1950  -16.1610 N.2     1  UNL1       -0.0670
     29  C         24.4470  -22.4250  -17.4470 C.2     1  UNL1        0.0510
     30  C         25.3920  -21.6660  -18.1130 C.2     1  UNL1        0.0540
     31  C         23.7400  -23.5420  -18.1530 C.3     1  UNL1        0.0710
     32  C         25.9850  -20.6430  -17.3960 C.2     1  UNL1        0.0510
     33  C         27.0050  -19.7570  -18.0440 C.3     1  UNL1        0.0710
     34  N         25.6730  -20.3910  -16.1120 N.2     1  UNL1       -0.0670
@<TRIPOS>BOND
     1    31    29    1
     2    30    29    2
     3    30    32    1
     4    33    32    1
     5    29    28    1
     6    32    34    2
     7    28    27    2
     8    34    27    1
     9    27    25    1
    10    25    26    1
    11    25    22    1
    12    23    22    2
    13    22    24    2
    14    22     1    1
    15     2     1    2
    16     2     3    1
    17     1     6    1
    18     3     4    2
    19     6     5    2
    20     4     5    1
    21     4     7    1
    22     7    10    1
    23     7     8   am
    24     9     8    2
    25     8    11    1
    26    12    11   ar
    27    12    13   ar
    28    11    20   ar
    29    13    14    2
    30    13    15   ar
    31    14    16    1
    32    20    15   ar
    33    20    21    1
    34    15    19    2
    35    16    17    2
    36    19    17    1
    37    17    18    1
