@<TRIPOS>MOLECULE
59211_out_ligand_01.pdbqt
 25 27 0 0 0
SMALL
GASTEIGER

@<TRIPOS>ATOM
      1  N         19.5960  -22.4200   -9.2820 N.am    1  UNL1       -0.3230
      2  C         19.4620  -23.5930   -8.5640 C.2     1  UNL1        0.2570
      3  O         20.1060  -24.6260   -8.6840 O.2     1  UNL1       -0.2670
      4  H         19.0060  -21.6470   -8.9940 H       1  UNL1        0.1690
      5  C         20.4770  -22.1660  -10.3510 C.2     1  UNL1        0.0350
      6  C         21.8350  -22.4880  -10.3350 C.2     1  UNL1        0.0300
      7  C         22.6450  -22.2040  -11.4420 C.2     1  UNL1        0.0190
      8  C         22.1030  -21.6060  -12.5830 C.2     1  UNL1        0.0320
      9  C         20.7450  -21.2720  -12.6020 C.2     1  UNL1        0.0190
     10  C         19.9400  -21.5550  -11.4920 C.2     1  UNL1        0.0300
     11  C         23.0040  -21.3260  -13.7330 C.2     1  UNL1        0.2490
     12  N         22.6740  -20.2800  -14.5510 N.am    1  UNL1       -0.3660
     13  H         21.7410  -19.8960  -14.5750 H       1  UNL1        0.1590
     14  H         23.2270  -20.2010  -15.3960 H       1  UNL1        0.1590
     15  O         23.9850  -22.0180  -13.9680 O.2     1  UNL1       -0.2680
     16  C         18.4360  -23.5210   -7.4940 C.2     1  UNL1        0.0430
     17  C         17.3920  -24.4520   -7.5790 C.2     1  UNL1        0.0180
     18  C         16.4210  -24.4970   -6.5850 C.2     1  UNL1        0.0020
     19  C         16.4930  -23.6110   -5.5090 C.2     1  UNL1        0.0120
     20  C         17.5190  -22.6540   -5.4200 C.2     1  UNL1       -0.0250
     21  C         17.5610  -21.7610   -4.3380 C.2     1  UNL1        0.0120
     22  C         18.5110  -22.5840   -6.4310 C.2     1  UNL1       -0.0100
     23  C         18.5560  -20.7890   -4.2460 C.2     1  UNL1        0.0010
     24  C         19.5200  -20.6910   -5.2390 C.2     1  UNL1        0.0010
     25  C         19.4970  -21.5730   -6.3210 C.2     1  UNL1        0.0130
@<TRIPOS>BOND
     1    14    12    1
     2    13    12    1
     3    12    11   am
     4    15    11    2
     5    11     8    1
     6     9     8    2
     7     9    10    1
     8     8     7    1
     9    10     5    2
    10     7     6    2
    11     5     6    1
    12     5     1    1
    13     1     4    1
    14     1     2   am
    15     3     2    2
    16     2    16    1
    17    17    16    2
    18    17    18    1
    19    16    22    1
    20    18    19    2
    21    22    25    1
    22    22    20    2
    23    25    24    2
    24    19    20    1
    25    20    21    1
    26    24    23    1
    27    21    23    2
