@<TRIPOS>MOLECULE
59233_out_ligand_01.pdbqt
 30 33 0 0 0
SMALL
GASTEIGER

@<TRIPOS>ATOM
      1  C         20.7620  -22.7910  -10.3850 C.2     1  UNL1        0.0330
      2  C         20.0470  -21.8920  -11.2160 C.2     1  UNL1        0.0180
      3  C         20.6720  -21.2680  -12.3020 C.2     1  UNL1        0.0190
      4  C         22.0060  -21.5600  -12.5160 C.2     1  UNL1        0.0480
      5  C         22.7090  -22.4290  -11.6980 C.2     1  UNL1        0.0490
      6  C         22.1200  -23.0570  -10.6190 C.2     1  UNL1        0.0350
      7  C         24.0770  -22.5010  -12.2080 C.2     1  UNL1        0.2620
      8  O         24.9570  -23.1860  -11.7240 O.2     1  UNL1       -0.2670
      9  N         24.1300  -21.6740  -13.2940 N.am    1  UNL1       -0.2760
     10  C         22.9270  -21.0780  -13.5440 C.2     1  UNL1        0.2620
     11  O         22.6180  -20.2980  -14.4250 O.2     1  UNL1       -0.2670
     12  C         20.1080  -23.4450   -9.2180 C.2     1  UNL1        0.2560
     13  N         19.0500  -22.7370   -8.6780 N.am    1  UNL1       -0.3220
     14  H         18.7510  -21.9210   -9.1900 H       1  UNL1        0.1690
     15  O         20.5370  -24.5370   -8.8690 O.2     1  UNL1       -0.2670
     16  C         18.2700  -23.0720   -7.5410 C.2     1  UNL1        0.0410
     17  C         17.2640  -24.0420   -7.5990 C.2     1  UNL1        0.0300
     18  C         16.5130  -24.3640   -6.4710 C.2     1  UNL1        0.0030
     19  C         16.7590  -23.7220   -5.2640 C.2     1  UNL1        0.0070
     20  C         17.7610  -22.7470   -5.1640 C.2     1  UNL1       -0.0540
     21  C         17.9770  -22.0890   -3.8260 C.3     1  UNL1        0.0490
     22  C         18.5310  -22.4130   -6.3080 C.2     1  UNL1       -0.0290
     23  C         19.6140  -21.3640   -6.2200 C.3     1  UNL1        0.0510
     24  C         25.3080  -21.4980  -14.1140 C.3     1  UNL1        0.1750
     25  C         25.0930  -22.0100  -15.5110 C.2     1  UNL1       -0.0220
     26  C         25.0930  -21.1490  -16.6130 C.2     1  UNL1        0.0120
     27  C         24.8690  -21.6600  -17.8870 C.2     1  UNL1        0.0200
     28  C         24.6430  -23.0190  -18.0180 C.2     1  UNL1        0.1160
     29  N         24.6210  -23.8790  -16.9780 N.2     1  UNL1       -0.2730
     30  C         24.8410  -23.3570  -15.7500 C.2     1  UNL1        0.1240
@<TRIPOS>BOND
     1    28    27    2
     2    28    29    1
     3    27    26    1
     4    29    30    2
     5    26    25    2
     6    30    25    1
     7    25    24    1
     8    11    10    2
     9    24     9    1
    10    10     9   am
    11    10     4    1
    12     9     7   am
    13     4     3    2
    14     4     5    1
    15     3     2    1
    16     7     8    2
    17     7     5    1
    18     5     6    2
    19     2     1    2
    20     6     1    1
    21     1    12    1
    22    12    15    2
    23    12    13   am
    24    14    13    1
    25    13    16    1
    26    17    16    2
    27    17    18    1
    28    16    22    1
    29    18    19    2
    30    22    23    1
    31    22    20    2
    32    19    20    1
    33    20    21    1
