@<TRIPOS>MOLECULE
59246_out_ligand_01.pdbqt
 34 37 0 0 0
SMALL
GASTEIGER

@<TRIPOS>ATOM
      1  C         21.7240  -23.5780   -8.9520 C.2     1  UNL1        0.0340
      2  C         21.4650  -22.4180   -8.2050 C.2     1  UNL1        0.0310
      3  C         20.3270  -22.3250   -7.4000 C.2     1  UNL1        0.0270
      4  C         19.4350  -23.3970   -7.3460 C.2     1  UNL1        0.0790
      5  C         19.6850  -24.5630   -8.0710 C.2     1  UNL1        0.0270
      6  C         20.8280  -24.6480   -8.8750 C.2     1  UNL1        0.0310
      7  N         22.8920  -23.5770   -9.7430 N.am    1  UNL1       -0.3270
      8  C         23.0830  -22.9740  -10.9720 C.2     1  UNL1        0.2260
      9  O         22.2460  -22.3070  -11.5790 O.2     1  UNL1       -0.2730
     10  H         23.6620  -24.1270   -9.3800 H       1  UNL1        0.1690
     11  C         24.4860  -23.1170  -11.5610 C.3     1  UNL1        0.1420
     12  C         25.1600  -21.8400  -12.0250 C.2     1  UNL1       -0.0380
     13  C         25.8180  -21.0560  -11.0590 C.2     1  UNL1        0.0080
     14  C         26.4820  -19.8890  -11.4220 C.2     1  UNL1        0.0010
     15  C         26.5010  -19.4890  -12.7550 C.2     1  UNL1        0.0120
     16  C         25.8550  -20.2460  -13.7440 C.2     1  UNL1       -0.0250
     17  C         25.8890  -19.8250  -15.0840 C.2     1  UNL1        0.0120
     18  C         25.1700  -21.4360  -13.3910 C.2     1  UNL1       -0.0190
     19  C         25.2560  -20.5610  -16.0840 C.2     1  UNL1        0.0010
     20  C         24.5800  -21.7290  -15.7550 C.2     1  UNL1        0.0010
     21  C         24.5360  -22.1600  -14.4270 C.2     1  UNL1        0.0130
     22  S         17.9940  -23.2770   -6.3200 S.O2    1  UNL1        0.2580
     23  O         18.2190  -22.2060   -5.3750 O.2     1  UNL1       -0.2010
     24  O         17.6090  -24.6030   -5.8910 O.2     1  UNL1       -0.2010
     25  N         16.8470  -22.7230   -7.4020 N.3     1  UNL1       -0.3150
     26  H         16.3700  -21.8680   -7.1160 H       1  UNL1        0.1720
     27  C         16.1300  -23.6630   -8.2710 C.3     1  UNL1        0.1370
     28  C         15.6760  -22.9960   -9.5730 C.3     1  UNL1        0.0580
     29  C         16.8040  -22.3210  -10.3200 C.2     1  UNL1       -0.0570
     30  C         17.9930  -23.0100  -10.5950 C.2     1  UNL1        0.0070
     31  C         19.0390  -22.3740  -11.2640 C.2     1  UNL1        0.0010
     32  C         18.9090  -21.0460  -11.6620 C.2     1  UNL1        0.0000
     33  C         17.7310  -20.3500  -11.3910 C.2     1  UNL1        0.0010
     34  C         16.6830  -20.9830  -10.7230 C.2     1  UNL1        0.0070
@<TRIPOS>BOND
     1    19    20    1
     2    19    17    2
     3    20    21    2
     4    17    16    1
     5    21    18    1
     6    16    18    1
     7    16    15    2
     8    18    12    2
     9    15    14    1
    10    12    11    1
    11    12    13    1
    12    32    33    2
    13    32    31    1
    14     9     8    2
    15    11     8    1
    16    14    13    2
    17    33    34    1
    18    31    30    2
    19     8     7   am
    20    34    29    2
    21    30    29    1
    22    29    28    1
    23     7    10    1
    24     7     1    1
    25    28    27    1
    26     1     6    2
    27     1     2    1
    28     6     5    1
    29    27    25    1
    30     2     3    2
    31     5     4    2
    32    25    26    1
    33    25    22    1
    34     3     4    1
    35     4    22    1
    36    22    24    2
    37    22    23    2
