@<TRIPOS>MOLECULE
59277_out_ligand_01.pdbqt
 29 32 0 0 0
SMALL
GASTEIGER

@<TRIPOS>ATOM
      1  N         22.8860  -22.4890  -11.4600 N.am    1  UNL1       -0.2440
      2  C         21.9650  -21.7650  -12.1950 C.2     1  UNL1        0.2660
      3  O         22.0620  -21.0970  -13.2080 O.2     1  UNL1       -0.2670
      4  C         20.6730  -21.9060  -11.5310 C.2     1  UNL1        0.0480
      5  C         19.4330  -21.3960  -11.8630 C.2     1  UNL1        0.0190
      6  C         18.3600  -21.7150  -11.0220 C.2     1  UNL1        0.0180
      7  C         18.5480  -22.5240   -9.8720 C.2     1  UNL1        0.0330
      8  C         19.8160  -23.0390   -9.5720 C.2     1  UNL1        0.0350
      9  C         20.8560  -22.7020  -10.4240 C.2     1  UNL1        0.0490
     10  C         22.2640  -23.0720  -10.3730 C.2     1  UNL1        0.2660
     11  O         22.6740  -23.7680   -9.4600 O.2     1  UNL1       -0.2670
     12  C         17.3550  -22.8350   -9.0310 C.2     1  UNL1        0.2560
     13  O         16.3240  -23.1670   -9.6020 O.2     1  UNL1       -0.2670
     14  N         17.5350  -22.6780   -7.6700 N.am    1  UNL1       -0.3220
     15  H         18.4090  -22.2790   -7.3520 H       1  UNL1        0.1690
     16  C         16.5860  -22.9390   -6.6540 C.2     1  UNL1        0.0520
     17  C         15.3670  -22.2800   -6.5220 C.2     1  UNL1        0.0320
     18  C         14.5010  -22.6220   -5.4820 C.2     1  UNL1        0.0210
     19  C         14.8830  -23.6200   -4.6020 C.2     1  UNL1        0.1160
     20  N         16.0520  -24.2870   -4.6930 N.2     1  UNL1       -0.2710
     21  C         16.8690  -23.9310   -5.7130 C.2     1  UNL1        0.1450
     22  C         24.2780  -22.6110  -11.7740 C.2     1  UNL1        0.0480
     23  C         25.2310  -21.7270  -11.2430 C.2     1  UNL1        0.0300
     24  C         26.5910  -21.8450  -11.5480 C.2     1  UNL1        0.0050
     25  C         27.0390  -22.8520  -12.3970 C.2     1  UNL1        0.0370
     26  C         26.1240  -23.7460  -12.9400 C.2     1  UNL1        0.0700
     27  C         24.7610  -23.6190  -12.6250 C.2     1  UNL1        0.0660
     28  O         26.4190  -24.7820  -13.7850 O.2     1  UNL1       -0.3560
     29  C         25.6350  -24.8960  -14.9650 C.3     1  UNL1        0.2100
@<TRIPOS>BOND
     1    29    28    1
     2    28    26    1
     3     3     2    2
     4    26    27    1
     5    26    25    2
     6    27    22    2
     7    25    24    1
     8     2     4    1
     9     2     1   am
    10     5     4    2
    11     5     6    1
    12    22     1    1
    13    22    23    1
    14    24    23    2
    15     4     9    1
    16     1    10   am
    17     6     7    2
    18     9    10    1
    19     9     8    2
    20    10    11    2
    21     7     8    1
    22     7    12    1
    23    13    12    2
    24    12    14   am
    25    14    15    1
    26    14    16    1
    27    16    17    2
    28    16    21    1
    29    17    18    1
    30    21    20    2
    31    18    19    2
    32    20    19    1
