@<TRIPOS>MOLECULE
59308_out_ligand_01.pdbqt
 29 32 0 0 0
SMALL
GASTEIGER

@<TRIPOS>ATOM
      1  C         19.9620  -21.9150  -11.1120 C.2     1  UNL1        0.0320
      2  C         18.8240  -21.6300  -11.8780 C.2     1  UNL1        0.0180
      3  C         17.5510  -21.7850  -11.3220 C.2     1  UNL1        0.0190
      4  C         17.4090  -22.2040   -9.9930 C.2     1  UNL1        0.0450
      5  C         18.5440  -22.4650   -9.2140 C.2     1  UNL1       -0.0380
      6  C         19.8190  -22.3250   -9.7780 C.2     1  UNL1        0.0250
      7  C         18.3610  -22.9250   -7.7980 C.3     1  UNL1        0.0770
      8  C         17.0900  -22.2770   -7.2500 C.3     1  UNL1        0.1690
      9  O         15.9600  -22.5960   -8.0910 O.3     1  UNL1       -0.3070
     10  C         16.0460  -22.3990   -9.4310 C.2     1  UNL1        0.2940
     11  O         15.0610  -22.4080  -10.1560 O.2     1  UNL1       -0.2590
     12  C         21.3390  -21.7630  -11.6630 C.2     1  UNL1        0.2560
     13  N         22.3320  -22.3830  -10.9290 N.am    1  UNL1       -0.3230
     14  H         22.0660  -22.7850  -10.0400 H       1  UNL1        0.1690
     15  O         21.4770  -21.0880  -12.6760 O.2     1  UNL1       -0.2670
     16  C         23.7090  -22.4480  -11.2340 C.2     1  UNL1        0.0370
     17  C         24.5410  -21.5010  -10.6250 C.2     1  UNL1        0.0290
     18  C         25.9160  -21.5030  -10.8690 C.2     1  UNL1        0.0050
     19  C         26.4760  -22.4530  -11.7240 C.2     1  UNL1        0.0370
     20  C         25.6590  -23.4050  -12.3330 C.2     1  UNL1        0.0700
     21  C         24.2810  -23.3970  -12.0840 C.2     1  UNL1        0.0660
     22  O         26.0810  -24.3910  -13.1850 O.2     1  UNL1       -0.3560
     23  C         25.4030  -24.5080  -14.4280 C.3     1  UNL1        0.2100
     24  C         16.8160  -22.7420   -5.8330 C.2     1  UNL1       -0.0290
     25  C         15.5510  -22.5960   -5.2440 C.2     1  UNL1        0.0100
     26  C         15.3130  -23.0560   -3.9470 C.2     1  UNL1        0.0010
     27  C         16.3330  -23.6720   -3.2260 C.2     1  UNL1        0.0000
     28  C         17.5930  -23.8280   -3.8000 C.2     1  UNL1        0.0010
     29  C         17.8330  -23.3690   -5.0960 C.2     1  UNL1        0.0100
@<TRIPOS>BOND
     1    23    22    1
     2    22    20    1
     3    15    12    2
     4    20    21    1
     5    20    19    2
     6    21    16    2
     7     2     3    1
     8     2     1    2
     9    19    18    1
    10    12     1    1
    11    12    13   am
    12     3     4    2
    13    16    13    1
    14    16    17    1
    15     1     6    1
    16    13    14    1
    17    18    17    2
    18    11    10    2
    19     4    10    1
    20     4     5    1
    21     6     5    2
    22    10     9    1
    23     5     7    1
    24     9     8    1
    25     7     8    1
    26     8    24    1
    27    24    25    2
    28    24    29    1
    29    25    26    1
    30    29    28    2
    31    26    27    2
    32    28    27    1
