@<TRIPOS>MOLECULE
59329_out_ligand_01.pdbqt
 29 32 0 0 0
SMALL
GASTEIGER

@<TRIPOS>ATOM
      1  N         18.5430  -22.6890   -8.8840 N.am    1  UNL1       -0.2440
      2  C         18.2050  -21.9760  -10.0190 C.2     1  UNL1        0.2660
      3  O         17.1620  -21.4720  -10.3940 O.2     1  UNL1       -0.2670
      4  C         19.4080  -21.8680  -10.8370 C.2     1  UNL1        0.0480
      5  C         19.6120  -21.2450  -12.0530 C.2     1  UNL1        0.0190
      6  C         20.9010  -21.3030  -12.5960 C.2     1  UNL1        0.0180
      7  C         21.9480  -21.9810  -11.9250 C.2     1  UNL1        0.0330
      8  C         21.7100  -22.5940  -10.6860 C.2     1  UNL1        0.0350
      9  C         20.4250  -22.5180  -10.1770 C.2     1  UNL1        0.0490
     10  C         19.8770  -23.0470   -8.9330 C.2     1  UNL1        0.2660
     11  O         20.5890  -23.6860   -8.1790 O.2     1  UNL1       -0.2670
     12  C         23.2960  -21.9880  -12.5600 C.2     1  UNL1        0.2520
     13  O         24.2620  -22.4240  -11.9440 O.2     1  UNL1       -0.2680
     14  N         23.3850  -21.4660  -13.8280 N.am    1  UNL1       -0.3510
     15  H         22.6440  -20.8760  -14.1860 H       1  UNL1        0.1630
     16  C         24.6740  -21.3060  -14.4620 C.3     1  UNL1        0.1870
     17  C         24.6210  -21.9340  -15.8040 C.2     1  UNL1        0.0700
     18  C         24.5740  -23.2430  -16.2370 C.2     1  UNL1        0.0360
     19  C         24.5320  -23.1950  -17.6510 C.2     1  UNL1        0.0270
     20  C         24.5500  -21.8640  -17.9910 C.2     1  UNL1        0.1420
     21  O         24.6020  -21.0890  -16.8770 O.2     1  UNL1       -0.3250
     22  C         17.6460  -23.0140   -7.8150 C.2     1  UNL1        0.0460
     23  C         16.5850  -23.9120   -7.9930 C.2     1  UNL1        0.0310
     24  C         15.7110  -24.2360   -6.9460 C.2     1  UNL1        0.0090
     25  C         15.8670  -23.6730   -5.6770 C.2     1  UNL1       -0.0560
     26  C         14.9050  -24.0390   -4.5820 C.3     1  UNL1        0.0490
     27  C         16.9110  -22.7590   -5.4710 C.2     1  UNL1       -0.0540
     28  C         17.7860  -22.4500   -6.5350 C.2     1  UNL1        0.0370
     29  C         17.1320  -22.1130   -4.1290 C.3     1  UNL1        0.0490
@<TRIPOS>BOND
     1    20    19    2
     2    20    21    1
     3    19    18    1
     4    21    17    1
     5    18    17    2
     6    17    16    1
     7    16    14    1
     8    15    14    1
     9    14    12   am
    10     6     5    1
    11     6     7    2
    12    12    13    2
    13    12     7    1
    14     5     4    2
    15     7     8    1
    16     4     9    1
    17     4     2    1
    18     8     9    2
    19     3     2    2
    20     9    10    1
    21     2     1   am
    22    10     1   am
    23    10    11    2
    24     1    22    1
    25    23    22    2
    26    23    24    1
    27    22    28    1
    28    24    25    2
    29    28    27    2
    30    25    27    1
    31    25    26    1
    32    27    29    1
