@<TRIPOS>MOLECULE
59330_out_ligand_01.pdbqt
 30 33 0 0 0
SMALL
GASTEIGER

@<TRIPOS>ATOM
      1  C         17.7270  -24.0060   -8.0100 C.2     1  UNL1        0.0770
      2  C         17.2580  -23.2070   -9.0510 C.2     1  UNL1        0.0390
      3  C         18.1440  -22.5360   -9.8990 C.2     1  UNL1        0.0330
      4  C         19.5130  -22.6820   -9.6460 C.2     1  UNL1        0.0430
      5  N         20.5980  -22.1520  -10.3050 N.pl3   1  UNL1       -0.3510
      6  C         21.7770  -22.5230   -9.6990 C.2     1  UNL1        0.1020
      7  C         21.4230  -23.3520   -8.6450 C.2     1  UNL1        0.0490
      8  C         20.0070  -23.4530   -8.5980 C.2     1  UNL1       -0.0040
      9  C         19.1010  -24.1230   -7.7550 C.2     1  UNL1        0.0510
     10  H         20.5280  -21.5830  -11.1350 H       1  UNL1        0.1660
     11  C         23.1150  -22.1470  -10.1070 C.2     1  UNL1        0.2680
     12  O         23.6410  -21.0900   -9.7690 O.2     1  UNL1       -0.2660
     13  N         23.7500  -23.0530  -10.9310 N.am    1  UNL1       -0.3470
     14  H         23.1850  -23.7270  -11.4260 H       1  UNL1        0.1630
     15  C         25.0530  -22.7610  -11.5090 C.3     1  UNL1        0.1140
     16  C         26.1720  -23.5470  -10.8150 C.3     1  UNL1        0.0370
     17  C         25.0040  -23.0290  -13.0050 C.2     1  UNL1       -0.0360
     18  C         24.5800  -22.0500  -13.9190 C.2     1  UNL1        0.0090
     19  C         24.5670  -22.3140  -15.2900 C.2     1  UNL1        0.0010
     20  C         24.9860  -23.5530  -15.7660 C.2     1  UNL1        0.0000
     21  C         25.4220  -24.5300  -14.8750 C.2     1  UNL1        0.0010
     22  C         25.4350  -24.2680  -13.5030 C.2     1  UNL1        0.0090
     23  O         16.7720  -24.5950   -7.2080 O.2     1  UNL1       -0.3110
     24  C         16.2010  -23.8230   -6.2220 C.2     1  UNL1        0.0760
     25  C         16.8280  -23.8300   -4.9760 C.2     1  UNL1        0.0370
     26  C         16.3300  -23.0350   -3.9460 C.2     1  UNL1        0.0030
     27  C         15.2150  -22.2230   -4.1640 C.2     1  UNL1        0.0070
     28  C         14.5850  -22.2030   -5.4160 C.2     1  UNL1       -0.0590
     29  C         13.4120  -21.2990   -5.6500 C.3     1  UNL1        0.0480
     30  C         15.0970  -22.9970   -6.4500 C.2     1  UNL1        0.0440
@<TRIPOS>BOND
     1    20    19    2
     2    20    21    1
     3    19    18    1
     4    21    22    2
     5    18    17    2
     6    22    17    1
     7    17    15    1
     8    15    13    1
     9    15    16    1
    10    14    13    1
    11    10     5    1
    12    13    11   am
    13     5     6    1
    14     5     4    1
    15    11    12    2
    16    11     6    1
    17     3     4    2
    18     3     2    1
    19     6     7    2
    20     4     8    1
    21     2     1    2
    22     7     8    1
    23     8     9    2
    24     1     9    1
    25     1    23    1
    26    23    24    1
    27    30    24    2
    28    30    28    1
    29    24    25    1
    30    29    28    1
    31    28    27    2
    32    25    26    2
    33    27    26    1
