@<TRIPOS>MOLECULE
59384_out_ligand_01.pdbqt
 33 36 0 0 0
SMALL
GASTEIGER

@<TRIPOS>ATOM
      1  C         16.6580  -21.9850  -10.0200 C.ar    1  UNL1        0.2310
      2  N         15.5130  -22.6220  -10.1470 N.ar    1  UNL1       -0.1140
      3  N         15.0940  -22.9370   -8.8710 N.ar    1  UNL1       -0.1200
      4  C         16.0080  -22.4610   -8.0480 C.ar    1  UNL1        0.2050
      5  O         17.0400  -21.8590   -8.7130 O.2     1  UNL1       -0.2630
      6  C         16.0730  -22.5050   -6.5870 C.2     1  UNL1        0.0460
      7  C         14.8890  -22.3450   -5.8380 C.2     1  UNL1        0.0180
      8  C         14.9090  -22.3840   -4.4450 C.2     1  UNL1        0.0010
      9  C         16.1100  -22.5860   -3.7800 C.2     1  UNL1        0.0020
     10  C         17.2950  -22.7520   -4.5040 C.2     1  UNL1        0.0300
     11  C         17.2990  -22.7130   -5.9040 C.2     1  UNL1        0.0490
     12  N         18.4940  -22.8820   -6.6560 N.am    1  UNL1       -0.3220
     13  C         19.6070  -22.0630   -6.6950 C.2     1  UNL1        0.2560
     14  O         19.7440  -20.9850   -6.1270 O.2     1  UNL1       -0.2670
     15  H         18.5060  -23.6870   -7.2780 H       1  UNL1        0.1690
     16  C         20.7220  -22.5510   -7.5620 C.2     1  UNL1        0.0320
     17  C         21.8970  -21.8120   -7.7530 C.2     1  UNL1        0.0170
     18  C         22.9150  -22.3150   -8.5700 C.2     1  UNL1        0.0010
     19  C         22.7580  -23.5470   -9.2050 C.2     1  UNL1        0.0000
     20  C         21.5810  -24.2760   -9.0350 C.2     1  UNL1        0.0010
     21  C         20.5640  -23.7790   -8.2200 C.2     1  UNL1        0.0170
     22  S         17.5770  -21.3720  -11.3630 S.3     1  UNL1       -0.0730
     23  C         19.2090  -22.0880  -11.0220 C.3     1  UNL1        0.1860
     24  C         20.3280  -21.2840  -11.6690 C.2     1  UNL1        0.2310
     25  O         20.2490  -20.0600  -11.7400 O.2     1  UNL1       -0.2720
     26  N         21.3860  -22.0680  -12.1000 N.am    1  UNL1       -0.3270
     27  H         21.2660  -23.0720  -12.0150 H       1  UNL1        0.1690
     28  C         22.5760  -21.6430  -12.7240 C.2     1  UNL1        0.0340
     29  C         22.6220  -20.9940  -13.9590 C.2     1  UNL1        0.0290
     30  C         23.8490  -20.6070  -14.5100 C.2     1  UNL1        0.0020
     31  C         25.0380  -20.8670  -13.8310 C.2     1  UNL1        0.0000
     32  C         25.0020  -21.5110  -12.5970 C.2     1  UNL1        0.0020
     33  C         23.7770  -21.8960  -12.0470 C.2     1  UNL1        0.0290
@<TRIPOS>BOND
     1    30    29    1
     2    30    31    2
     3    29    28    2
     4    31    32    1
     5    28    26    1
     6    28    33    1
     7    32    33    2
     8    26    27    1
     9    26    24   am
    10    25    24    2
    11    24    23    1
    12    22    23    1
    13    22     1    1
    14     2     1   ar
    15     2     3   ar
    16     1     5   ar
    17    19    20    2
    18    19    18    1
    19    20    21    1
    20     3     4   ar
    21     5     4   ar
    22    18    17    2
    23    21    16    2
    24     4     6    1
    25    17    16    1
    26    16    13    1
    27    15    12    1
    28    13    12   am
    29    13    14    2
    30    12    11    1
    31     6    11    2
    32     6     7    1
    33    11    10    1
    34     7     8    2
    35    10     9    2
    36     8     9    1
