@<TRIPOS>MOLECULE
59409_out_ligand_01.pdbqt
 36 40 0 0 0
SMALL
GASTEIGER

@<TRIPOS>ATOM
      1  C         23.4170  -22.1220  -11.6030 C.2     1  UNL1        0.0800
      2  C         22.1510  -22.1160  -12.1880 C.2     1  UNL1        0.0270
      3  C         21.0190  -21.9920  -11.3780 C.2     1  UNL1        0.0310
      4  C         21.1430  -21.8810   -9.9850 C.2     1  UNL1        0.0340
      5  C         22.4170  -21.9020   -9.4120 C.2     1  UNL1        0.0310
      6  C         23.5560  -22.0270  -10.2170 C.2     1  UNL1        0.0270
      7  N         19.9490  -21.7580   -9.2480 N.am    1  UNL1       -0.3260
      8  C         19.5390  -22.5090   -8.1550 C.2     1  UNL1        0.2350
      9  O         20.1710  -23.4230   -7.6280 O.2     1  UNL1       -0.2720
     10  H         19.3120  -21.0310   -9.5540 H       1  UNL1        0.1690
     11  C         18.1610  -22.1000   -7.6000 C.2     1  UNL1        0.1490
     12  C         17.0740  -23.0230   -8.1000 C.2     1  UNL1       -0.0070
     13  C         16.7500  -23.0770   -9.4650 C.3     1  UNL1        0.0110
     14  C         16.3930  -23.8530   -7.2060 C.2     1  UNL1        0.0830
     15  C         15.7660  -23.9540   -9.9240 C.2     1  UNL1        0.0010
     16  C         15.0990  -24.7840   -9.0250 C.2     1  UNL1        0.0030
     17  C         15.4130  -24.7340   -7.6680 C.2     1  UNL1        0.0380
     18  O         16.6360  -23.8720   -5.8550 O.2     1  UNL1       -0.3100
     19  C         17.4350  -22.8910   -5.3190 C.2     1  UNL1        0.0830
     20  C         17.4810  -22.8290   -3.9240 C.2     1  UNL1        0.0380
     21  C         18.1830  -21.9990   -6.0910 C.2     1  UNL1       -0.0070
     22  C         18.2680  -21.8670   -3.2920 C.2     1  UNL1        0.0030
     23  C         19.0100  -20.9670   -4.0540 C.2     1  UNL1        0.0010
     24  C         18.9690  -21.0310   -5.4480 C.2     1  UNL1        0.0110
     25  S         24.8660  -22.3050  -12.6130 S.O2    1  UNL1        0.2760
     26  O         25.0410  -23.7010  -12.9520 O.2     1  UNL1       -0.2000
     27  O         25.9290  -21.5860  -11.9350 O.2     1  UNL1       -0.2000
     28  N         24.5170  -21.4250  -13.9750 N.pl3   1  UNL1       -0.1090
     29  H         24.6660  -20.4290  -13.8710 H       1  UNL1        0.1980
     30  C         24.9550  -21.9260  -15.1930 C.cat   1  UNL1        0.7360
     31  N         26.1930  -21.5360  -15.5100 N.2     1  UNL1       -0.0740
     32  C         26.6010  -21.8770  -16.7450 C.2     1  UNL1        0.1380
     33  C         25.8070  -22.5400  -17.6540 C.2     1  UNL1        0.0470
     34  C         24.5270  -22.8440  -17.2330 C.2     1  UNL1        0.0510
     35  C         23.5720  -23.5450  -18.1530 C.3     1  UNL1        0.0710
     36  N         24.0780  -22.5200  -16.0040 N.2     1  UNL1       -0.0670
@<TRIPOS>BOND
     1    35    34    1
     2    33    34    1
     3    33    32    2
     4    34    36    2
     5    32    31    1
     6    36    30    1
     7    31    30    2
     8    30    28    1
     9    28    29    1
    10    28    25    1
    11    26    25    2
    12    25    27    2
    13    25     1    1
    14     2     1    2
    15     2     3    1
    16     1     6    1
    17     3     4    2
    18     6     5    2
    19     4     5    1
    20     4     7    1
    21    15    13    1
    22    15    16    2
    23    10     7    1
    24    13    12    1
    25     7     8   am
    26    16    17    1
    27     8     9    2
    28     8    11    1
    29    12    11    2
    30    12    14    1
    31    17    14    2
    32    11    21    1
    33    14    18    1
    34    21    24    1
    35    21    19    2
    36    18    19    1
    37    24    23    2
    38    19    20    1
    39    23    22    1
    40    20    22    2
