@<TRIPOS>MOLECULE
59431_out_ligand_01.pdbqt
 28 30 0 0 0
SMALL
GASTEIGER

@<TRIPOS>ATOM
      1  N         23.6720  -22.3300   -9.0130 N.pl3   1  UNL1       -0.3660
      2  H         24.3820  -22.9310   -8.6080 H       1  UNL1        0.1650
      3  C         23.8900  -22.0320  -10.3710 C.2     1  UNL1        0.0310
      4  C         22.9440  -22.2580  -11.3820 C.2     1  UNL1        0.0310
      5  C         23.2250  -21.9490  -12.7180 C.2     1  UNL1        0.0270
      6  C         24.4700  -21.4190  -13.0560 C.2     1  UNL1        0.0740
      7  C         25.4260  -21.1770  -12.0720 C.2     1  UNL1        0.0270
      8  C         25.1340  -21.4890  -10.7410 C.2     1  UNL1        0.0310
      9  S         24.8350  -21.0180  -14.7430 S.O2    1  UNL1        0.2390
     10  O         23.6810  -21.3340  -15.5490 O.2     1  UNL1       -0.2060
     11  O         26.1610  -21.5040  -15.0550 O.2     1  UNL1       -0.2060
     12  N         24.9730  -19.3410  -14.6670 N.3     1  UNL1       -0.2250
     13  H         25.8550  -18.9930  -15.0400 H       1  UNL1        0.1360
     14  H         24.1680  -18.9240  -15.1370 H       1  UNL1        0.1360
     15  C         22.7270  -21.8380   -8.1540 C.2     1  UNL1        0.0920
     16  C         21.4920  -22.2700   -7.8630 C.2     1  UNL1        0.0720
     17  C         20.7340  -23.4210   -8.4220 C.2     1  UNL1        0.1840
     18  O         21.3270  -24.4350   -8.7770 O.2     1  UNL1       -0.2880
     19  C         19.2640  -23.3550   -8.5130 C.2     1  UNL1        0.0250
     20  C         18.5270  -24.0800   -7.5670 C.2     1  UNL1        0.0160
     21  C         17.1380  -24.0240   -7.5850 C.2     1  UNL1        0.0020
     22  C         16.4900  -23.2490   -8.5460 C.2     1  UNL1        0.0120
     23  C         17.2140  -22.5230   -9.5070 C.2     1  UNL1       -0.0250
     24  C         16.5430  -21.7430  -10.4630 C.2     1  UNL1        0.0120
     25  C         18.6290  -22.5730   -9.5100 C.2     1  UNL1       -0.0120
     26  C         17.2500  -21.0140  -11.4200 C.2     1  UNL1        0.0010
     27  C         18.6380  -21.0570  -11.4350 C.2     1  UNL1        0.0010
     28  C         19.3210  -21.8270  -10.4930 C.2     1  UNL1        0.0130
@<TRIPOS>BOND
     1    10     9    2
     2    14    12    1
     3    11     9    2
     4    13    12    1
     5     9    12    1
     6     9     6    1
     7     6     5    2
     8     6     7    1
     9     5     4    1
    10     7     8    2
    11    27    26    1
    12    27    28    2
    13    26    24    2
    14     4     3    2
    15     8     3    1
    16    28    25    1
    17    24    23    1
    18     3     1    1
    19    25    23    1
    20    25    19    2
    21    23    22    2
    22     1     2    1
    23     1    15    1
    24    18    17    2
    25    22    21    1
    26    19    17    1
    27    19    20    1
    28    17    16    1
    29    15    16    2
    30    21    20    2
