@<TRIPOS>MOLECULE
59446_out_ligand_01.pdbqt
 29 31 0 0 0
SMALL
GASTEIGER

@<TRIPOS>ATOM
      1  N         24.3360  -23.3220  -10.7280 N.am    1  UNL1       -0.3530
      2  C         23.8360  -22.2210  -10.0710 C.2     1  UNL1        0.2510
      3  O         24.3790  -21.1240  -10.0910 O.2     1  UNL1       -0.2680
      4  H         23.9860  -24.2420  -10.4990 H       1  UNL1        0.1630
      5  C         25.5720  -23.2590  -11.4780 C.3     1  UNL1        0.1610
      6  C         25.3040  -23.1570  -12.9580 C.2     1  UNL1       -0.0400
      7  C         25.7250  -24.1810  -13.8220 C.2     1  UNL1        0.0100
      8  C         25.4860  -24.0970  -15.1950 C.2     1  UNL1        0.0250
      9  C         24.8260  -22.9780  -15.7080 C.2     1  UNL1        0.0740
     10  C         24.4050  -21.9470  -14.8640 C.2     1  UNL1        0.0250
     11  C         24.6360  -22.0430  -13.4910 C.2     1  UNL1        0.0100
     12  S         24.5300  -22.8440  -17.4490 S.O2    1  UNL1        0.2390
     13  O         25.7550  -23.1570  -18.1480 O.2     1  UNL1       -0.2060
     14  O         23.2720  -23.4830  -17.7580 O.2     1  UNL1       -0.2060
     15  N         24.2440  -21.1910  -17.6130 N.3     1  UNL1       -0.2250
     16  H         24.7680  -20.6270  -16.9460 H       1  UNL1        0.1360
     17  H         23.2380  -21.0270  -17.5390 H       1  UNL1        0.1360
     18  C         22.5850  -22.4180   -9.2800 C.2     1  UNL1        0.0320
     19  C         21.6860  -23.4050   -9.7010 C.2     1  UNL1        0.0180
     20  C         20.5080  -23.6440   -8.9840 C.2     1  UNL1        0.0130
     21  C         20.2040  -22.9070   -7.8310 C.2     1  UNL1       -0.0260
     22  C         21.1170  -21.9250   -7.4130 C.2     1  UNL1        0.0130
     23  C         22.3010  -21.6850   -8.1240 C.2     1  UNL1        0.0180
     24  C         18.9720  -23.1670   -7.0720 C.2     1  UNL1       -0.0260
     25  C         18.1920  -24.3070   -7.3250 C.2     1  UNL1        0.0120
     26  C         17.0230  -24.5530   -6.6020 C.2     1  UNL1        0.0010
     27  C         16.6140  -23.6610   -5.6150 C.2     1  UNL1        0.0000
     28  C         17.3710  -22.5230   -5.3500 C.2     1  UNL1        0.0010
     29  C         18.5410  -22.2800   -6.0710 C.2     1  UNL1        0.0120
@<TRIPOS>BOND
     1    13    12    2
     2    14    12    2
     3    15    17    1
     4    15    12    1
     5    15    16    1
     6    12     9    1
     7     9     8    2
     8     9    10    1
     9     8     7    1
    10    10    11    2
    11     7     6    2
    12    11     6    1
    13     6     5    1
    14     5     1    1
    15     1     4    1
    16     1     2   am
    17     3     2    2
    18     2    18    1
    19    19    18    2
    20    19    20    1
    21    18    23    1
    22    20    21    2
    23    23    22    2
    24    21    22    1
    25    21    24    1
    26    25    24    2
    27    25    26    1
    28    24    29    1
    29    26    27    2
    30    29    28    2
    31    27    28    1
