@<TRIPOS>MOLECULE
59465_out_ligand_01.pdbqt
 37 40 0 0 0
SMALL
GASTEIGER

@<TRIPOS>ATOM
      1  C         21.6530  -22.8700   -9.9530 C.2     1  UNL1        0.0750
      2  C         20.9820  -23.8790   -9.2630 C.2     1  UNL1        0.0270
      3  C         19.5950  -24.0060   -9.3980 C.2     1  UNL1        0.0310
      4  C         18.8630  -23.1300  -10.2110 C.2     1  UNL1        0.0310
      5  C         19.5610  -22.1050  -10.8740 C.2     1  UNL1        0.0310
      6  C         20.9460  -21.9680  -10.7480 C.2     1  UNL1        0.0270
      7  N         17.4710  -23.2180  -10.4010 N.pl3   1  UNL1       -0.3660
      8  H         17.1770  -24.0410  -10.9190 H       1  UNL1        0.1650
      9  C         16.4740  -22.4410   -9.8740 C.2     1  UNL1        0.0920
     10  C         15.8140  -22.5360   -8.7120 C.2     1  UNL1        0.0720
     11  C         15.9340  -23.5680   -7.6500 C.2     1  UNL1        0.1840
     12  O         15.9970  -24.7550   -7.9520 O.2     1  UNL1       -0.2880
     13  C         16.0320  -23.1560   -6.2370 C.2     1  UNL1        0.0250
     14  C         14.9890  -23.5360   -5.3810 C.2     1  UNL1        0.0160
     15  C         15.0420  -23.1950   -4.0350 C.2     1  UNL1        0.0020
     16  C         16.1330  -22.4790   -3.5430 C.2     1  UNL1        0.0120
     17  C         17.1860  -22.0860   -4.3890 C.2     1  UNL1       -0.0250
     18  C         18.2780  -21.3680   -3.8740 C.2     1  UNL1        0.0120
     19  C         17.1460  -22.4140   -5.7670 C.2     1  UNL1       -0.0120
     20  C         19.3310  -20.9740   -4.6990 C.2     1  UNL1        0.0010
     21  C         19.3060  -21.2900   -6.0510 C.2     1  UNL1        0.0010
     22  C         18.2280  -22.0020   -6.5800 C.2     1  UNL1        0.0130
     23  S         23.4180  -22.7210   -9.7900 S.O2    1  UNL1        0.2470
     24  O         23.7380  -21.3170   -9.6380 O.2     1  UNL1       -0.2050
     25  O         23.8420  -23.6960   -8.8080 O.2     1  UNL1       -0.2050
     26  N         23.9940  -23.2510  -11.2810 N.pl3   1  UNL1       -0.1640
     27  H         23.3080  -23.8310  -11.7590 H       1  UNL1        0.1470
     28  C         24.5590  -22.2780  -12.1290 C.2     1  UNL1        0.1250
     29  C         25.6590  -21.5370  -11.7880 C.2     1  UNL1        0.1030
     30  C         26.0230  -20.6020  -12.7180 C.2     1  UNL1        0.1710
     31  N         25.3800  -20.4150  -13.8840 N.2     1  UNL1       -0.1820
     32  C         24.3360  -21.2180  -14.1110 C.1     1  UNL1        0.2710
     33  N         23.8820  -22.1620  -13.2760 N.2     1  UNL1       -0.1940
     34  O         27.1170  -19.8210  -12.4040 O.2     1  UNL1       -0.3390
     35  C         26.8440  -18.8400  -11.4100 C.3     1  UNL1        0.2110
     36  O         23.7180  -21.0200  -15.3280 O.2     1  UNL1       -0.3240
     37  C         24.6300  -20.7690  -16.3870 C.3     1  UNL1        0.2130
@<TRIPOS>BOND
     1    37    36    1
     2    36    32    1
     3    32    31    2
     4    32    33    2
     5    31    30    2
     6    33    28    1
     7    30    34    1
     8    30    29    1
     9    34    35    1
    10    28    29    2
    11    28    26    1
    12    27    26    1
    13    26    23    1
    14     8     7    1
    15     5     6    1
    16     5     4    2
    17     6     1    2
    18     7     4    1
    19     7     9    1
    20     4     3    1
    21     1    23    1
    22     1     2    1
    23     9    10    2
    24    23    24    2
    25    23    25    2
    26     3     2    2
    27    10    11    1
    28    12    11    2
    29    11    13    1
    30    22    21    2
    31    22    19    1
    32    13    19    2
    33    13    14    1
    34    21    20    1
    35    19    17    1
    36    14    15    2
    37    20    18    2
    38    17    18    1
    39    17    16    2
    40    15    16    1
