@<TRIPOS>MOLECULE
59468_out_ligand_01.pdbqt
 37 40 0 0 0
SMALL
GASTEIGER

@<TRIPOS>ATOM
      1  C         16.6310  -21.8920  -10.1170 C.ar    1  UNL1        0.2310
      2  N         15.4940  -22.5300  -10.2670 N.ar    1  UNL1       -0.1140
      3  N         15.1200  -22.9670   -9.0150 N.ar    1  UNL1       -0.1200
      4  C         16.0550  -22.5620   -8.1760 C.ar    1  UNL1        0.2050
      5  O         17.0560  -21.8770   -8.8170 O.2     1  UNL1       -0.2630
      6  S         17.5320  -21.1540  -11.4030 S.3     1  UNL1       -0.0730
      7  C         19.1160  -22.0200  -11.2220 C.3     1  UNL1        0.1860
      8  C         20.3320  -21.2770  -11.7630 C.2     1  UNL1        0.2310
      9  O         20.3710  -20.0500  -11.6690 O.2     1  UNL1       -0.2720
     10  N         21.3590  -22.0800  -12.2240 N.am    1  UNL1       -0.3270
     11  H         21.1740  -23.0770  -12.2370 H       1  UNL1        0.1690
     12  C         22.6150  -21.6780  -12.7250 C.2     1  UNL1        0.0350
     13  C         22.6350  -21.0760  -13.9900 C.2     1  UNL1        0.0290
     14  C         23.8370  -20.6550  -14.5610 C.2     1  UNL1        0.0030
     15  C         25.0350  -20.8290  -13.8730 C.2     1  UNL1        0.0160
     16  C         25.0400  -21.4250  -12.6050 C.2     1  UNL1        0.0500
     17  C         23.8210  -21.8460  -12.0400 C.2     1  UNL1        0.0450
     18  C         26.3250  -21.6270  -11.8400 C.3     1  UNL1        0.4170
     19  F         27.1150  -22.5900  -12.3910 F       1  UNL1       -0.1660
     20  F         26.1160  -22.0050  -10.5470 F       1  UNL1       -0.1660
     21  F         27.1000  -20.5060  -11.7750 F       1  UNL1       -0.1660
     22  C         16.1450  -22.7340   -6.7220 C.2     1  UNL1        0.0460
     23  C         14.9320  -22.6480   -6.0020 C.2     1  UNL1        0.0180
     24  C         14.8950  -22.7730   -4.6150 C.2     1  UNL1        0.0010
     25  C         16.0740  -22.9880   -3.9160 C.2     1  UNL1        0.0020
     26  C         17.2870  -23.0800   -4.6030 C.2     1  UNL1        0.0300
     27  C         17.3490  -22.9630   -6.0020 C.2     1  UNL1        0.0490
     28  N         18.5850  -23.0590   -6.6960 N.am    1  UNL1       -0.3220
     29  C         19.5970  -22.1210   -6.7880 C.2     1  UNL1        0.2560
     30  O         19.6440  -21.0310   -6.2320 O.2     1  UNL1       -0.2670
     31  H         18.7710  -23.9600   -7.1210 H       1  UNL1        0.1690
     32  C         20.7580  -22.5300   -7.6320 C.2     1  UNL1        0.0320
     33  C         21.9370  -21.7730   -7.6930 C.2     1  UNL1        0.0170
     34  C         22.9970  -22.1970   -8.4990 C.2     1  UNL1        0.0010
     35  C         22.8880  -23.3770   -9.2350 C.2     1  UNL1        0.0000
     36  C         21.7250  -24.1430   -9.1640 C.2     1  UNL1        0.0010
     37  C         20.6630  -23.7240   -8.3600 C.2     1  UNL1        0.0170
@<TRIPOS>BOND
     1    14    13    1
     2    14    15    2
     3    13    12    2
     4    15    16    1
     5    12    10    1
     6    12    17    1
     7    16    17    2
     8    16    18    1
     9    19    18    1
    10    11    10    1
    11    10     8   am
    12    18    21    1
    13    18    20    1
    14     8     9    2
    15     8     7    1
    16     6     7    1
    17     6     1    1
    18     2     1   ar
    19     2     3   ar
    20     1     5   ar
    21    35    36    2
    22    35    34    1
    23    36    37    1
    24     3     4   ar
    25     5     4   ar
    26    34    33    2
    27    37    32    2
    28     4    22    1
    29    33    32    1
    30    32    29    1
    31    31    28    1
    32    29    28   am
    33    29    30    2
    34    22    27    2
    35    22    23    1
    36    28    27    1
    37    27    26    1
    38    23    24    2
    39    24    25    1
    40    26    25    2
