@<TRIPOS>MOLECULE
59463_out_ligand_01.pdbqt
 35 39 0 0 0
SMALL
GASTEIGER

@<TRIPOS>ATOM
      1  C         22.4190  -22.5080  -11.6700 C.3     1  UNL1        0.0980
      2  N         21.2990  -21.6020  -11.9080 N.pl3   1  UNL1       -0.2830
      3  C         20.1080  -21.9470  -11.2470 C.2     1  UNL1        0.0160
      4  C         18.8950  -21.4360  -11.7320 C.2     1  UNL1        0.0250
      5  C         17.6870  -21.7140  -11.0920 C.2     1  UNL1        0.0260
      6  C         17.6930  -22.4920   -9.9380 C.2     1  UNL1        0.0750
      7  C         18.8950  -22.9670   -9.4050 C.2     1  UNL1        0.0340
      8  C         20.1150  -22.6780  -10.0430 C.2     1  UNL1       -0.0270
      9  C         21.4110  -23.1850   -9.4460 C.3     1  UNL1        0.0490
     10  C         21.6630  -22.6750   -8.0530 C.3     1  UNL1       -0.0210
     11  C         22.5990  -21.7200   -8.0290 C.3     1  UNL1       -0.0290
     12  C         23.1250  -21.4400   -9.3990 C.3     1  UNL1        0.0340
     13  C         22.6730  -22.6880  -10.1750 C.3     1  UNL1        0.0230
     14  H         21.1430  -21.4250  -12.8980 H       1  UNL1        0.1280
     15  S         16.1700  -22.8770   -9.1140 S.O2    1  UNL1        0.2460
     16  O         15.1010  -22.3780   -9.9520 O.2     1  UNL1       -0.2060
     17  O         16.2100  -24.2560   -8.6780 O.2     1  UNL1       -0.2060
     18  N         16.2210  -21.8580   -7.7600 N.pl3   1  UNL1       -0.1780
     19  H         15.5350  -21.1110   -7.8900 H       1  UNL1        0.1460
     20  C         16.1980  -22.4820   -6.4730 C.2     1  UNL1        0.0610
     21  C         14.9930  -22.8700   -5.8870 C.2     1  UNL1        0.0270
     22  C         14.9990  -23.4480   -4.6140 C.2     1  UNL1        0.0020
     23  C         16.2020  -23.6290   -3.9250 C.2     1  UNL1        0.0030
     24  C         17.4050  -23.2290   -4.5060 C.2     1  UNL1        0.0440
     25  C         17.3960  -22.6560   -5.7730 C.2     1  UNL1        0.1380
     26  F         18.5560  -22.2830   -6.3340 F       1  UNL1       -0.2040
     27  C         23.6570  -22.0430  -12.4240 C.2     1  UNL1       -0.0370
     28  C         24.8860  -21.8200  -11.7810 C.2     1  UNL1        0.0090
     29  C         26.0140  -21.4060  -12.4970 C.2     1  UNL1        0.0030
     30  C         25.9350  -21.2090  -13.8760 C.2     1  UNL1        0.0360
     31  C         24.7190  -21.4350  -14.5310 C.2     1  UNL1        0.1030
     32  C         23.5870  -21.8520  -13.8160 C.2     1  UNL1        0.0450
     33  N         24.6260  -21.2380  -15.9840 N.pl3   1  UNL1       -0.1160
     34  O         24.0910  -22.1290  -16.6560 O.2     1  UNL1       -0.5320
     35  O         25.0910  -20.1890  -16.4510 O.2     1  UNL1       -0.5320
@<TRIPOS>BOND
     1    34    33    2
     2    35    33    2
     3    33    31    1
     4    31    30    2
     5    31    32    1
     6    30    29    1
     7    32    27    2
     8    14     2    1
     9    29    28    2
    10    27    28    1
    11    27     1    1
    12     2     1    1
    13     2     3    1
    14     4     3    2
    15     4     5    1
    16     1    13    1
    17     3     8    1
    18     5     6    2
    19    13     9    1
    20    13    12    1
    21     8     9    1
    22     8     7    2
    23    16    15    2
    24     6     7    1
    25     6    15    1
    26     9    10    1
    27    12    11    1
    28    15    17    2
    29    15    18    1
    30    10    11    1
    31    19    18    1
    32    18    20    1
    33    20    21    2
    34    20    25    1
    35    26    25    1
    36    21    22    1
    37    25    24    2
    38    22    23    2
    39    24    23    1
