@<TRIPOS>MOLECULE
59552_out_ligand_01.pdbqt
 26 28 0 0 0
SMALL
GASTEIGER

@<TRIPOS>ATOM
      1  N         20.1580  -23.0590   -7.9940 N.am    1  UNL1       -0.3230
      2  C         20.8680  -24.0320   -8.6730 C.2     1  UNL1        0.2570
      3  O         20.6390  -25.2330   -8.7190 O.2     1  UNL1       -0.2670
      4  H         20.4760  -22.1040   -8.1160 H       1  UNL1        0.1690
      5  C         19.0280  -23.2400   -7.1720 C.2     1  UNL1        0.0350
      6  C         18.1450  -24.3170   -7.2870 C.2     1  UNL1        0.0310
      7  C         17.0430  -24.4300   -6.4330 C.2     1  UNL1        0.0270
      8  C         16.8320  -23.4630   -5.4490 C.2     1  UNL1        0.0740
      9  C         17.6970  -22.3760   -5.3270 C.2     1  UNL1        0.0270
     10  C         18.7930  -22.2690   -6.1870 C.2     1  UNL1        0.0310
     11  S         15.4340  -23.6000   -4.3670 S.O2    1  UNL1        0.2390
     12  O         15.7840  -24.4760   -3.2730 O.2     1  UNL1       -0.2060
     13  O         14.2500  -23.7910   -5.1690 O.2     1  UNL1       -0.2060
     14  N         15.3680  -22.0510   -3.7090 N.3     1  UNL1       -0.2250
     15  H         15.6900  -22.0920   -2.7400 H       1  UNL1        0.1360
     16  H         15.8860  -21.3600   -4.2520 H       1  UNL1        0.1360
     17  C         22.0020  -23.4960   -9.4650 C.2     1  UNL1        0.0430
     18  C         23.2850  -23.8150   -8.9990 C.2     1  UNL1        0.0180
     19  C         24.4030  -23.4080   -9.7150 C.2     1  UNL1        0.0020
     20  C         24.2420  -22.6790  -10.8930 C.2     1  UNL1        0.0120
     21  C         22.9640  -22.3300  -11.3640 C.2     1  UNL1       -0.0250
     22  C         22.8270  -21.5810  -12.5450 C.2     1  UNL1        0.0120
     23  C         21.8110  -22.7250  -10.6420 C.2     1  UNL1       -0.0100
     24  C         21.5690  -21.2030  -13.0150 C.2     1  UNL1        0.0010
     25  C         20.4310  -21.5620  -12.3050 C.2     1  UNL1        0.0010
     26  C         20.5490  -22.3090  -11.1320 C.2     1  UNL1        0.0130
@<TRIPOS>BOND
     1    24    22    2
     2    24    25    1
     3    22    21    1
     4    25    26    2
     5    21    20    2
     6    21    23    1
     7    26    23    1
     8    20    19    1
     9    23    17    2
    10    19    18    2
    11    17    18    1
    12    17     2    1
    13     3     2    2
    14     2     1   am
    15     4     1    1
    16     1     5    1
    17     6     5    2
    18     6     7    1
    19     5    10    1
    20     7     8    2
    21    10     9    2
    22     8     9    1
    23     8    11    1
    24    13    11    2
    25    11    14    1
    26    11    12    2
    27    16    14    1
    28    14    15    1
