@<TRIPOS>MOLECULE
5955_out_ligand_01.pdbqt
 35 38 0 0 0
SMALL
GASTEIGER

@<TRIPOS>ATOM
      1  C         21.1770  -22.4080   -7.7430 C.ar    1  UNL1        0.1920
      2  N         21.1420  -21.3960   -6.9110 N.ar    1  UNL1       -0.1220
      3  N         19.9140  -21.4020   -6.3010 N.ar    1  UNL1       -0.1280
      4  C         19.2050  -22.4030   -6.7940 C.ar    1  UNL1        0.1660
      5  N         19.9820  -23.0740   -7.7180 N.ar    1  UNL1       -0.3070
      6  S         22.5250  -22.8530   -8.7270 S.3     1  UNL1       -0.0810
      7  C         23.0000  -21.2430   -9.4180 C.3     1  UNL1        0.1850
      8  C         23.9660  -21.4100  -10.5830 C.2     1  UNL1        0.2310
      9  N         23.3900  -21.9860  -11.7060 N.am    1  UNL1       -0.3260
     10  H         22.3720  -22.0200  -11.7060 H       1  UNL1        0.1690
     11  O         25.1390  -21.0610  -10.4710 O.2     1  UNL1       -0.2720
     12  C         24.0410  -22.3900  -12.8980 C.2     1  UNL1        0.0430
     13  C         24.9760  -23.4360  -12.9220 C.2     1  UNL1        0.0660
     14  C         25.6050  -23.7980  -14.1220 C.2     1  UNL1        0.1050
     15  C         25.3130  -23.1300  -15.3130 C.2     1  UNL1        0.0370
     16  C         24.3720  -22.1030  -15.3010 C.2     1  UNL1        0.0110
     17  C         23.7180  -21.7340  -14.1090 C.2     1  UNL1       -0.0350
     18  C         22.7230  -20.6040  -14.1770 C.3     1  UNL1        0.0500
     19  N         26.5910  -24.8830  -14.1300 N.pl3   1  UNL1       -0.1160
     20  O         26.8500  -25.4250  -15.2140 O.2     1  UNL1       -0.5320
     21  O         27.1160  -25.1900  -13.0500 O.2     1  UNL1       -0.5320
     22  C         19.6240  -24.2760   -8.4460 C.3     1  UNL1        0.1370
     23  C         19.7740  -24.1110   -9.9580 C.3     1  UNL1        0.0590
     24  C         19.0410  -22.8900  -10.4510 C.2     1  UNL1       -0.0570
     25  C         19.7210  -21.8990  -11.1750 C.2     1  UNL1        0.0070
     26  C         19.0380  -20.7770  -11.6500 C.2     1  UNL1        0.0010
     27  C         17.6690  -20.6410  -11.4120 C.2     1  UNL1        0.0000
     28  C         16.9830  -21.6260  -10.6970 C.2     1  UNL1        0.0010
     29  C         17.6640  -22.7460  -10.2180 C.2     1  UNL1        0.0070
     30  C         17.8580  -22.7640   -6.3820 C.2     1  UNL1        0.0290
     31  C         16.7490  -22.1370   -6.9560 C.2     1  UNL1        0.0180
     32  C         15.4680  -22.4830   -6.5340 C.2     1  UNL1        0.0200
     33  C         15.3370  -23.4530   -5.5550 C.2     1  UNL1        0.1160
     34  N         16.3840  -24.0980   -4.9920 N.2     1  UNL1       -0.2720
     35  C         17.6150  -23.7490   -5.4340 C.2     1  UNL1        0.1310
@<TRIPOS>BOND
     1    15    16    2
     2    15    14    1
     3    16    17    1
     4    20    19    2
     5    18    17    1
     6    19    14    1
     7    19    21    2
     8    14    13    2
     9    17    12    2
    10    13    12    1
    11    12     9    1
    12    10     9    1
    13     9     8   am
    14    26    27    2
    15    26    25    1
    16    27    28    1
    17    25    24    2
    18    28    29    2
    19     8    11    2
    20     8     7    1
    21    24    29    1
    22    24    23    1
    23    23    22    1
    24     7     6    1
    25     6     1    1
    26    22     5    1
    27     1     5   ar
    28     1     2   ar
    29     5     4   ar
    30    31    32    1
    31    31    30    2
    32     2     3   ar
    33     4    30    1
    34     4     3   ar
    35    32    33    2
    36    30    35    1
    37    33    34    1
    38    35    34    2
