@<TRIPOS>MOLECULE
59577_out_ligand_01.pdbqt
 32 34 0 0 0
SMALL
GASTEIGER

@<TRIPOS>ATOM
      1  C         19.0630  -22.1350   -9.7930 C.ar    1  UNL1        0.0800
      2  C         19.4520  -22.4150   -8.4870 C.ar    1  UNL1        0.0940
      3  S         21.1300  -22.3880   -8.2830 S.2     1  UNL1       -0.0650
      4  C         21.4080  -22.0220   -9.9200 C.ar    1  UNL1        0.0820
      5  C         20.2260  -21.8700  -10.6370 C.ar    1  UNL1       -0.0200
      6  C         20.1670  -21.4600  -12.0800 C.3     1  UNL1        0.0510
      7  N         18.6010  -22.6890   -7.4240 N.am    1  UNL1       -0.3160
      8  C         18.4630  -21.9770   -6.2500 C.2     1  UNL1        0.2570
      9  O         19.0350  -20.9530   -5.9020 O.2     1  UNL1       -0.2670
     10  H         17.9960  -23.4990   -7.5530 H       1  UNL1        0.1690
     11  C         17.4410  -22.5460   -5.3330 C.2     1  UNL1        0.0380
     12  C         16.4030  -23.2800   -5.9260 C.2     1  UNL1        0.0170
     13  C         15.4260  -23.8760   -5.1320 C.2     1  UNL1        0.0010
     14  C         15.4800  -23.7380   -3.7480 C.2     1  UNL1        0.0010
     15  C         16.5010  -22.9900   -3.1540 C.2     1  UNL1        0.0070
     16  C         17.4850  -22.3660   -3.9380 C.2     1  UNL1       -0.0460
     17  C         18.5430  -21.5430   -3.2570 C.3     1  UNL1        0.0490
     18  C         17.6430  -22.1250  -10.1770 C.2     1  UNL1        0.2960
     19  O         17.1250  -21.1880  -10.7770 O.2     1  UNL1       -0.2590
     20  O         16.9620  -23.2370   -9.7810 O.3     1  UNL1       -0.3220
     21  C         15.5750  -23.0150   -9.5190 C.3     1  UNL1        0.2130
     22  C         22.7900  -21.9070  -10.3710 C.2     1  UNL1        0.2630
     23  O         23.6190  -21.2290   -9.7770 O.2     1  UNL1       -0.2670
     24  N         23.0260  -22.6510  -11.5180 N.am    1  UNL1       -0.3220
     25  H         22.2540  -23.2270  -11.8210 H       1  UNL1        0.1690
     26  C         24.2160  -22.7510  -12.2750 C.2     1  UNL1        0.0410
     27  C         25.3130  -23.5120  -11.8540 C.2     1  UNL1        0.0300
     28  C         26.4770  -23.5820  -12.6230 C.2     1  UNL1        0.0020
     29  C         26.5640  -22.8910  -13.8250 C.2     1  UNL1        0.0010
     30  C         25.4850  -22.1260  -14.2570 C.2     1  UNL1        0.0090
     31  C         24.3050  -22.0440  -13.4950 C.2     1  UNL1       -0.0350
     32  C         23.1760  -21.2000  -14.0230 C.3     1  UNL1        0.0500
@<TRIPOS>BOND
     1    30    29    2
     2    30    31    1
     3    32    31    1
     4    29    28    1
     5    31    26    2
     6    28    27    2
     7    26    27    1
     8    26    24    1
     9     6     5    1
    10    25    24    1
    11    24    22   am
    12    19    18    2
    13     5     4   ar
    14     5     1   ar
    15    22     4    1
    16    22    23    2
    17    18     1    1
    18    18    20    1
    19     4     3   ar
    20     1     2   ar
    21    20    21    1
    22     2     3   ar
    23     2     7    1
    24    10     7    1
    25     7     8   am
    26     8     9    2
    27     8    11    1
    28    12    11    2
    29    12    13    1
    30    11    16    1
    31    13    14    2
    32    16    17    1
    33    16    15    2
    34    14    15    1
