@<TRIPOS>MOLECULE
5977_out_ligand_01.pdbqt
 35 39 0 0 0
SMALL
GASTEIGER

@<TRIPOS>ATOM
      1  C         23.8020  -21.6760  -10.5420 C.ar    1  UNL1        0.1920
      2  N         25.0420  -21.2550  -10.4870 N.ar    1  UNL1       -0.1220
      3  N         25.5190  -21.1930  -11.7690 N.ar    1  UNL1       -0.1280
      4  C         24.5600  -21.5810  -12.5920 C.ar    1  UNL1        0.1660
      5  N         23.4470  -21.9070  -11.8430 N.ar    1  UNL1       -0.3070
      6  S         22.7610  -21.9150   -9.1860 S.3     1  UNL1       -0.0810
      7  C         22.6510  -23.7320   -9.1610 C.3     1  UNL1        0.1850
      8  C         21.2890  -24.1830   -8.6470 C.2     1  UNL1        0.2310
      9  O         20.9090  -25.3360   -8.8440 O.2     1  UNL1       -0.2720
     10  N         20.5960  -23.1890   -7.9730 N.am    1  UNL1       -0.3260
     11  H         20.9790  -22.2510   -8.0690 H       1  UNL1        0.1690
     12  C         19.3530  -23.2960   -7.2910 C.2     1  UNL1        0.0450
     13  C         18.4700  -24.3500   -7.5610 C.2     1  UNL1        0.0300
     14  C         17.2560  -24.4660   -6.8920 C.2     1  UNL1        0.0030
     15  C         16.8970  -23.5240   -5.9360 C.2     1  UNL1        0.0120
     16  C         17.7510  -22.4600   -5.6280 C.2     1  UNL1       -0.0240
     17  C         17.3590  -21.5320   -4.6480 C.2     1  UNL1        0.0120
     18  C         19.0020  -22.3270   -6.2920 C.2     1  UNL1        0.0010
     19  C         18.1830  -20.4630   -4.2930 C.2     1  UNL1        0.0010
     20  C         19.4130  -20.3130   -4.9140 C.2     1  UNL1        0.0010
     21  C         19.8110  -21.2310   -5.8950 C.2     1  UNL1        0.0140
     22  C         22.1650  -22.3580  -12.3480 C.3     1  UNL1        0.1370
     23  C         21.1930  -21.1990  -12.5730 C.3     1  UNL1        0.0590
     24  C         19.8750  -21.4470  -11.8870 C.2     1  UNL1       -0.0570
     25  C         19.5980  -22.6970  -11.3150 C.2     1  UNL1        0.0070
     26  C         18.3710  -22.9310  -10.6890 C.2     1  UNL1        0.0010
     27  C         17.4110  -21.9200  -10.6340 C.2     1  UNL1        0.0000
     28  C         17.6740  -20.6800  -11.2100 C.2     1  UNL1        0.0010
     29  C         18.9000  -20.4420  -11.8360 C.2     1  UNL1        0.0070
     30  C         24.6520  -21.6220  -14.0400 C.2     1  UNL1        0.0290
     31  C         25.0810  -22.7770  -14.6980 C.2     1  UNL1        0.0180
     32  C         25.1910  -22.7770  -16.0870 C.2     1  UNL1        0.0200
     33  C         24.8610  -21.6210  -16.7750 C.2     1  UNL1        0.1160
     34  N         24.4230  -20.4910  -16.1760 N.2     1  UNL1       -0.2720
     35  C         24.3130  -20.5240  -14.8240 C.2     1  UNL1        0.1310
@<TRIPOS>BOND
     1    33    34    2
     2    33    32    1
     3    34    35    1
     4    32    31    2
     5    35    30    2
     6    31    30    1
     7    30     4    1
     8     4     5   ar
     9     4     3   ar
    10    23    22    1
    11    23    24    1
    12    22     5    1
    13    24    29    2
    14    24    25    1
    15     5     1   ar
    16    29    28    1
    17     3     2   ar
    18    25    26    2
    19    28    27    2
    20    26    27    1
    21     1     2   ar
    22     1     6    1
    23     6     7    1
    24     7     8    1
    25     9     8    2
    26     8    10   am
    27    11    10    1
    28    10    12    1
    29    13    12    2
    30    13    14    1
    31    12    18    1
    32    14    15    2
    33    18    21    1
    34    18    16    2
    35    15    16    1
    36    21    20    2
    37    16    17    1
    38    20    19    1
    39    17    19    2
