@<TRIPOS>MOLECULE
59804_out_ligand_01.pdbqt
 44 49 0 0 0
SMALL
GASTEIGER

@<TRIPOS>ATOM
      1  C         19.0570  -22.1710  -11.1520 C.2     1  UNL1        0.0450
      2  C         19.3630  -21.2650  -12.1690 C.2     1  UNL1        0.0300
      3  C         20.6800  -21.0200  -12.5290 C.2     1  UNL1        0.0030
      4  C         21.7140  -21.6860  -11.8780 C.2     1  UNL1        0.0140
      5  C         21.4800  -22.6270  -10.8430 C.2     1  UNL1        0.0030
      6  C         22.5400  -23.3280  -10.1700 C.2     1  UNL1        0.0450
      7  C         22.2340  -24.2270   -9.1450 C.2     1  UNL1        0.0300
      8  C         20.9200  -24.4510   -8.7670 C.2     1  UNL1        0.0030
      9  C         19.8860  -23.7840   -9.4170 C.2     1  UNL1        0.0140
     10  C         20.1170  -22.8590  -10.4660 C.2     1  UNL1        0.0030
     11  N         17.7050  -22.4160  -10.7840 N.am    1  UNL1       -0.3260
     12  C         16.6400  -21.5240  -10.7320 C.2     1  UNL1        0.2310
     13  O         16.6940  -20.3150  -10.9580 O.2     1  UNL1       -0.2720
     14  H         17.4390  -23.3750  -10.6210 H       1  UNL1        0.1690
     15  C         15.3400  -22.1640  -10.2480 C.3     1  UNL1        0.1850
     16  S         15.6050  -23.8010   -9.4810 S.3     1  UNL1       -0.0830
     17  C         16.1680  -23.3230   -7.9240 C.ar    1  UNL1        0.1680
     18  N         15.5080  -23.7160   -6.7960 N.ar    1  UNL1       -0.3330
     19  C         16.1670  -23.1720   -5.7220 C.ar    1  UNL1        0.0630
     20  H         14.6730  -24.2820   -6.7700 H       1  UNL1        0.1680
     21  C         15.9400  -23.2300   -4.3470 C.2     1  UNL1        0.0320
     22  C         17.2330  -22.4800   -6.2910 C.ar    1  UNL1        0.0860
     23  C         16.8490  -22.5410   -3.5310 C.2     1  UNL1        0.0090
     24  C         17.9340  -21.8250   -4.0670 C.2     1  UNL1       -0.0600
     25  C         18.8880  -21.1150   -3.1530 C.3     1  UNL1        0.0480
     26  C         18.1360  -21.8000   -5.4580 C.2     1  UNL1        0.0400
     27  N         17.2180  -22.5880   -7.6620 N.ar    1  UNL1       -0.2230
     28  N         23.8900  -23.1440  -10.5860 N.am    1  UNL1       -0.3260
     29  C         24.6940  -22.0210  -10.4140 C.2     1  UNL1        0.2310
     30  O         24.3270  -20.9380   -9.9660 O.2     1  UNL1       -0.2720
     31  H         24.3020  -23.8930  -11.1150 H       1  UNL1        0.1690
     32  C         26.1410  -22.2910  -10.8270 C.3     1  UNL1        0.1850
     33  S         26.8430  -20.9150  -11.7770 S.3     1  UNL1       -0.0830
     34  C         26.2390  -21.3320  -13.3350 C.ar    1  UNL1        0.1680
     35  N         25.3390  -22.2460  -13.6080 N.ar    1  UNL1       -0.2230
     36  C         25.2140  -22.2030  -14.9780 C.ar    1  UNL1        0.0860
     37  C         24.4190  -22.9840  -15.8330 C.2     1  UNL1        0.0400
     38  C         26.0290  -21.2130  -15.5260 C.ar    1  UNL1        0.0630
     39  C         24.4580  -22.7400  -17.2180 C.2     1  UNL1       -0.0600
     40  C         23.6450  -23.5910  -18.1530 C.3     1  UNL1        0.0480
     41  C         25.2950  -21.7360  -17.7280 C.2     1  UNL1        0.0090
     42  C         26.0970  -20.9460  -16.8930 C.2     1  UNL1        0.0320
     43  N         26.6650  -20.6630  -14.4420 N.ar    1  UNL1       -0.3330
     44  H         27.3110  -19.8860  -14.4430 H       1  UNL1        0.1680
@<TRIPOS>BOND
     1    40    39    1
     2    41    39    2
     3    41    42    1
     4    39    37    1
     5    42    38    2
     6    37    36    2
     7    38    36   ar
     8    38    43   ar
     9    36    35   ar
    10    44    43    1
    11    43    34   ar
    12    35    34   ar
    13    34    33    1
    14     3     2    1
    15     3     4    2
    16     2     1    2
    17     4     5    1
    18    33    32    1
    19     1    11    1
    20     1    10    1
    21    31    28    1
    22    13    12    2
    23     5    10    2
    24     5     6    1
    25    32    29    1
    26    11    12   am
    27    11    14    1
    28    12    15    1
    29    28    29   am
    30    28     6    1
    31    10     9    1
    32    29    30    2
    33    15    16    1
    34     6     7    2
    35    16    17    1
    36     9     8    2
    37     7     8    1
    38    17    27   ar
    39    17    18   ar
    40    27    22   ar
    41    18    20    1
    42    18    19   ar
    43    22    19   ar
    44    22    26    1
    45    19    21    1
    46    26    24    2
    47    21    23    2
    48    24    23    1
    49    24    25    1
