@<TRIPOS>MOLECULE
59923_out_ligand_01.pdbqt
 34 37 0 0 0
SMALL
GASTEIGER

@<TRIPOS>ATOM
      1  C         21.7820  -23.2510   -8.7500 C.2     1  UNL1        0.0800
      2  C         21.1560  -22.3070   -7.9350 C.2     1  UNL1        0.0270
      3  C         19.9320  -22.6170   -7.3280 C.2     1  UNL1        0.0310
      4  C         19.3210  -23.8620   -7.5250 C.2     1  UNL1        0.0310
      5  C         19.9860  -24.8020   -8.3330 C.2     1  UNL1        0.0310
      6  C         21.2090  -24.5060   -8.9420 C.2     1  UNL1        0.0270
      7  N         18.1050  -24.2420   -6.9270 N.pl3   1  UNL1       -0.3660
      8  H         18.0590  -25.2240   -6.6720 H       1  UNL1        0.1650
      9  C         16.9520  -23.5210   -6.7650 C.2     1  UNL1        0.0920
     10  C         16.0670  -23.0920   -7.6740 C.2     1  UNL1        0.0720
     11  C         16.0980  -23.3020   -9.1430 C.2     1  UNL1        0.1830
     12  O         15.4310  -24.2090   -9.6340 O.2     1  UNL1       -0.2880
     13  C         16.9410  -22.4500  -10.0160 C.2     1  UNL1        0.0170
     14  C         16.4870  -21.2010  -10.4960 C.2     1  UNL1        0.0180
     15  C         17.3060  -20.4160  -11.3150 C.2     1  UNL1        0.0400
     16  C         18.5610  -20.8970  -11.6190 C.2     1  UNL1        0.1050
     17  C         19.0120  -22.1050  -11.1360 C.2     1  UNL1        0.1050
     18  O         19.4860  -20.2720  -12.3940 O.2     1  UNL1       -0.3230
     19  C         18.2310  -22.9030  -10.3280 C.2     1  UNL1        0.0550
     20  O         20.2750  -22.3880  -11.5510 O.2     1  UNL1       -0.3230
     21  C         20.5780  -21.2130  -12.3320 C.3     1  UNL1        0.3520
     22  S         23.3510  -22.8630   -9.4880 S.O2    1  UNL1        0.2760
     23  O         24.3780  -23.6940   -8.8960 O.2     1  UNL1       -0.2000
     24  O         23.4740  -21.4190   -9.4430 O.2     1  UNL1       -0.2000
     25  N         23.1470  -23.2510  -11.0880 N.pl3   1  UNL1       -0.1090
     26  H         22.2290  -23.0240  -11.4510 H       1  UNL1        0.1980
     27  C         24.1760  -22.9290  -11.9630 C.cat   1  UNL1        0.7360
     28  N         25.1320  -23.8260  -12.2010 N.2     1  UNL1       -0.0670
     29  C         26.0100  -23.5120  -13.1720 C.2     1  UNL1        0.0510
     30  C         25.9040  -22.3510  -13.9150 C.2     1  UNL1        0.0540
     31  C         27.1190  -24.4840  -13.4390 C.3     1  UNL1        0.0710
     32  C         24.8400  -21.5190  -13.6190 C.2     1  UNL1        0.0510
     33  C         24.6390  -20.2480  -14.3880 C.3     1  UNL1        0.0710
     34  N         23.9480  -21.8080  -12.6520 N.2     1  UNL1       -0.0670
@<TRIPOS>BOND
     1    33    32    1
     2    30    32    1
     3    30    29    2
     4    32    34    2
     5    31    29    1
     6    29    28    1
     7    34    27    1
     8    18    21    1
     9    18    16    1
    10    21    20    1
    11    28    27    2
    12    27    25    1
    13    16    15    2
    14    16    17    1
    15    20    17    1
    16    26    25    1
    17    15    14    1
    18    17    19    2
    19    25    22    1
    20    14    13    2
    21    19    13    1
    22    13    11    1
    23    12    11    2
    24    22    24    2
    25    22    23    2
    26    22     1    1
    27    11    10    1
    28     6     1    2
    29     6     5    1
    30     1     2    1
    31     5     4    2
    32     2     3    2
    33    10     9    2
    34     4     3    1
    35     4     7    1
    36     7     9    1
    37     7     8    1
