@<TRIPOS>MOLECULE
59953_out_ligand_01.pdbqt
 33 35 0 0 0
SMALL
GASTEIGER

@<TRIPOS>ATOM
      1  C         19.0100  -22.2010   -9.7860 C.ar    1  UNL1        0.0800
      2  C         19.4440  -22.5700   -8.5170 C.ar    1  UNL1        0.0940
      3  S         21.1290  -22.5290   -8.3670 S.2     1  UNL1       -0.0650
      4  C         21.3470  -22.0740   -9.9900 C.ar    1  UNL1        0.0820
      5  C         20.1400  -21.8860  -10.6550 C.ar    1  UNL1       -0.0200
      6  C         20.0280  -21.3930  -12.0670 C.3     1  UNL1        0.0510
      7  C         22.7120  -21.9270  -10.4830 C.2     1  UNL1        0.2630
      8  O         23.5460  -21.2470   -9.8990 O.2     1  UNL1       -0.2670
      9  N         22.9200  -22.6380  -11.6540 N.am    1  UNL1       -0.3220
     10  H         22.1440  -23.2170  -11.9420 H       1  UNL1        0.1690
     11  C         24.0860  -22.7080  -12.4540 C.2     1  UNL1        0.0410
     12  C         25.1720  -23.5190  -12.1110 C.2     1  UNL1        0.0300
     13  C         26.3110  -23.5700  -12.9110 C.2     1  UNL1        0.0030
     14  C         26.3830  -22.8080  -14.0700 C.2     1  UNL1        0.0070
     15  C         25.3170  -21.9800  -14.4490 C.2     1  UNL1       -0.0540
     16  C         25.4580  -21.1820  -15.7180 C.3     1  UNL1        0.0490
     17  C         24.1560  -21.9200  -13.6360 C.2     1  UNL1       -0.0290
     18  C         22.9970  -21.0320  -14.0280 C.3     1  UNL1        0.0510
     19  N         18.6320  -22.9100   -7.4430 N.am    1  UNL1       -0.3160
     20  C         18.4200  -22.1850   -6.2860 C.2     1  UNL1        0.2560
     21  O         18.9760  -21.1510   -5.9400 O.2     1  UNL1       -0.2670
     22  H         18.2170  -23.8380   -7.5070 H       1  UNL1        0.1690
     23  C         17.4280  -22.7870   -5.3480 C.2     1  UNL1        0.0350
     24  C         17.7450  -23.0710   -4.0100 C.2     1  UNL1        0.0170
     25  C         16.7860  -23.6380   -3.1670 C.2     1  UNL1        0.0040
     26  C         15.5140  -23.9300   -3.6570 C.2     1  UNL1        0.0420
     27  C         15.2120  -23.6620   -4.9890 C.2     1  UNL1        0.1170
     28  F         13.9910  -23.9500   -5.4550 F       1  UNL1       -0.2060
     29  C         16.1550  -23.0990   -5.8390 C.2     1  UNL1        0.0590
     30  C         17.5770  -22.1580  -10.1110 C.2     1  UNL1        0.2960
     31  O         17.0480  -21.1880  -10.6490 O.2     1  UNL1       -0.2590
     32  O         16.8970  -23.2790   -9.7400 O.3     1  UNL1       -0.3220
     33  C         15.4990  -23.0790   -9.5280 C.3     1  UNL1        0.2130
@<TRIPOS>BOND
     1    16    15    1
     2    15    14    2
     3    15    17    1
     4    14    13    1
     5    18    17    1
     6    17    11    2
     7    13    12    2
     8    11    12    1
     9    11     9    1
    10     6     5    1
    11    10     9    1
    12     9     7   am
    13     5     4   ar
    14     5     1   ar
    15    31    30    2
    16     7     4    1
    17     7     8    2
    18    30     1    1
    19    30    32    1
    20     4     3   ar
    21     1     2   ar
    22    32    33    1
    23     2     3   ar
    24     2    19    1
    25    22    19    1
    26    19    20   am
    27    20    21    2
    28    20    23    1
    29    29    23    2
    30    29    27    1
    31    28    27    1
    32    23    24    1
    33    27    26    2
    34    24    25    2
    35    26    25    1
