@<TRIPOS>MOLECULE
6001_out_ligand_01.pdbqt
 37 41 0 0 0
SMALL
GASTEIGER

@<TRIPOS>ATOM
      1  S         17.8210  -20.9540  -11.2330 S.3     1  UNL1       -0.0800
      2  C         19.1060  -22.0590  -11.8730 C.3     1  UNL1        0.1850
      3  C         20.5000  -21.4730  -11.7080 C.2     1  UNL1        0.2320
      4  N         21.4940  -22.4290  -11.8550 N.am    1  UNL1       -0.3200
      5  H         21.2950  -23.3920  -11.6080 H       1  UNL1        0.1690
      6  O         20.6850  -20.2810  -11.4690 O.2     1  UNL1       -0.2720
      7  C         22.8280  -22.1180  -11.9980 C.ar    1  UNL1        0.0920
      8  C         23.5870  -21.5300  -13.0020 C.ar    1  UNL1        0.0670
      9  C         24.9240  -21.3750  -12.5400 C.ar    1  UNL1       -0.0270
     10  C         25.1240  -21.9370  -11.3070 C.ar    1  UNL1       -0.0080
     11  C         26.2020  -20.8520  -13.0920 C.3     1  UNL1        0.0410
     12  S         23.7550  -22.6130  -10.6370 S.2     1  UNL1       -0.0750
     13  C         26.5260  -21.8830  -10.8380 C.3     1  UNL1        0.0470
     14  C         27.1210  -20.8410  -11.8330 C.3     1  UNL1        0.0100
     15  C         23.0950  -21.1940  -14.3300 C.2     1  UNL1        0.2320
     16  N         22.2400  -20.1260  -14.3670 N.am    1  UNL1       -0.2680
     17  H         21.6770  -20.1310  -15.2060 H       1  UNL1        0.1270
     18  H         21.7420  -19.9310  -13.5100 H       1  UNL1        0.1270
     19  O         23.4120  -21.7970  -15.3500 O.2     1  UNL1       -0.2740
     20  C         16.9320  -22.0730  -10.2480 C.ar    1  UNL1        0.1960
     21  N         15.6190  -22.1670  -10.2810 N.ar    1  UNL1       -0.1220
     22  N         15.2380  -23.0230   -9.2960 N.ar    1  UNL1       -0.1330
     23  C         16.3170  -23.4500   -8.6670 C.ar    1  UNL1        0.1390
     24  N         17.4470  -22.8560   -9.2290 N.ar    1  UNL1       -0.2750
     25  C         16.3000  -24.5320   -7.6340 C.3     1  UNL1        0.1190
     26  C         16.3140  -24.0370   -6.2040 C.2     1  UNL1       -0.0510
     27  C         15.1620  -23.4470   -5.6590 C.2     1  UNL1        0.0070
     28  C         15.1660  -22.9460   -4.3570 C.2     1  UNL1        0.0010
     29  C         16.3220  -23.0140   -3.5840 C.2     1  UNL1        0.0000
     30  C         17.4790  -23.5800   -4.1150 C.2     1  UNL1        0.0010
     31  C         17.4780  -24.0780   -5.4200 C.2     1  UNL1        0.0070
     32  C         18.8010  -23.0120   -8.8320 C.2     1  UNL1        0.0430
     33  C         19.4140  -22.0580   -8.0110 C.2     1  UNL1        0.0300
     34  C         20.7480  -22.2190   -7.6270 C.2     1  UNL1        0.0020
     35  C         21.4680  -23.3300   -8.0600 C.2     1  UNL1        0.0000
     36  C         20.8580  -24.2870   -8.8650 C.2     1  UNL1        0.0020
     37  C         19.5260  -24.1330   -9.2540 C.2     1  UNL1        0.0300
@<TRIPOS>BOND
     1    19    15    2
     2    17    16    1
     3    16    15   am
     4    16    18    1
     5    15     8    1
     6    11     9    1
     7    11    14    1
     8     8     9   ar
     9     8     7   ar
    10     9    10   ar
    11     7     4    1
    12     7    12   ar
    13     2     3    1
    14     2     1    1
    15     4     3   am
    16     4     5    1
    17    14    13    1
    18     3     6    2
    19    10    13    1
    20    10    12   ar
    21     1    20    1
    22    21    20   ar
    23    21    22   ar
    24    20    24   ar
    25    22    23   ar
    26    37    36    1
    27    37    32    2
    28    24    32    1
    29    24    23   ar
    30    36    35    2
    31    32    33    1
    32    23    25    1
    33    35    34    1
    34    33    34    2
    35    25    26    1
    36    26    27    2
    37    26    31    1
    38    27    28    1
    39    31    30    2
    40    28    29    2
    41    30    29    1
