@<TRIPOS>MOLECULE
60111_out_ligand_01.pdbqt
 32 35 0 0 0
SMALL
GASTEIGER

@<TRIPOS>ATOM
      1  C         20.7550  -21.4560  -11.8240 C.ar    1  UNL1        0.0620
      2  C         20.6050  -22.1930  -10.6610 C.ar    1  UNL1        0.1020
      3  S         22.0240  -23.1040  -10.3320 S.2     1  UNL1       -0.0620
      4  C         22.8120  -22.5240  -11.7220 C.ar    1  UNL1        0.1110
      5  N         24.0630  -22.9360  -12.0130 N.2     1  UNL1       -0.2450
      6  C         24.5780  -22.3910  -13.1330 C.2     1  UNL1        0.0420
      7  C         23.9150  -21.4790  -13.9550 C.2     1  UNL1       -0.0330
      8  C         22.6140  -21.0970  -13.6210 C.2     1  UNL1        0.0260
      9  C         22.0320  -21.6360  -12.4520 C.ar    1  UNL1        0.0280
     10  C         24.6070  -20.9830  -15.1930 C.3     1  UNL1        0.0400
     11  C         26.0730  -20.6410  -14.9150 C.3     1  UNL1        0.0050
     12  C         26.7990  -21.6150  -13.9730 C.3     1  UNL1        0.0060
     13  C         25.9640  -22.8220  -13.5480 C.3     1  UNL1        0.0600
     14  C         19.4330  -22.2590   -9.7840 C.2     1  UNL1        0.2650
     15  O         18.3140  -21.9400  -10.1810 O.2     1  UNL1       -0.2670
     16  N         19.6950  -22.7130   -8.4980 N.am    1  UNL1       -0.3220
     17  H         20.6630  -22.9540   -8.3170 H       1  UNL1        0.1690
     18  C         18.7980  -22.8800   -7.4250 C.2     1  UNL1        0.0350
     19  C         18.6650  -21.9790   -6.3640 C.2     1  UNL1        0.0310
     20  C         17.7480  -22.2220   -5.3360 C.2     1  UNL1        0.0270
     21  C         16.9530  -23.3690   -5.3740 C.2     1  UNL1        0.0740
     22  C         17.0810  -24.2850   -6.4170 C.2     1  UNL1        0.0270
     23  C         18.0010  -24.0360   -7.4390 C.2     1  UNL1        0.0310
     24  S         15.7960  -23.6650   -4.0640 S.O2    1  UNL1        0.2390
     25  O         16.3730  -24.6230   -3.1530 O.2     1  UNL1       -0.2060
     26  O         14.4810  -23.8310   -4.6420 O.2     1  UNL1       -0.2060
     27  N         15.7630  -22.1660   -3.2970 N.3     1  UNL1       -0.2250
     28  H         15.0070  -22.0720   -2.6210 H       1  UNL1        0.1360
     29  H         16.6780  -21.9890   -2.8780 H       1  UNL1        0.1360
     30  N         19.7940  -20.6420  -12.3180 N.pl3   1  UNL1       -0.3970
     31  H         19.9830  -19.6960  -12.6300 H       1  UNL1        0.1560
     32  H         18.9470  -21.0450  -12.7310 H       1  UNL1        0.1560
@<TRIPOS>BOND
     1    10    11    1
     2    10     7    1
     3    11    12    1
     4    12    13    1
     5     7     8    2
     6     7     6    1
     7     8     9    1
     8    13     6    1
     9     6     5    2
    10    32    30    1
    11    31    30    1
    12     9     1   ar
    13     9     4   ar
    14    30     1    1
    15     5     4    1
    16     1     2   ar
    17     4     3   ar
    18     2     3   ar
    19     2    14    1
    20    15    14    2
    21    14    16   am
    22    16    17    1
    23    16    18    1
    24    23    18    2
    25    23    22    1
    26    18    19    1
    27    22    21    2
    28    19    20    2
    29    21    20    1
    30    21    24    1
    31    26    24    2
    32    24    27    1
    33    24    25    2
    34    27    29    1
    35    27    28    1
