@<TRIPOS>MOLECULE
60149_out_ligand_01.pdbqt
 29 32 0 0 0
SMALL
GASTEIGER

@<TRIPOS>ATOM
      1  C         20.9540  -22.8910  -10.2770 C.2     1  UNL1        0.0320
      2  C         22.2800  -23.2810  -10.4800 C.2     1  UNL1        0.0190
      3  C         23.0080  -22.7660  -11.5570 C.2     1  UNL1        0.0300
      4  C         22.4280  -21.8470  -12.4410 C.2     1  UNL1        0.0350
      5  C         21.1070  -21.4480  -12.2230 C.2     1  UNL1        0.0300
      6  C         20.3730  -21.9600  -11.1440 C.2     1  UNL1        0.0190
      7  C         20.2090  -23.4640   -9.1180 C.2     1  UNL1        0.2560
      8  O         20.6710  -24.4620   -8.5790 O.2     1  UNL1       -0.2670
      9  N         19.0300  -22.8120   -8.8070 N.am    1  UNL1       -0.3220
     10  H         18.7370  -22.1020   -9.4590 H       1  UNL1        0.1690
     11  C         18.1350  -23.0810   -7.7370 C.2     1  UNL1        0.0460
     12  C         17.1140  -24.0300   -7.8700 C.2     1  UNL1        0.0300
     13  C         16.2440  -24.3030   -6.8180 C.2     1  UNL1        0.0030
     14  C         16.3850  -23.6330   -5.6090 C.2     1  UNL1        0.0120
     15  C         17.3950  -22.6810   -5.4320 C.2     1  UNL1       -0.0240
     16  C         17.5080  -22.0250   -4.1940 C.2     1  UNL1        0.0120
     17  C         18.2930  -22.3830   -6.4930 C.2     1  UNL1        0.0010
     18  C         18.4960  -21.0710   -3.9720 C.2     1  UNL1        0.0010
     19  C         19.3850  -20.7570   -4.9880 C.2     1  UNL1        0.0010
     20  C         19.2850  -21.4000   -6.2270 C.2     1  UNL1        0.0140
     21  N         23.2340  -21.3860  -13.5040 N.am    1  UNL1       -0.3230
     22  C         24.5660  -20.9920  -13.4590 C.2     1  UNL1        0.2630
     23  O         25.2540  -21.0290  -12.4430 O.2     1  UNL1       -0.2670
     24  H         22.7950  -21.3890  -14.4120 H       1  UNL1        0.1690
     25  C         25.0910  -20.5360  -14.7490 C.2     1  UNL1        0.0720
     26  C         24.8710  -21.0140  -16.0320 C.2     1  UNL1        0.0250
     27  C         25.5850  -20.2770  -17.0240 C.2     1  UNL1        0.0090
     28  C         26.3230  -19.2550  -16.4750 C.2     1  UNL1        0.0500
     29  S         26.1480  -19.1790  -14.7780 S.3     1  UNL1       -0.0970
@<TRIPOS>BOND
     1    27    28    2
     2    27    26    1
     3    28    29    1
     4    26    25    2
     5    29    25    1
     6    25    22    1
     7    24    21    1
     8    21    22   am
     9    21     4    1
    10    22    23    2
    11     4     5    2
    12     4     3    1
    13     5     6    1
    14     3     2    2
    15     6     1    2
    16     2     1    1
    17     1     7    1
    18    10     9    1
    19     7     9   am
    20     7     8    2
    21     9    11    1
    22    12    11    2
    23    12    13    1
    24    11    17    1
    25    13    14    2
    26    17    20    1
    27    17    15    2
    28    20    19    2
    29    14    15    1
    30    15    16    1
    31    19    18    1
    32    16    18    2
