@<TRIPOS>MOLECULE
60173_out_ligand_01.pdbqt
 33 35 0 0 0
SMALL
GASTEIGER

@<TRIPOS>ATOM
      1  C         22.6310  -22.6490  -11.2240 C.ar    1  UNL1        0.0990
      2  S         21.7190  -23.2850   -9.9370 S.2     1  UNL1       -0.0650
      3  C         20.3250  -22.3990  -10.3780 C.ar    1  UNL1        0.0820
      4  C         20.5480  -21.6090  -11.5010 C.ar    1  UNL1       -0.0160
      5  C         19.5460  -20.6700  -12.1100 C.3     1  UNL1        0.0510
      6  C         21.8920  -21.8020  -12.0220 C.ar    1  UNL1        0.0860
      7  C         22.3260  -21.2050  -13.2550 C.1     1  UNL1        0.1030
      8  N         22.5400  -20.7210  -14.2880 N.1     1  UNL1       -0.1910
      9  N         23.9180  -23.1340  -11.1980 N.am    1  UNL1       -0.3180
     10  C         25.0430  -22.3990  -10.8930 C.2     1  UNL1        0.2460
     11  O         25.0730  -21.2070  -10.6100 O.2     1  UNL1       -0.2710
     12  H         24.0160  -24.1460  -11.1730 H       1  UNL1        0.1690
     13  C         26.3270  -23.2340  -10.9460 C.3     1  UNL1        0.2780
     14  O         27.1210  -23.0170  -12.1070 O.2     1  UNL1       -0.3420
     15  C         26.5350  -23.1620  -13.3380 C.2     1  UNL1        0.0750
     16  C         26.0000  -24.3530  -13.8400 C.2     1  UNL1        0.0370
     17  C         25.3980  -24.3800  -15.1020 C.2     1  UNL1        0.0030
     18  C         25.3240  -23.2200  -15.8670 C.2     1  UNL1        0.0010
     19  C         25.8540  -22.0300  -15.3750 C.2     1  UNL1        0.0090
     20  C         26.4670  -21.9900  -14.1140 C.2     1  UNL1       -0.0290
     21  C         27.0210  -20.6900  -13.6000 C.3     1  UNL1        0.0510
     22  C         19.1240  -22.5720   -9.5620 C.2     1  UNL1        0.2630
     23  O         17.9980  -22.4310  -10.0270 O.2     1  UNL1       -0.2670
     24  N         19.4140  -22.8660   -8.2380 N.am    1  UNL1       -0.3220
     25  H         20.3900  -22.8160   -7.9920 H       1  UNL1        0.1690
     26  C         18.5170  -23.1490   -7.1790 C.2     1  UNL1        0.0410
     27  C         17.6040  -24.2070   -7.2430 C.2     1  UNL1        0.0300
     28  C         16.7360  -24.4700   -6.1860 C.2     1  UNL1        0.0030
     29  C         16.7700  -23.6830   -5.0430 C.2     1  UNL1        0.0070
     30  C         17.6740  -22.6160   -4.9370 C.2     1  UNL1       -0.0540
     31  C         17.6610  -21.8010   -3.6700 C.3     1  UNL1        0.0490
     32  C         18.5590  -22.3390   -6.0100 C.2     1  UNL1       -0.0290
     33  C         19.5400  -21.1940   -5.9130 C.3     1  UNL1        0.0510
@<TRIPOS>BOND
     1    18    19    2
     2    18    17    1
     3    19    20    1
     4    17    16    2
     5     8     7    3
     6    20    21    1
     7    20    15    2
     8    16    15    1
     9    15    14    1
    10     7     6    1
    11     5     4    1
    12    14    13    1
    13     6     4   ar
    14     6     1   ar
    15     4     3   ar
    16     1     9    1
    17     1     2   ar
    18     9    12    1
    19     9    10   am
    20    13    10    1
    21    10    11    2
    22     3     2   ar
    23     3    22    1
    24    23    22    2
    25    22    24   am
    26    24    25    1
    27    24    26    1
    28    27    26    2
    29    27    28    1
    30    26    32    1
    31    28    29    2
    32    32    33    1
    33    32    30    2
    34    29    30    1
    35    30    31    1
