@<TRIPOS>MOLECULE
60204_out_ligand_01.pdbqt
 31 33 0 0 0
SMALL
GASTEIGER

@<TRIPOS>ATOM
      1  C         21.3750  -21.9950   -9.9040 C.ar    1  UNL1        0.0820
      2  S         21.0410  -22.5390   -8.3190 S.2     1  UNL1       -0.0650
      3  C         19.3610  -22.4570   -8.5470 C.ar    1  UNL1        0.0990
      4  C         19.0500  -22.0670   -9.8370 C.ar    1  UNL1        0.0860
      5  C         17.6960  -21.9450  -10.2960 C.1     1  UNL1        0.1030
      6  N         16.5910  -21.8530  -10.6360 N.1     1  UNL1       -0.1910
      7  C         20.2150  -21.8000  -10.6450 C.ar    1  UNL1       -0.0160
      8  C         20.1720  -21.3940  -12.0870 C.3     1  UNL1        0.0510
      9  N         18.4710  -22.7990   -7.5350 N.am    1  UNL1       -0.3160
     10  C         18.3500  -22.1820   -6.3010 C.2     1  UNL1        0.2560
     11  O         18.9150  -21.1660   -5.9170 O.2     1  UNL1       -0.2670
     12  H         17.7860  -23.5110   -7.7620 H       1  UNL1        0.1690
     13  C         17.3650  -22.8170   -5.3800 C.2     1  UNL1        0.0350
     14  C         17.7440  -23.0480   -4.0490 C.2     1  UNL1        0.0170
     15  C         16.8520  -23.6440   -3.1530 C.2     1  UNL1        0.0040
     16  C         15.5830  -24.0200   -3.5880 C.2     1  UNL1        0.0420
     17  C         15.2210  -23.8050   -4.9130 C.2     1  UNL1        0.1170
     18  F         14.0050  -24.1820   -5.3320 F       1  UNL1       -0.2060
     19  C         16.0960  -23.2120   -5.8170 C.2     1  UNL1        0.0590
     20  C         22.7720  -21.8210  -10.2920 C.2     1  UNL1        0.2630
     21  N         23.1000  -22.5530  -11.4230 N.am    1  UNL1       -0.3220
     22  H         22.3230  -23.0020  -11.8820 H       1  UNL1        0.1690
     23  O         23.5350  -21.0920   -9.6680 O.2     1  UNL1       -0.2670
     24  C         24.3610  -22.6850  -12.0560 C.2     1  UNL1        0.0410
     25  C         25.4260  -23.3570  -11.4490 C.2     1  UNL1        0.0300
     26  C         26.6550  -23.4840  -12.0930 C.2     1  UNL1        0.0030
     27  C         26.8360  -22.9440  -13.3600 C.2     1  UNL1        0.0070
     28  C         25.7920  -22.2660  -14.0040 C.2     1  UNL1       -0.0540
     29  C         26.0550  -21.7030  -15.3760 C.3     1  UNL1        0.0490
     30  C         24.5400  -22.1310  -13.3530 C.2     1  UNL1       -0.0290
     31  C         23.4020  -21.4010  -14.0310 C.3     1  UNL1        0.0510
@<TRIPOS>BOND
     1    29    28    1
     2    31    30    1
     3    28    27    2
     4    28    30    1
     5    27    26    1
     6    30    24    2
     7    26    25    2
     8     8     7    1
     9    24    25    1
    10    24    21    1
    11    22    21    1
    12    21    20   am
    13     7     1   ar
    14     7     4   ar
    15     6     5    3
    16     5     4    1
    17    20     1    1
    18    20    23    2
    19     1     2   ar
    20     4     3   ar
    21     3     2   ar
    22     3     9    1
    23    12     9    1
    24     9    10   am
    25    10    11    2
    26    10    13    1
    27    19    13    2
    28    19    17    1
    29    13    14    1
    30    18    17    1
    31    17    16    2
    32    14    15    2
    33    16    15    1
