@<TRIPOS>MOLECULE
60207_out_ligand_01.pdbqt
 24 27 0 0 0
SMALL
GASTEIGER

@<TRIPOS>ATOM
      1  C         21.3650  -21.9400  -11.5710 C.2     1  UNL1        0.0320
      2  C         21.2560  -22.9960  -10.6610 C.2     1  UNL1        0.0170
      3  C         20.0310  -23.2750  -10.0470 C.2     1  UNL1        0.0100
      4  C         18.8960  -22.4990  -10.3250 C.2     1  UNL1       -0.0410
      5  C         19.0120  -21.4610  -11.2640 C.2     1  UNL1        0.0100
      6  C         20.2330  -21.1820  -11.8850 C.2     1  UNL1        0.0170
      7  C         17.5410  -22.7880   -9.7030 C.3     1  UNL1        0.1550
      8  N         17.4840  -22.8710   -8.2470 N.3     1  UNL1       -0.4040
      9  C         16.8680  -24.0770   -7.6970 C.3     1  UNL1        0.1220
     10  C         17.3940  -24.5490   -6.3280 C.3     1  UNL1        0.0580
     11  C         17.7530  -23.3960   -5.4340 C.2     1  UNL1       -0.0490
     12  C         17.5590  -23.4350   -4.0490 C.2     1  UNL1        0.0080
     13  C         18.3560  -22.2740   -6.0300 C.2     1  UNL1       -0.0340
     14  C         17.9520  -22.3520   -3.2620 C.2     1  UNL1        0.0010
     15  C         18.5490  -21.2360   -3.8520 C.2     1  UNL1        0.0010
     16  C         18.7570  -21.1980   -5.2320 C.2     1  UNL1        0.0090
     17  C         18.6150  -22.3080   -7.5200 C.3     1  UNL1        0.1560
     18  C         22.6930  -21.6710  -12.1930 C.2     1  UNL1        0.2520
     19  O         22.7650  -21.3950  -13.3840 O.2     1  UNL1       -0.2680
     20  N         23.7920  -21.7980  -11.3610 N.am    1  UNL1       -0.3520
     21  H         23.6660  -22.2250  -10.4560 H       1  UNL1        0.1630
     22  C         25.1290  -21.6530  -11.8460 C.3     1  UNL1        0.0840
     23  C         26.2940  -22.1610  -11.0420 C.3     1  UNL1        0.0270
     24  C         26.0750  -20.6830  -11.1940 C.3     1  UNL1        0.0270
@<TRIPOS>BOND
     1    19    18    2
     2    18     1    1
     3    18    20   am
     4     6     1    2
     5     6     5    1
     6    22    20    1
     7    22    24    1
     8    22    23    1
     9     1     2    1
    10    20    21    1
    11     5     4    2
    12    24    23    1
    13     2     3    2
    14     4     3    1
    15     4     7    1
    16     7     8    1
    17     8     9    1
    18     8    17    1
    19     9    10    1
    20    17    13    1
    21    10    11    1
    22    13    11    2
    23    13    16    1
    24    11    12    1
    25    16    15    2
    26    12    14    2
    27    15    14    1
