@<TRIPOS>MOLECULE
60288_out_ligand_01.pdbqt
 28 30 0 0 0
SMALL
GASTEIGER

@<TRIPOS>ATOM
      1  N         19.0060  -22.4310   -9.3710 N.am    1  UNL1       -0.3260
      2  C         19.2400  -22.7280   -8.0340 C.2     1  UNL1        0.2350
      3  O         20.3470  -22.8350   -7.5130 O.2     1  UNL1       -0.2720
      4  H         18.0450  -22.5140   -9.6830 H       1  UNL1        0.1690
      5  C         19.9560  -22.1480  -10.3710 C.2     1  UNL1        0.0340
      6  C         19.7680  -21.2070  -11.3850 C.2     1  UNL1        0.0300
      7  C         20.7630  -20.9830  -12.3480 C.2     1  UNL1        0.0190
      8  C         21.9630  -21.7000  -12.2990 C.2     1  UNL1        0.0330
      9  C         22.1460  -22.6590  -11.2980 C.2     1  UNL1        0.0190
     10  C         21.1510  -22.8770  -10.3390 C.2     1  UNL1        0.0300
     11  C         23.0500  -21.5030  -13.2970 C.2     1  UNL1        0.2650
     12  N         22.7830  -20.6210  -14.3400 N.am    1  UNL1       -0.2900
     13  H         21.9810  -19.9970  -14.2980 H       1  UNL1        0.1830
     14  O         24.1290  -22.0750  -13.1660 O.2     1  UNL1       -0.2660
     15  N         23.8180  -20.3140  -15.2530 N.3     1  UNL1       -0.2470
     16  H         24.5850  -19.9020  -14.7110 H       1  UNL1        0.1430
     17  H         23.4860  -19.5200  -15.8180 H       1  UNL1        0.1430
     18  C         17.9300  -22.9240   -7.2230 C.3     1  UNL1        0.0680
     19  C         16.7400  -22.1940   -7.8870 C.3     1  UNL1        0.0240
     20  C         15.5070  -22.9510   -7.4080 C.3     1  UNL1        0.0020
     21  C         15.9530  -24.4010   -7.2650 C.3     1  UNL1        0.0020
     22  C         17.4780  -24.3950   -7.3930 C.3     1  UNL1        0.0240
     23  C         18.1190  -22.4280   -5.7780 C.2     1  UNL1       -0.0400
     24  C         18.6660  -21.1470   -5.5640 C.2     1  UNL1        0.0080
     25  C         18.8750  -20.6550   -4.2740 C.2     1  UNL1        0.0010
     26  C         18.5380  -21.4300   -3.1710 C.2     1  UNL1        0.0000
     27  C         17.9910  -22.6950   -3.3580 C.2     1  UNL1        0.0010
     28  C         17.7820  -23.1910   -4.6490 C.2     1  UNL1        0.0080
@<TRIPOS>BOND
     1    17    15    1
     2    15    16    1
     3    15    12    1
     4    12    13    1
     5    12    11   am
     6    11    14    2
     7    11     8    1
     8     7     8    2
     9     7     6    1
    10     8     9    1
    11     6     5    2
    12     9    10    2
    13     5    10    1
    14     5     1    1
    15     4     1    1
    16     1     2   am
    17     2     3    2
    18     2    18    1
    19    19    20    1
    20    19    18    1
    21    20    21    1
    22    22    21    1
    23    22    18    1
    24    18    23    1
    25    23    24    2
    26    23    28    1
    27    24    25    1
    28    28    27    2
    29    25    26    2
    30    27    26    1
