@<TRIPOS>MOLECULE
60336_out_ligand_01.pdbqt
 31 33 0 0 0
SMALL
GASTEIGER

@<TRIPOS>ATOM
      1  N         21.0350  -22.7110  -10.0230 N.am    1  UNL1       -0.3230
      2  C         21.1890  -22.5250   -8.6590 C.2     1  UNL1        0.2560
      3  O         22.1740  -22.0890   -8.0760 O.2     1  UNL1       -0.2670
      4  H         20.1090  -22.9480  -10.3540 H       1  UNL1        0.1690
      5  C         19.9870  -22.8690   -7.8490 C.2     1  UNL1        0.0320
      6  C         19.3010  -24.0760   -8.0240 C.2     1  UNL1        0.0170
      7  C         18.1850  -24.3680   -7.2310 C.2     1  UNL1        0.0100
      8  C         17.7560  -23.4650   -6.2490 C.2     1  UNL1       -0.0400
      9  C         18.4490  -22.2570   -6.0820 C.2     1  UNL1        0.0100
     10  C         19.5640  -21.9650   -6.8690 C.2     1  UNL1        0.0170
     11  C         16.5530  -23.7640   -5.3910 C.3     1  UNL1        0.1620
     12  N         15.4680  -22.8640   -5.7090 N.am    1  UNL1       -0.3440
     13  C         14.8300  -22.1990   -4.7090 C.2     1  UNL1        0.2920
     14  N         13.7690  -21.4890   -5.1680 N.am    1  UNL1       -0.2540
     15  O         15.1480  -22.2010   -3.5300 O.2     1  UNL1       -0.2540
     16  H         13.3790  -20.8820   -4.4550 H       1  UNL1        0.1280
     17  H         13.9070  -21.0330   -6.0540 H       1  UNL1        0.1280
     18  H         14.8720  -23.1280   -6.4810 H       1  UNL1        0.1640
     19  C         22.0060  -22.5080  -11.0240 C.2     1  UNL1        0.0350
     20  C         21.8110  -21.7300  -12.1590 C.2     1  UNL1        0.0320
     21  C         22.8380  -21.5760  -13.1050 C.2     1  UNL1        0.0310
     22  C         24.0880  -22.1960  -12.9630 C.2     1  UNL1        0.0300
     23  C         24.2660  -22.9530  -11.7960 C.2     1  UNL1        0.0310
     24  C         23.2490  -23.1140  -10.8450 C.2     1  UNL1        0.0320
     25  N         25.1280  -22.0460  -13.8820 N.pl3   1  UNL1       -0.3810
     26  C         25.1090  -20.9650  -14.8770 C.3     1  UNL1        0.1230
     27  C         24.4260  -21.4260  -16.1670 C.3     1  UNL1        0.0240
     28  C         25.0760  -22.7070  -16.7110 C.3     1  UNL1       -0.0150
     29  C         24.3310  -23.2140  -17.9440 C.3     1  UNL1        0.0100
     30  C         25.1300  -23.7880  -15.6200 C.3     1  UNL1        0.0240
     31  C         25.8170  -23.2580  -14.3590 C.3     1  UNL1        0.1230
@<TRIPOS>BOND
     1    29    28    1
     2    28    27    1
     3    28    30    1
     4    27    26    1
     5    30    31    1
     6    26    25    1
     7    31    25    1
     8    25    22    1
     9    21    22    2
    10    21    20    1
    11    22    23    1
    12    20    19    2
    13    23    24    2
    14    19    24    1
    15    19     1    1
    16     4     1    1
    17     1     2   am
    18     2     3    2
    19     2     5    1
    20     6     5    2
    21     6     7    1
    22     5    10    1
    23     7     8    2
    24    10     9    2
    25    18    12    1
    26     8     9    1
    27     8    11    1
    28    17    14    1
    29    12    11    1
    30    12    13   am
    31    14    13   am
    32    14    16    1
    33    13    15    2
