@<TRIPOS>MOLECULE
60330_out_ligand_01.pdbqt
 35 38 0 0 0
SMALL
GASTEIGER

@<TRIPOS>ATOM
      1  C         18.6550  -22.1450   -6.2840 C.2     1  UNL1        0.2590
      2  O         19.0020  -20.9960   -6.0530 O.2     1  UNL1       -0.2670
      3  N         19.2960  -23.0980   -7.0490 N.am    1  UNL1       -0.3230
      4  H         18.8110  -23.9880   -7.1750 H       1  UNL1        0.1690
      5  C         20.5010  -22.9530   -7.7640 C.2     1  UNL1        0.0350
      6  C         21.3750  -21.8740   -7.6070 C.2     1  UNL1        0.0310
      7  C         22.5520  -21.8010   -8.3580 C.2     1  UNL1        0.0270
      8  C         22.8610  -22.8180   -9.2630 C.2     1  UNL1        0.0800
      9  C         21.9940  -23.8960   -9.4380 C.2     1  UNL1        0.0270
     10  C         20.8190  -23.9620   -8.6840 C.2     1  UNL1        0.0310
     11  S         24.3430  -22.6990  -10.2320 S.O2    1  UNL1        0.2760
     12  O         25.2630  -23.6820   -9.6950 O.2     1  UNL1       -0.2000
     13  O         24.7460  -21.3110  -10.3270 O.2     1  UNL1       -0.2000
     14  N         23.8880  -23.2640  -11.7240 N.pl3   1  UNL1       -0.1090
     15  H         24.1320  -24.2340  -11.8890 H       1  UNL1        0.1980
     16  C         24.1050  -22.4420  -12.8220 C.cat   1  UNL1        0.7350
     17  N         25.1740  -22.7950  -13.5420 N.2     1  UNL1       -0.0740
     18  C         25.3400  -22.1230  -14.6970 C.2     1  UNL1        0.1380
     19  C         24.4640  -21.1640  -15.1500 C.2     1  UNL1        0.0400
     20  C         23.3750  -20.9290  -14.3430 C.2     1  UNL1        0.1380
     21  N         23.1590  -21.5720  -13.1820 N.2     1  UNL1       -0.0740
     22  C         17.4180  -22.6350   -5.6590 C.2     1  UNL1        0.0670
     23  C         17.1610  -22.2560   -4.3380 C.2     1  UNL1        0.0210
     24  C         16.0020  -22.7030   -3.7170 C.2     1  UNL1        0.0200
     25  C         15.1460  -23.5100   -4.4450 C.2     1  UNL1        0.1180
     26  N         15.3740  -23.8920   -5.7220 N.2     1  UNL1       -0.2530
     27  C         16.5080  -23.4510   -6.3280 C.2     1  UNL1        0.1090
     28  S         16.6860  -24.0420   -8.0000 S.3     1  UNL1       -0.1030
     29  C         15.9400  -22.6750   -8.9500 C.3     1  UNL1        0.1420
     30  C         16.8500  -22.0630   -9.9580 C.2     1  UNL1        0.0740
     31  C         18.1780  -22.4290  -10.2790 C.2     1  UNL1        0.0640
     32  C         18.5550  -21.5310  -11.2450 C.2     1  UNL1        0.0770
     33  C         19.7900  -21.3100  -12.0170 C.3     1  UNL1        0.0790
     34  O         17.5220  -20.6850  -11.5000 O.2     1  UNL1       -0.2180
     35  N         16.4460  -21.0140  -10.6920 N.2     1  UNL1       -0.1320
@<TRIPOS>BOND
     1    19    18    2
     2    19    20    1
     3    18    17    1
     4    20    21    2
     5    17    16    2
     6    21    16    1
     7    16    14    1
     8    33    32    1
     9    15    14    1
    10    14    11    1
    11    34    32    1
    12    34    35    1
    13    32    31    2
    14    35    30    2
    15    13    11    2
    16    31    30    1
    17    11    12    2
    18    11     8    1
    19    30    29    1
    20     9     8    2
    21     9    10    1
    22     8     7    1
    23    29    28    1
    24    10     5    2
    25     7     6    2
    26    28    27    1
    27     5     6    1
    28     5     3    1
    29     4     3    1
    30     3     1   am
    31    27    26    1
    32    27    22    2
    33     1     2    2
    34     1    22    1
    35    26    25    2
    36    22    23    1
    37    25    24    1
    38    23    24    2
