@<TRIPOS>MOLECULE
60360_out_ligand_01.pdbqt
 33 36 0 0 0
SMALL
GASTEIGER

@<TRIPOS>ATOM
      1  C         21.8690  -23.2450   -9.5050 C.2     1  UNL1        0.2570
      2  O         22.4750  -24.0470   -8.8100 O.2     1  UNL1       -0.2670
      3  N         22.3670  -22.4690  -10.5360 N.am    1  UNL1       -0.3230
      4  H         21.6910  -21.9320  -11.0660 H       1  UNL1        0.1690
      5  C         23.7110  -22.3570  -10.9470 C.2     1  UNL1        0.0360
      6  C         24.5930  -21.3830  -10.4720 C.2     1  UNL1        0.0290
      7  C         25.9060  -21.3150  -10.9520 C.2     1  UNL1        0.0040
      8  C         26.3530  -22.2240  -11.9070 C.2     1  UNL1        0.0250
      9  C         25.4840  -23.2140  -12.3650 C.2     1  UNL1        0.0820
     10  C         24.1630  -23.2740  -11.9030 C.2     1  UNL1        0.0540
     11  S         26.0260  -24.3590  -13.6050 S.O2    1  UNL1        0.2640
     12  O         24.8790  -25.0340  -14.1690 O.2     1  UNL1       -0.2000
     13  O         27.1210  -25.1200  -13.0350 O.2     1  UNL1       -0.2000
     14  N         26.7390  -23.3840  -14.7510 N.3     1  UNL1       -0.2680
     15  H         27.7520  -23.3980  -14.6860 H       1  UNL1        0.1800
     16  C         26.0980  -22.6730  -15.7620 C.3     1  UNL1        0.1080
     17  N         25.4890  -23.2160  -16.7610 N.3     1  UNL1       -0.2760
     18  C         24.9940  -22.0870  -17.5730 C.3     1  UNL1        0.1510
     19  C         24.9720  -20.8890  -16.6400 C.3     1  UNL1        0.0290
     20  C         26.1120  -21.1800  -15.6940 C.3     1  UNL1        0.0800
     21  C         20.4080  -23.1060   -9.3000 C.2     1  UNL1        0.0460
     22  C         19.8750  -23.7790   -8.2000 C.2     1  UNL1        0.0450
     23  C         18.5080  -23.7250   -8.0020 C.2     1  UNL1        0.0390
     24  N         17.6910  -23.0380   -8.8360 N.2     1  UNL1       -0.2520
     25  C         18.2110  -22.3630   -9.8760 C.2     1  UNL1        0.0680
     26  C         17.3470  -21.6490  -10.6950 C.2     1  UNL1        0.0320
     27  C         19.5880  -22.3470  -10.1650 C.2     1  UNL1        0.0080
     28  C         17.8050  -20.9060  -11.7850 C.2     1  UNL1        0.0020
     29  C         19.1630  -20.8630  -12.0660 C.2     1  UNL1        0.0010
     30  C         20.0520  -21.5720  -11.2620 C.2     1  UNL1        0.0150
     31  C         17.8720  -24.4330   -6.8230 C.3     1  UNL1        0.0290
     32  C         16.3930  -24.7160   -7.0830 C.3     1  UNL1        0.0160
     33  C         18.0530  -23.6120   -5.5450 C.3     1  UNL1        0.0160
@<TRIPOS>BOND
     1    18    17    1
     2    18    19    1
     3    17    16    1
     4    19    20    1
     5    16    20    1
     6    16    14    1
     7    14    15    1
     8    14    11    1
     9    12    11    2
    10    11    13    2
    11    11     9    1
    12     9     8    2
    13     9    10    1
    14    29    28    1
    15    29    30    2
    16     8     7    1
    17    10     5    2
    18    28    26    2
    19    30    27    1
    20     4     3    1
    21     7     6    2
    22     5     3    1
    23     5     6    1
    24    26    25    1
    25     3     1   am
    26    27    25    1
    27    27    21    2
    28    25    24    2
    29     1    21    1
    30     1     2    2
    31    21    22    1
    32    24    23    1
    33    22    23    2
    34    23    31    1
    35    32    31    1
    36    31    33    1
