@<TRIPOS>MOLECULE
60383_out_ligand_01.pdbqt
 30 33 0 0 0
SMALL
GASTEIGER

@<TRIPOS>ATOM
      1  C         23.2710  -22.4420  -10.9650 C.2     1  UNL1        0.0360
      2  C         24.0460  -21.4220  -10.3920 C.2     1  UNL1        0.0290
      3  C         25.3870  -21.2500  -10.7490 C.2     1  UNL1        0.0040
      4  C         25.9640  -22.0930  -11.6930 C.2     1  UNL1        0.0250
      5  C         25.1880  -23.0960  -12.2840 C.2     1  UNL1        0.0820
      6  C         23.8490  -23.2820  -11.9180 C.2     1  UNL1        0.0540
      7  N         21.9300  -22.5370  -10.5380 N.am    1  UNL1       -0.3230
      8  C         20.8100  -22.0200  -11.1660 C.2     1  UNL1        0.2560
      9  O         20.7690  -21.4660  -12.2560 O.2     1  UNL1       -0.2670
     10  H         21.7660  -23.1180   -9.7270 H       1  UNL1        0.1690
     11  C         19.5310  -22.2300  -10.4290 C.2     1  UNL1        0.0320
     12  C         18.2950  -21.8680  -10.9830 C.2     1  UNL1        0.0170
     13  C         17.1180  -22.0700  -10.2600 C.2     1  UNL1        0.0090
     14  C         17.1670  -22.6560   -8.9910 C.2     1  UNL1       -0.0520
     15  C         18.4030  -23.0390   -8.4420 C.2     1  UNL1       -0.0510
     16  C         15.9290  -22.8620   -8.1600 C.3     1  UNL1        0.0390
     17  C         19.5830  -22.8240   -9.1620 C.2     1  UNL1        0.0240
     18  C         18.4150  -23.6310   -7.0580 C.3     1  UNL1        0.0390
     19  C         17.2890  -24.6540   -6.8870 C.3     1  UNL1        0.0050
     20  C         15.9380  -24.2350   -7.4860 C.3     1  UNL1        0.0050
     21  S         25.9440  -24.1770  -13.4680 S.O2    1  UNL1        0.2640
     22  O         24.9510  -25.0380  -14.0670 O.2     1  UNL1       -0.2000
     23  O         27.1210  -24.7420  -12.8350 O.2     1  UNL1       -0.2000
     24  N         26.5420  -23.1410  -14.6280 N.3     1  UNL1       -0.2680
     25  H         27.5210  -22.9220  -14.4740 H       1  UNL1        0.1800
     26  C         25.8610  -22.6620  -15.7400 C.3     1  UNL1        0.1080
     27  N         25.8670  -23.2320  -16.8970 N.3     1  UNL1       -0.2760
     28  C         24.9990  -22.3940  -17.7480 C.3     1  UNL1        0.1510
     29  C         24.9090  -21.0510  -17.0430 C.3     1  UNL1        0.0290
     30  C         25.0270  -21.4330  -15.5880 C.3     1  UNL1        0.0800
@<TRIPOS>BOND
     1    28    29    1
     2    28    27    1
     3    29    30    1
     4    27    26    1
     5    26    30    1
     6    26    24    1
     7    24    25    1
     8    24    21    1
     9    22    21    2
    10    21    23    2
    11    21     5    1
    12     5     6    1
    13     5     4    2
    14     9     8    2
    15     6     1    2
    16     4     3    1
    17     8     7   am
    18     8    11    1
    19    12    11    2
    20    12    13    1
    21     1     7    1
    22     1     2    1
    23     3     2    2
    24     7    10    1
    25    11    17    1
    26    13    14    2
    27    17    15    2
    28    14    15    1
    29    14    16    1
    30    15    18    1
    31    16    20    1
    32    20    19    1
    33    18    19    1
