@<TRIPOS>MOLECULE
60387_out_ligand_01.pdbqt
 35 39 0 0 0
SMALL
GASTEIGER

@<TRIPOS>ATOM
      1  O         20.6830  -20.6680  -11.6050 O.2     1  UNL1       -0.2670
      2  C         21.0580  -21.7570  -11.1890 C.2     1  UNL1        0.2560
      3  N         20.2880  -22.7230  -10.5680 N.am    1  UNL1       -0.3230
      4  H         20.7180  -23.6280  -10.4180 H       1  UNL1        0.1690
      5  C         18.9350  -22.6170  -10.1830 C.2     1  UNL1        0.0360
      6  C         17.9790  -21.8790  -10.8860 C.2     1  UNL1        0.0290
      7  C         16.6590  -21.7970  -10.4270 C.2     1  UNL1        0.0040
      8  C         16.2800  -22.4560   -9.2600 C.2     1  UNL1        0.0250
      9  C         17.2250  -23.2110   -8.5660 C.2     1  UNL1        0.0820
     10  C         18.5510  -23.2810   -9.0120 C.2     1  UNL1        0.0540
     11  S         16.7690  -24.0210   -7.0560 S.O2    1  UNL1        0.2640
     12  O         17.8790  -24.8130   -6.5780 O.2     1  UNL1       -0.2000
     13  O         15.4700  -24.6280   -7.2750 O.2     1  UNL1       -0.2000
     14  N         16.4780  -22.7620   -6.0070 N.3     1  UNL1       -0.2680
     15  H         15.4960  -22.5040   -5.9830 H       1  UNL1        0.1800
     16  C         17.3990  -22.1480   -5.1640 C.3     1  UNL1        0.1080
     17  N         17.3250  -22.1560   -3.8760 N.3     1  UNL1       -0.2760
     18  C         18.5160  -21.4150   -3.4170 C.3     1  UNL1        0.1510
     19  C         18.9750  -20.5950   -4.6110 C.3     1  UNL1        0.0290
     20  C         18.5760  -21.4620   -5.7790 C.3     1  UNL1        0.0800
     21  C         22.4850  -22.1390  -11.4080 C.2     1  UNL1        0.0330
     22  C         23.3060  -22.5120  -10.2890 C.2     1  UNL1        0.0190
     23  C         24.6650  -22.8840  -10.4090 C.2     1  UNL1        0.0360
     24  C         25.1520  -22.8510  -11.7280 C.ar    1  UNL1        0.0970
     25  N         26.3770  -23.1280  -12.2010 N.ar    1  UNL1       -0.1270
     26  C         24.2980  -22.4640  -12.8260 C.ar    1  UNL1        0.0330
     27  O         26.3280  -22.9210  -13.5680 O.2     1  UNL1       -0.2110
     28  C         25.0750  -22.5250  -13.9540 C.ar    1  UNL1        0.1240
     29  C         22.9600  -22.0810  -12.7400 C.2     1  UNL1        0.0330
     30  C         24.9070  -22.3020  -15.3820 C.2     1  UNL1        0.0010
     31  C         24.5980  -23.3710  -16.2370 C.2     1  UNL1        0.0140
     32  C         24.4380  -23.1670  -17.6100 C.2     1  UNL1        0.0010
     33  C         24.5820  -21.8890  -18.1460 C.2     1  UNL1        0.0000
     34  C         24.8800  -20.8160  -17.3090 C.2     1  UNL1        0.0010
     35  C         25.0400  -21.0210  -15.9360 C.2     1  UNL1        0.0140
@<TRIPOS>BOND
     1    33    32    2
     2    33    34    1
     3    32    31    1
     4    34    35    2
     5    31    30    2
     6    35    30    1
     7    30    28    1
     8    28    27   ar
     9    28    26   ar
    10    27    25   ar
    11    26    29    1
    12    26    24   ar
    13    29    21    2
    14    25    24   ar
    15    24    23    1
    16     1     2    2
    17    21     2    1
    18    21    22    1
    19     2     3   am
    20     6     7    1
    21     6     5    2
    22     3     4    1
    23     3     5    1
    24     7     8    2
    25    23    22    2
    26     5    10    1
    27     8     9    1
    28    10     9    2
    29     9    11    1
    30    13    11    2
    31    11    12    2
    32    11    14    1
    33    14    15    1
    34    14    16    1
    35    20    16    1
    36    20    19    1
    37    16    17    1
    38    19    18    1
    39    17    18    1
