@<TRIPOS>MOLECULE
60391_out_ligand_01.pdbqt
 28 30 0 0 0
SMALL
GASTEIGER

@<TRIPOS>ATOM
      1  C         16.6030  -22.0580  -10.2840 C.3     1  UNL1        0.1270
      2  C         15.9050  -23.2810   -9.6770 C.3     1  UNL1        0.0580
      3  C         16.0580  -23.3540   -8.1730 C.2     1  UNL1       -0.0570
      4  C         16.8740  -24.3350   -7.5880 C.2     1  UNL1        0.0090
      5  C         16.9900  -24.4210   -6.2000 C.2     1  UNL1        0.0250
      6  C         16.2910  -23.5190   -5.3950 C.2     1  UNL1        0.0740
      7  C         15.4650  -22.5450   -5.9610 C.2     1  UNL1        0.0250
      8  C         15.3540  -22.4640   -7.3490 C.2     1  UNL1        0.0090
      9  S         16.4220  -23.6220   -3.6310 S.O2    1  UNL1        0.2390
     10  O         17.8130  -23.5010   -3.2630 O.2     1  UNL1       -0.2060
     11  O         15.5890  -24.7100   -3.1760 O.2     1  UNL1       -0.2060
     12  N         15.7010  -22.1770   -3.1530 N.3     1  UNL1       -0.2250
     13  H         14.6950  -22.3260   -3.0590 H       1  UNL1        0.1360
     14  H         16.1090  -21.7870   -2.3030 H       1  UNL1        0.1360
     15  N         18.0400  -22.2250  -10.4050 N.am    1  UNL1       -0.3570
     16  C         18.7910  -21.3800  -11.1970 C.2     1  UNL1        0.2510
     17  O         18.3210  -20.4010  -11.7670 O.2     1  UNL1       -0.2680
     18  H         18.4120  -23.1410  -10.1900 H       1  UNL1        0.1620
     19  C         20.2220  -21.7480  -11.3860 C.2     1  UNL1        0.0320
     20  C         20.8470  -22.5060  -10.3930 C.2     1  UNL1        0.0170
     21  C         22.1890  -22.8660  -10.5250 C.2     1  UNL1        0.0090
     22  C         22.9220  -22.4850  -11.6590 C.2     1  UNL1       -0.0520
     23  C         22.2990  -21.7180  -12.6610 C.2     1  UNL1       -0.0510
     24  C         24.3800  -22.8650  -11.7490 C.3     1  UNL1        0.0390
     25  C         20.9440  -21.3700  -12.5240 C.2     1  UNL1        0.0240
     26  C         23.0350  -21.3180  -13.9180 C.3     1  UNL1        0.0390
     27  C         24.5540  -21.4130  -13.7830 C.3     1  UNL1        0.0050
     28  C         24.9500  -22.7460  -13.1610 C.3     1  UNL1        0.0050
@<TRIPOS>BOND
     1    26    27    1
     2    26    23    1
     3    27    28    1
     4    28    24    1
     5    23    25    1
     6    23    22    2
     7    25    19    2
     8    17    16    2
     9    24    22    1
    10    22    21    1
    11    19    16    1
    12    19    20    1
    13    16    15   am
    14    21    20    2
    15    15     1    1
    16    15    18    1
    17     1     2    1
    18     2     3    1
    19     3     4    2
    20     3     8    1
    21     4     5    1
    22     8     7    2
    23     5     6    2
    24     7     6    1
    25     6     9    1
    26     9    10    2
    27     9    11    2
    28     9    12    1
    29    12    13    1
    30    12    14    1
