@<TRIPOS>MOLECULE
603_out_ligand_01.pdbqt
 32 34 0 0 0
SMALL
GASTEIGER

@<TRIPOS>ATOM
      1  C         21.4710  -22.7500   -9.7840 C.3     1  UNL1        0.1860
      2  N         21.4520  -22.3840   -8.3490 N.pl3   1  UNL1       -0.2760
      3  H         22.2420  -22.8500   -7.8980 H       1  UNL1        0.1290
      4  C         20.2530  -22.7250   -7.6950 C.2     1  UNL1        0.0090
      5  C         19.7000  -24.0020   -7.8460 C.2     1  UNL1        0.0240
      6  C         18.5300  -24.3580   -7.1710 C.2     1  UNL1        0.0190
      7  C         17.8950  -23.4330   -6.3350 C.2     1  UNL1        0.0310
      8  C         18.4530  -22.1590   -6.1600 C.2     1  UNL1        0.0190
      9  C         19.6250  -21.8120   -6.8400 C.2     1  UNL1        0.0240
     10  C         16.6510  -23.8450   -5.6370 C.2     1  UNL1        0.2490
     11  N         15.5100  -23.9280   -6.3880 N.am    1  UNL1       -0.3660
     12  H         14.7080  -24.3400   -5.9280 H       1  UNL1        0.1590
     13  H         15.5380  -23.9690   -7.3990 H       1  UNL1        0.1590
     14  O         16.6480  -24.1350   -4.4460 O.2     1  UNL1       -0.2680
     15  C         22.7720  -22.2160  -10.4660 C.2     1  UNL1        0.2440
     16  O         23.4910  -21.3850   -9.9100 O.2     1  UNL1       -0.2710
     17  N         22.9880  -22.7630  -11.7270 N.am    1  UNL1       -0.3250
     18  H         22.2500  -23.3580  -12.0910 H       1  UNL1        0.1690
     19  C         24.0800  -22.5280  -12.5910 C.2     1  UNL1        0.0380
     20  C         24.3380  -21.3040  -13.2130 C.2     1  UNL1        0.0530
     21  C         25.4480  -21.1610  -14.0510 C.2     1  UNL1        0.0370
     22 CL         25.7550  -19.6460  -14.8110 Cl      1  UNL1       -0.0840
     23  C         26.3120  -22.2270  -14.2800 C.2     1  UNL1        0.0480
     24  C         26.0580  -23.4440  -13.6590 C.2     1  UNL1        0.0370
     25 CL         27.1170  -24.7730  -13.9260 Cl      1  UNL1       -0.0840
     26  C         24.9530  -23.5990  -12.8190 C.2     1  UNL1        0.0530
     27  C         20.2220  -22.1800  -10.4430 C.2     1  UNL1       -0.0310
     28  C         20.2550  -20.8970  -11.0160 C.2     1  UNL1        0.0090
     29  C         19.1200  -20.3620  -11.6290 C.2     1  UNL1        0.0010
     30  C         17.9410  -21.1030  -11.6830 C.2     1  UNL1        0.0000
     31  C         17.8960  -22.3810  -11.1320 C.2     1  UNL1        0.0010
     32  C         19.0300  -22.9210  -10.5210 C.2     1  UNL1        0.0090
@<TRIPOS>BOND
     1    22    21    1
     2    23    21    2
     3    23    24    1
     4    21    20    1
     5    25    24    1
     6    24    26    2
     7    20    19    2
     8    26    19    1
     9    19    17    1
    10    18    17    1
    11    17    15   am
    12    30    29    2
    13    30    31    1
    14    29    28    1
    15    31    32    2
    16    28    27    2
    17    32    27    1
    18    15    16    2
    19    15     1    1
    20    27     1    1
    21     1     2    1
    22     2     3    1
    23     2     4    1
    24     5     4    2
    25     5     6    1
    26     4     9    1
    27    13    11    1
    28     6     7    2
    29     9     8    2
    30    11    12    1
    31    11    10   am
    32     7     8    1
    33     7    10    1
    34    10    14    2
