@<TRIPOS>MOLECULE
60401_out_ligand_01.pdbqt
 37 40 0 0 0
SMALL
GASTEIGER

@<TRIPOS>ATOM
      1  C         19.6330  -21.5100   -6.2200 C.3     1  UNL1        0.2560
      2  C         20.5060  -22.2660   -7.1970 C.2     1  UNL1        0.1720
      3  N         20.1170  -23.4870   -7.5690 N.2     1  UNL1       -0.2000
      4  C         20.9040  -24.0730   -8.4580 C.cat   1  UNL1        0.2190
      5  N         22.0200  -23.5530   -8.9420 N.2     1  UNL1       -0.0310
      6  C         22.3150  -22.3200   -8.5460 C.cat   1  UNL1        0.7310
      7  N         21.5940  -21.6490   -7.6540 N.pl3   1  UNL1       -0.0450
      8  N         20.5320  -25.3150   -8.9150 N.pl3   1  UNL1       -0.2700
      9  H         19.7880  -25.2740   -9.5980 H       1  UNL1        0.1270
     10  H         20.4600  -25.9950   -8.1720 H       1  UNL1        0.1270
     11  N         23.4430  -21.7590   -9.1500 N.pl3   1  UNL1       -0.1880
     12  H         24.1590  -21.6560   -8.4410 H       1  UNL1        0.1840
     13  C         23.8790  -21.6880  -10.4820 C.2     1  UNL1        0.0490
     14  C         25.2050  -21.3150  -10.7260 C.2     1  UNL1        0.0300
     15  C         25.7030  -21.2150  -12.0270 C.2     1  UNL1        0.0090
     16  C         24.8710  -21.4570  -13.1240 C.2     1  UNL1       -0.0620
     17  C         25.4050  -21.3910  -14.5170 C.3     1  UNL1        0.0480
     18  C         23.5470  -21.8180  -12.8950 C.2     1  UNL1        0.0090
     19  C         23.0580  -21.9170  -11.5940 C.2     1  UNL1        0.0300
     20  O         18.2240  -21.6420   -6.4940 O.2     1  UNL1       -0.3430
     21  C         17.4360  -22.2150   -5.5250 C.2     1  UNL1        0.0850
     22  C         17.5810  -21.9320   -4.1590 C.2     1  UNL1        0.0380
     23  C         16.7680  -22.5750   -3.2190 C.2     1  UNL1        0.0030
     24  C         15.8270  -23.5260   -3.6260 C.2     1  UNL1        0.0010
     25  C         15.6890  -23.8320   -4.9780 C.2     1  UNL1        0.0200
     26  C         16.4830  -23.1750   -5.9330 C.2     1  UNL1        0.0650
     27  C         16.2470  -23.5350   -7.3600 C.2     1  UNL1        0.2540
     28  O         16.0590  -24.7050   -7.6730 O.2     1  UNL1       -0.2680
     29  N         16.2100  -22.4890   -8.2500 N.am    1  UNL1       -0.3530
     30  H         16.3450  -21.5480   -7.9040 H       1  UNL1        0.1630
     31  C         15.9720  -22.6730   -9.6570 C.3     1  UNL1        0.1610
     32  C         17.1500  -22.1920  -10.4610 C.2     1  UNL1       -0.0410
     33  C         17.0730  -20.9700  -11.1450 C.2     1  UNL1        0.0090
     34  C         18.1630  -20.4980  -11.8750 C.2     1  UNL1        0.0010
     35  C         19.3410  -21.2400  -11.9300 C.2     1  UNL1        0.0000
     36  C         19.4310  -22.4580  -11.2560 C.2     1  UNL1        0.0010
     37  C         18.3420  -22.9300  -10.5170 C.2     1  UNL1        0.0090
@<TRIPOS>BOND
     1    17    16    1
     2    16    18    2
     3    16    15    1
     4    18    19    1
     5    15    14    2
     6    35    34    2
     7    35    36    1
     8    34    33    1
     9    19    13    2
    10    36    37    2
    11    33    32    2
    12    14    13    1
    13    37    32    1
    14    13    11    1
    15    32    31    1
    16    31    29    1
    17     9     8    1
    18    11     6    1
    19    11    12    1
    20     5     6    2
    21     5     4    1
    22     8     4    1
    23     8    10    1
    24     6     7    1
    25     4     3    2
    26    29    30    1
    27    29    27   am
    28    28    27    2
    29     7     2    1
    30     3     2    2
    31    27    26    1
    32     2     1    1
    33    20     1    1
    34    20    21    1
    35    26    21    2
    36    26    25    1
    37    21    22    1
    38    25    24    2
    39    22    23    2
    40    24    23    1
