@<TRIPOS>MOLECULE
60418_out_ligand_01.pdbqt
 35 38 0 0 0
SMALL
GASTEIGER

@<TRIPOS>ATOM
      1  C         19.5870  -22.8190   -9.1180 C.2     1  UNL1        0.0320
      2  C         20.5950  -23.6210   -8.5650 C.2     1  UNL1        0.0190
      3  C         21.8160  -23.7730   -9.2260 C.2     1  UNL1        0.0310
      4  C         22.0290  -23.1280  -10.4440 C.2     1  UNL1        0.0420
      5  C         21.0240  -22.3440  -11.0120 C.2     1  UNL1        0.0310
      6  C         19.8010  -22.1910  -10.3530 C.2     1  UNL1        0.0190
      7  N         23.2540  -23.3260  -11.1330 N.pl3   1  UNL1       -0.2810
      8  H         23.5950  -24.2830  -11.2240 H       1  UNL1        0.1790
      9  S         24.5340  -22.2730  -10.7880 S.O2    1  UNL1        0.2630
     10  O         24.0830  -21.2490   -9.8720 O.2     1  UNL1       -0.2000
     11  O         25.6660  -23.1160  -10.4670 O.2     1  UNL1       -0.2000
     12  C         24.8570  -21.5300  -12.3690 C.2     1  UNL1        0.0820
     13  C         25.7290  -20.4150  -12.4390 C.2     1  UNL1        0.0280
     14  C         25.9970  -19.7960  -13.6640 C.2     1  UNL1        0.0330
     15  C         25.3680  -20.3200  -14.7700 C.ar    1  UNL1        0.0630
     16  N         25.4370  -19.9240  -16.1000 N.ar    1  UNL1       -0.3070
     17  C         24.5010  -21.4110  -14.6920 C.ar    1  UNL1        0.0640
     18  C         24.6130  -20.7630  -16.8660 C.ar    1  UNL1        0.3250
     19  H         25.9710  -19.1640  -16.4880 H       1  UNL1        0.1700
     20  O         24.4330  -20.7030  -18.0670 O.2     1  UNL1       -0.2470
     21  N         24.0400  -21.6840  -15.9740 N.ar    1  UNL1       -0.3060
     22  H         23.4010  -22.4090  -16.2560 H       1  UNL1        0.1700
     23  C         24.2140  -22.0410  -13.5060 C.2     1  UNL1        0.0570
     24  C         18.2950  -22.6970   -8.3850 C.2     1  UNL1        0.2560
     25  N         18.3270  -23.1230   -7.0700 N.am    1  UNL1       -0.3220
     26  H         19.1780  -23.5770   -6.7680 H       1  UNL1        0.1690
     27  O         17.3250  -22.2730   -9.0010 O.2     1  UNL1       -0.2670
     28  C         17.2760  -23.0850   -6.1210 C.2     1  UNL1        0.0430
     29  C         16.1150  -23.8520   -6.2600 C.2     1  UNL1        0.0720
     30  C         15.1040  -23.7760   -5.3060 C.2     1  UNL1        0.1180
     31  C         15.2170  -22.9450   -4.2040 C.2     1  UNL1        0.0430
     32  F         13.9980  -24.5180   -5.4550 F       1  UNL1       -0.2060
     33  C         16.3640  -22.1710   -4.0510 C.2     1  UNL1        0.0120
     34  C         17.4010  -22.2280   -5.0010 C.2     1  UNL1       -0.0350
     35  C         18.6150  -21.3640   -4.7770 C.3     1  UNL1        0.0500
@<TRIPOS>BOND
     1    20    18    2
     2    18    16   ar
     3    18    21   ar
     4    19    16    1
     5    22    21    1
     6    16    15   ar
     7    21    17   ar
     8    15    17   ar
     9    15    14    1
    10    17    23    1
    11    14    13    2
    12    23    12    2
    13    13    12    1
    14    12     9    1
    15     8     7    1
    16     7     9    1
    17     7     4    1
    18     5     4    2
    19     5     6    1
    20     9    11    2
    21     9    10    2
    22     4     3    1
    23     6     1    2
    24     3     2    2
    25     1     2    1
    26     1    24    1
    27    27    24    2
    28    24    25   am
    29    25    26    1
    30    25    28    1
    31    29    28    2
    32    29    30    1
    33    28    34    1
    34    32    30    1
    35    30    31    2
    36    34    35    1
    37    34    33    2
    38    31    33    1
