@<TRIPOS>MOLECULE
60424_out_ligand_01.pdbqt
 38 41 0 0 0
SMALL
GASTEIGER

@<TRIPOS>ATOM
      1  C         22.6720  -21.9170  -11.7500 C.ar    1  UNL1        0.1920
      2  N         23.7810  -22.2030  -11.1090 N.ar    1  UNL1       -0.1230
      3  N         23.4430  -22.6880   -9.8770 N.ar    1  UNL1       -0.1330
      4  C         22.1280  -22.6820   -9.7780 C.ar    1  UNL1        0.1440
      5  N         21.5860  -22.2390  -10.9730 N.ar    1  UNL1       -0.3050
      6  S         22.5990  -21.2290  -13.3340 S.3     1  UNL1       -0.0820
      7  C         24.3610  -21.2990  -13.7970 C.3     1  UNL1        0.1630
      8  C         24.6230  -22.3820  -14.8150 C.2     1  UNL1        0.1420
      9  N         25.3360  -23.4410  -14.4240 N.2     1  UNL1       -0.2020
     10  C         25.5350  -24.3590  -15.3560 C.cat   1  UNL1        0.2030
     11  N         25.0590  -24.3080  -16.5900 N.2     1  UNL1       -0.1880
     12  C         24.3460  -23.2300  -16.8730 C.cat   1  UNL1        0.2030
     13  N         24.1100  -22.2290  -16.0400 N.pl3   1  UNL1       -0.2020
     14  N         26.2630  -25.4760  -14.9970 N.pl3   1  UNL1       -0.2700
     15  H         25.8460  -26.3070  -15.3940 H       1  UNL1        0.1270
     16  H         26.4350  -25.4750  -14.0020 H       1  UNL1        0.1270
     17  N         23.8330  -23.1230  -18.1510 N.pl3   1  UNL1       -0.2700
     18  H         24.5130  -23.4470  -18.8250 H       1  UNL1        0.1270
     19  H         22.9100  -23.5330  -18.1920 H       1  UNL1        0.1270
     20  C         20.1650  -22.1080  -11.2720 C.3     1  UNL1        0.0930
     21  C         19.6850  -20.6500  -11.4370 C.3     1  UNL1        0.0260
     22  C         18.2220  -20.4570  -11.0290 C.3     1  UNL1        0.0020
     23  C         17.3630  -21.6430  -11.4480 C.3     1  UNL1        0.0000
     24  C         17.8250  -22.9550  -10.8100 C.3     1  UNL1        0.0020
     25  C         19.2770  -22.9270  -10.3270 C.3     1  UNL1        0.0260
     26  C         21.3640  -23.0700   -8.5510 C.3     1  UNL1        0.1730
     27  N         21.0470  -21.9990   -7.6010 N.pl3   1  UNL1       -0.2860
     28  H         21.1950  -21.0770   -8.0090 H       1  UNL1        0.1280
     29  C         19.8720  -22.0140   -6.8450 C.2     1  UNL1        0.0090
     30  C         19.7590  -21.0940   -5.7910 C.2     1  UNL1        0.0230
     31  C         18.6530  -21.0860   -4.9390 C.2     1  UNL1        0.0030
     32  C         17.6380  -22.0220   -5.1110 C.2     1  UNL1        0.0160
     33  C         17.7290  -22.9750   -6.1340 C.2     1  UNL1        0.0490
     34  C         18.8580  -22.9710   -6.9780 C.2     1  UNL1        0.0390
     35  C         16.6550  -24.0210   -6.3020 C.3     1  UNL1        0.4170
     36  F         15.8420  -23.7650   -7.3660 F       1  UNL1       -0.1660
     37  F         17.1610  -25.2690   -6.5150 F       1  UNL1       -0.1660
     38  F         15.8370  -24.1370   -5.2200 F       1  UNL1       -0.1660
@<TRIPOS>BOND
     1    18    17    1
     2    19    17    1
     3    17    12    1
     4    12    11    2
     5    12    13    1
     6    11    10    1
     7    13     8    1
     8    15    14    1
     9    10    14    1
    10    10     9    2
    11    14    16    1
    12     8     9    2
    13     8     7    1
    14     7     6    1
    15     6     1    1
    16     1     2   ar
    17     1     5   ar
    18    23    22    1
    19    23    24    1
    20    21    20    1
    21    21    22    1
    22    20     5    1
    23    20    25    1
    24     2     3   ar
    25     5     4   ar
    26    24    25    1
    27     3     4   ar
    28     4    26    1
    29    26    27    1
    30    28    27    1
    31    27    29    1
    32    36    35    1
    33    34    29    2
    34    34    33    1
    35    29    30    1
    36    37    35    1
    37    35    33    1
    38    35    38    1
    39    33    32    2
    40    30    31    2
    41    32    31    1
