@<TRIPOS>MOLECULE
60436_out_ligand_01.pdbqt
 30 33 0 0 0
SMALL
GASTEIGER

@<TRIPOS>ATOM
      1  N         20.7720  -22.6450  -10.2970 N.am    1  UNL1       -0.3220
      2  C         19.6150  -21.9010  -10.4460 C.2     1  UNL1        0.2560
      3  O         19.4360  -20.9510  -11.1960 O.2     1  UNL1       -0.2670
      4  H         20.7650  -23.3230   -9.5480 H       1  UNL1        0.1690
      5  C         18.4960  -22.3120   -9.5520 C.2     1  UNL1        0.0330
      6  C         17.3410  -22.8440  -10.1360 C.2     1  UNL1        0.0190
      7  C         16.2520  -23.2380   -9.3530 C.2     1  UNL1        0.0310
      8  C         16.3660  -23.0920   -7.9650 C.ar    1  UNL1        0.0430
      9  N         15.4630  -23.3960   -6.9670 N.ar    1  UNL1       -0.3580
     10  C         17.5140  -22.5840   -7.3490 C.ar    1  UNL1       -0.0000
     11  C         16.0040  -23.0960   -5.7490 C.ar    1  UNL1        0.0170
     12  H         14.5460  -23.7890   -7.1240 H       1  UNL1        0.1660
     13  C         17.2760  -22.6010   -5.9460 C.ar    1  UNL1       -0.0230
     14  C         15.3360  -23.3150   -4.4380 C.3     1  UNL1        0.0570
     15  C         18.1480  -22.1660   -4.8160 C.3     1  UNL1        0.0410
     16  C         17.6240  -22.7100   -3.4710 C.3     1  UNL1        0.0050
     17  C         16.0970  -22.5560   -3.3350 C.3     1  UNL1        0.0060
     18  C         18.6010  -22.1920   -8.1550 C.2     1  UNL1        0.0310
     19  C         21.9890  -22.5200  -11.0100 C.2     1  UNL1        0.0420
     20  C         22.0550  -21.9810  -12.3000 C.2     1  UNL1        0.0470
     21  C         23.2770  -21.8910  -12.9810 C.2     1  UNL1        0.0340
     22  C         24.4520  -22.3220  -12.3660 C.2     1  UNL1        0.0170
     23  C         24.4030  -22.8570  -11.0800 C.2     1  UNL1        0.0100
     24  C         23.1810  -22.9660  -10.3920 C.2     1  UNL1       -0.0350
     25  C         23.2000  -23.5540   -9.0050 C.3     1  UNL1        0.0500
     26  C         23.2940  -21.3100  -14.3490 C.2     1  UNL1        0.2490
     27  N         22.6100  -20.1390  -14.5350 N.am    1  UNL1       -0.3660
     28  H         22.3660  -19.5460  -13.7550 H       1  UNL1        0.1590
     29  H         22.7600  -19.6900  -15.4300 H       1  UNL1        0.1590
     30  O         23.9130  -21.8250  -15.2700 O.2     1  UNL1       -0.2680
@<TRIPOS>BOND
     1    29    27    1
     2    30    26    2
     3    27    26   am
     4    27    28    1
     5    26    21    1
     6    21    22    2
     7    21    20    1
     8    22    23    1
     9    20    19    2
    10     3     2    2
    11    23    24    2
    12    19    24    1
    13    19     1    1
    14     2     1   am
    15     2     5    1
    16    24    25    1
    17     1     4    1
    18     6     5    2
    19     6     7    1
    20     5    18    1
    21     7     8    2
    22    18    10    2
    23     8    10   ar
    24     8     9   ar
    25    10    13   ar
    26    12     9    1
    27     9    11   ar
    28    13    11   ar
    29    13    15    1
    30    11    14    1
    31    15    16    1
    32    14    17    1
    33    16    17    1
