@<TRIPOS>MOLECULE
60444_out_ligand_01.pdbqt
 29 31 0 0 0
SMALL
GASTEIGER

@<TRIPOS>ATOM
      1  O         20.9430  -22.9070   -8.3700 O.3     1  UNL1       -0.2970
      2  C         20.2140  -24.0180   -8.1260 C.2     1  UNL1        0.2940
      3  O         20.4860  -25.1520   -8.4880 O.2     1  UNL1       -0.2590
      4  C         19.0140  -23.6820   -7.3110 C.2     1  UNL1        0.0390
      5  C         17.9800  -24.6280   -7.2380 C.2     1  UNL1        0.0190
      6  C         16.8320  -24.3640   -6.4860 C.2     1  UNL1        0.0260
      7  C         16.7160  -23.1460   -5.8120 C.2     1  UNL1        0.0740
      8  C         17.7430  -22.2000   -5.8660 C.2     1  UNL1        0.0260
      9  C         18.8910  -22.4670   -6.6200 C.2     1  UNL1        0.0190
     10  S         15.2790  -22.8210   -4.8310 S.O2    1  UNL1        0.2390
     11  O         14.4690  -21.8260   -5.4940 O.2     1  UNL1       -0.2060
     12  O         14.7360  -24.0730   -4.3580 O.2     1  UNL1       -0.2060
     13  N         15.9420  -22.0630   -3.4900 N.3     1  UNL1       -0.2250
     14  H         15.5540  -21.1240   -3.3940 H       1  UNL1        0.1360
     15  H         15.8130  -22.6460   -2.6610 H       1  UNL1        0.1360
     16  C         21.4020  -22.7390   -9.7230 C.3     1  UNL1        0.2570
     17  C         22.7040  -21.9000   -9.6970 C.2     1  UNL1        0.2540
     18  O         22.9330  -21.0360   -8.8480 O.2     1  UNL1       -0.2700
     19  N         23.6320  -22.1580  -10.6960 N.am    1  UNL1       -0.3500
     20  C         23.5140  -23.0990  -11.8000 C.3     1  UNL1        0.1260
     21  C         24.8930  -21.4380  -10.7490 C.3     1  UNL1        0.1260
     22  C         24.6550  -22.7250  -12.7370 C.3     1  UNL1        0.0210
     23  C         25.7160  -22.1910  -11.7840 C.3     1  UNL1        0.0210
     24  C         20.2620  -22.1140  -10.5130 C.2     1  UNL1       -0.0200
     25  C         18.9660  -22.6480  -10.4150 C.2     1  UNL1        0.0100
     26  C         17.9030  -22.0670  -11.1080 C.2     1  UNL1        0.0010
     27  C         18.1170  -20.9420  -11.9020 C.2     1  UNL1        0.0000
     28  C         19.3940  -20.3960  -12.0020 C.2     1  UNL1        0.0010
     29  C         20.4580  -20.9740  -11.3080 C.2     1  UNL1        0.0100
@<TRIPOS>BOND
     1    22    20    1
     2    22    23    1
     3    28    27    2
     4    28    29    1
     5    27    26    1
     6    20    19    1
     7    23    21    1
     8    29    24    2
     9    26    25    2
    10    21    19    1
    11    19    17   am
    12    24    25    1
    13    24    16    1
    14    16    17    1
    15    16     1    1
    16    17    18    2
    17     3     2    2
    18     1     2    1
    19     2     4    1
    20     4     5    2
    21     4     9    1
    22     5     6    1
    23     9     8    2
    24     6     7    2
    25     8     7    1
    26     7    10    1
    27    11    10    2
    28    10    12    2
    29    10    13    1
    30    13    14    1
    31    13    15    1
