@<TRIPOS>MOLECULE
60458_out_ligand_01.pdbqt
 33 35 0 0 0
SMALL
GASTEIGER

@<TRIPOS>ATOM
      1  N         24.2390  -23.2610  -10.6560 N.am    1  UNL1       -0.3250
      2  C         23.7030  -22.3350   -9.7780 C.2     1  UNL1        0.2500
      3  O         23.8570  -21.1190   -9.8030 O.2     1  UNL1       -0.2710
      4  H         24.1000  -24.2210  -10.3470 H       1  UNL1        0.1690
      5  C         22.8090  -23.0110   -8.7320 C.3     1  UNL1        0.3720
      6  N         21.4890  -22.3430   -8.7050 N.3     1  UNL1        0.1010
      7  H         21.4780  -21.6430   -9.4470 H       1  UNL1        0.3170
      8  C         20.3880  -23.3090   -8.8690 C.3     1  UNL1        0.2580
      9  C         19.4730  -23.1660   -7.6580 C.2     1  UNL1       -0.0250
     10  C         18.5640  -24.1770   -7.3020 C.2     1  UNL1        0.0090
     11  C         17.7250  -24.0280   -6.1960 C.2     1  UNL1        0.0010
     12  C         17.7760  -22.8620   -5.4380 C.2     1  UNL1        0.0000
     13  C         18.6600  -21.8430   -5.7850 C.2     1  UNL1        0.0010
     14  C         19.5030  -21.9930   -6.8880 C.2     1  UNL1        0.0090
     15  C         19.6510  -23.1210  -10.2410 C.3     1  UNL1        0.0230
     16  C         20.5620  -22.4970  -11.3270 C.3     1  UNL1        0.0070
     17  C         20.4570  -20.9780  -11.3720 C.3     1  UNL1        0.0000
     18  C         19.0420  -20.5180  -11.7250 C.3     1  UNL1        0.0000
     19  C         17.9650  -21.5240  -11.3200 C.3     1  UNL1        0.0000
     20  C         18.3560  -22.2840  -10.0580 C.3     1  UNL1        0.0070
     21  C         24.9960  -23.0310  -11.8200 C.2     1  UNL1        0.0420
     22  C         24.4410  -22.4420  -12.9600 C.2     1  UNL1        0.0540
     23  C         25.2290  -22.2220  -14.0950 C.2     1  UNL1        0.0760
     24  C         26.5670  -22.6010  -14.1220 C.2     1  UNL1        0.0250
     25  C         27.1210  -23.2090  -12.9990 C.2     1  UNL1        0.0100
     26  C         26.3500  -23.4300  -11.8420 C.2     1  UNL1       -0.0350
     27  C         27.0050  -24.1020  -10.6620 C.3     1  UNL1        0.0500
     28  S         24.4940  -21.4650  -15.5170 S.O2    1  UNL1        0.2390
     29  O         25.4510  -20.5490  -16.0930 O.2     1  UNL1       -0.2060
     30  O         23.8520  -22.4960  -16.2910 O.2     1  UNL1       -0.2060
     31  N         23.3090  -20.4820  -14.8390 N.3     1  UNL1       -0.2250
     32  H         22.4070  -20.7110  -15.2520 H       1  UNL1        0.1360
     33  H         23.5200  -19.4870  -14.8970 H       1  UNL1        0.1360
@<TRIPOS>BOND
     1    30    28    2
     2    29    28    2
     3    28    31    1
     4    28    23    1
     5    32    31    1
     6    33    31    1
     7    24    23    2
     8    24    25    1
     9    23    22    1
    10    25    26    2
    11    22    21    2
    12    26    21    1
    13    26    27    1
    14    21     1    1
    15    18    17    1
    16    18    19    1
    17    17    16    1
    18    16    15    1
    19    19    20    1
    20     1     4    1
    21     1     2   am
    22    15    20    1
    23    15     8    1
    24     3     2    2
    25     2     5    1
    26     7     6    1
    27     8     6    1
    28     8     9    1
    29     5     6    1
    30     9    10    2
    31     9    14    1
    32    10    11    1
    33    14    13    2
    34    11    12    2
    35    13    12    1
