@<TRIPOS>MOLECULE
60473_out_ligand_01.pdbqt
 31 34 0 0 0
SMALL
GASTEIGER

@<TRIPOS>ATOM
      1  N         20.3390  -21.9680  -10.4070 N.am    1  UNL1       -0.3220
      2  C         19.6860  -23.0360   -9.8180 C.2     1  UNL1        0.2580
      3  O         20.1620  -24.1380   -9.5680 O.2     1  UNL1       -0.2670
      4  H         19.7580  -21.1900  -10.6810 H       1  UNL1        0.1690
      5  C         18.2400  -22.8100   -9.5220 C.2     1  UNL1        0.0590
      6  C         17.3090  -22.3980  -10.4920 C.2     1  UNL1        0.0190
      7  C         15.9650  -22.2220  -10.1650 C.2     1  UNL1        0.0020
      8  C         15.5110  -22.4420   -8.8600 C.2     1  UNL1        0.0140
      9  C         16.4260  -22.8260   -7.8580 C.ar    1  UNL1       -0.0000
     10  C         16.3120  -23.1110   -6.4580 C.ar    1  UNL1       -0.0230
     11  C         17.7650  -22.9890   -8.2100 C.ar    1  UNL1        0.0590
     12  C         17.5860  -23.4060   -5.9970 C.ar    1  UNL1        0.0170
     13  C         15.0580  -23.0720   -5.6380 C.3     1  UNL1        0.0410
     14  N         18.4440  -23.3310   -7.0630 N.ar    1  UNL1       -0.3580
     15  C         18.0720  -23.7520   -4.6270 C.3     1  UNL1        0.0570
     16  H         19.4490  -23.4680   -7.0360 H       1  UNL1        0.1660
     17  C         17.2620  -23.0540   -3.5370 C.3     1  UNL1        0.0060
     18  C         15.8840  -23.6690   -3.2690 C.3     1  UNL1        0.0010
     19  C         15.0540  -24.0810   -4.4890 C.3     1  UNL1        0.0050
     20  C         21.7050  -21.8740  -10.7710 C.2     1  UNL1        0.0420
     21  C         22.1290  -21.8420  -12.1060 C.2     1  UNL1        0.0470
     22  C         23.4920  -21.7670  -12.4290 C.2     1  UNL1        0.0340
     23  C         24.4460  -21.7010  -11.4130 C.2     1  UNL1        0.0170
     24  C         24.0380  -21.7310  -10.0810 C.2     1  UNL1        0.0100
     25  C         22.6760  -21.8220   -9.7440 C.2     1  UNL1       -0.0350
     26  C         22.3080  -21.8500   -8.2840 C.3     1  UNL1        0.0500
     27  C         23.8860  -21.7340  -13.8620 C.2     1  UNL1        0.2490
     28  N         23.3300  -20.7510  -14.6360 N.am    1  UNL1       -0.3660
     29  H         22.9210  -19.9240  -14.2250 H       1  UNL1        0.1590
     30  H         23.7220  -20.6600  -15.5650 H       1  UNL1        0.1590
     31  O         24.6930  -22.5200  -14.3360 O.2     1  UNL1       -0.2680
@<TRIPOS>BOND
     1    30    28    1
     2    28    29    1
     3    28    27   am
     4    31    27    2
     5    27    22    1
     6    22    21    1
     7    22    23    2
     8    21    20    2
     9    23    24    1
    10    20     1    1
    11    20    25    1
    12     4     1    1
    13     6     7    1
    14     6     5    2
    15     1     2   am
    16     7     8    2
    17    24    25    2
    18     2     3    2
    19     2     5    1
    20    25    26    1
    21     5    11    1
    22     8     9    1
    23    11     9   ar
    24    11    14   ar
    25     9    10   ar
    26    14    16    1
    27    14    12   ar
    28    10    12   ar
    29    10    13    1
    30    12    15    1
    31    13    19    1
    32    15    17    1
    33    19    18    1
    34    17    18    1
