@<TRIPOS>MOLECULE
60500_out_ligand_01.pdbqt
 30 32 0 0 0
SMALL
GASTEIGER

@<TRIPOS>ATOM
      1  C         21.1880  -22.1390  -11.0460 C.2     1  UNL1        0.0350
      2  C         20.3130  -21.2570  -11.6810 C.2     1  UNL1        0.0300
      3  C         18.9410  -21.2980  -11.4050 C.2     1  UNL1        0.0110
      4  C         18.4210  -22.2180  -10.4880 C.2     1  UNL1       -0.0400
      5  C         19.2980  -23.1050   -9.8530 C.2     1  UNL1        0.0110
      6  C         20.6680  -23.0600  -10.1300 C.2     1  UNL1        0.0300
      7  C         16.9380  -22.2730  -10.2310 C.3     1  UNL1        0.1610
      8  N         16.6700  -22.1780   -8.8150 N.am    1  UNL1       -0.3530
      9  C         15.9620  -23.1600   -8.1660 C.2     1  UNL1        0.2520
     10  O         15.5840  -24.1990   -8.6890 O.2     1  UNL1       -0.2680
     11  H         16.7530  -21.2650   -8.3850 H       1  UNL1        0.1630
     12  C         15.6530  -22.8880   -6.7400 C.2     1  UNL1        0.0470
     13  C         14.4780  -22.1820   -6.4320 C.2     1  UNL1        0.0180
     14  C         14.1700  -21.8770   -5.1090 C.2     1  UNL1        0.0010
     15  C         15.0320  -22.2660   -4.0870 C.2     1  UNL1        0.0010
     16  C         16.2030  -22.9600   -4.3900 C.2     1  UNL1        0.0170
     17  C         16.5300  -23.2900   -5.7200 C.2     1  UNL1        0.0630
     18  C         17.7900  -24.0670   -6.0090 C.3     1  UNL1        0.4180
     19  F         18.3370  -24.5900   -4.8680 F       1  UNL1       -0.1660
     20  F         17.5950  -25.1430   -6.8180 F       1  UNL1       -0.1660
     21  F         18.7790  -23.3170   -6.5610 F       1  UNL1       -0.1660
     22  N         22.5770  -22.1620  -11.2640 N.am    1  UNL1       -0.3210
     23  C         23.5880  -21.7090  -10.4360 C.2     1  UNL1        0.2790
     24  O         23.4270  -21.1720   -9.3450 O.2     1  UNL1       -0.2650
     25  H         22.9000  -22.5490  -12.1460 H       1  UNL1        0.1690
     26  C         24.9090  -21.9300  -10.9970 C.2     1  UNL1        0.1420
     27  C         25.9860  -21.0770  -11.1520 C.2     1  UNL1        0.0450
     28  C         27.0220  -21.8310  -11.7510 C.2     1  UNL1        0.0270
     29  C         26.5160  -23.0960  -11.9390 C.2     1  UNL1        0.1430
     30  O         25.2390  -23.1730  -11.4830 O.2     1  UNL1       -0.3170
@<TRIPOS>BOND
     1    25    22    1
     2    29    28    2
     3    29    30    1
     4    28    27    1
     5     2     3    1
     6     2     1    2
     7    30    26    1
     8     3     4    2
     9    22     1    1
    10    22    23   am
    11    27    26    2
    12     1     6    1
    13    26    23    1
    14     4     7    1
    15     4     5    1
    16    23    24    2
    17     7     8    1
    18     6     5    2
    19     8    11    1
    20     8     9   am
    21    10     9    2
    22     9    12    1
    23    20    18    1
    24    12    13    2
    25    12    17    1
    26    21    18    1
    27    13    14    1
    28    18    17    1
    29    18    19    1
    30    17    16    2
    31    14    15    2
    32    16    15    1
