@<TRIPOS>MOLECULE
60533_out_ligand_01.pdbqt
 36 41 0 0 0
SMALL
GASTEIGER

@<TRIPOS>ATOM
      1  C         22.3700  -22.0830  -11.7480 C.2     1  UNL1        0.0760
      2  C         21.5040  -21.3510  -12.5910 C.2     1  UNL1        0.1590
      3  N         20.2940  -21.1530  -12.0750 N.2     1  UNL1       -0.1640
      4  N         20.3020  -21.8820  -10.9150 N.pl3   1  UNL1       -0.0630
      5  C         21.5880  -22.3200  -10.6280 C.2     1  UNL1        0.0760
      6  C         19.0840  -22.1560  -10.1930 C.cat   1  UNL1        0.7500
      7  N         18.0220  -22.6130  -10.8940 N.2     1  UNL1       -0.0730
      8  C         16.9290  -22.9580  -10.1910 C.2     1  UNL1        0.1460
      9  C         16.8540  -22.8970   -8.8170 C.2     1  UNL1       -0.0100
     10  C         17.9910  -22.4240   -8.1730 C.2     1  UNL1        0.0940
     11  C         15.6250  -23.3130   -8.0640 C.3     1  UNL1        0.0430
     12  N         19.0920  -22.0240   -8.8480 N.2     1  UNL1       -0.0600
     13  C         18.0960  -22.3790   -6.6990 C.2     1  UNL1        0.0000
     14  C         18.6200  -21.2400   -6.0600 C.2     1  UNL1        0.0140
     15  C         17.6770  -23.4680   -5.8920 C.2     1  UNL1       -0.0460
     16  C         18.7240  -21.1730   -4.6700 C.2     1  UNL1        0.0010
     17  C         18.3050  -22.2440   -3.8880 C.2     1  UNL1        0.0010
     18  C         17.7850  -23.3870   -4.4940 C.2     1  UNL1        0.0080
     19  C         17.1590  -24.7400   -6.5240 C.3     1  UNL1        0.0400
     20  C         15.8100  -24.5870   -7.2320 C.3     1  UNL1        0.0090
     21  C         22.0590  -22.9710   -9.2900 C.3     1  UNL1        0.0390
     22  C         22.4050  -22.0440   -8.1460 C.3     1  UNL1        0.0110
     23  C         23.4890  -22.8110   -8.8320 C.3     1  UNL1        0.0110
     24  C         23.7460  -22.4980  -11.9810 C.2     1  UNL1        0.2550
     25  O         24.0460  -23.6070  -12.4120 O.2     1  UNL1       -0.2680
     26  N         24.7010  -21.5480  -11.6790 N.am    1  UNL1       -0.3570
     27  H         24.4260  -20.6740  -11.2550 H       1  UNL1        0.1620
     28  C         26.1170  -21.8130  -11.8420 C.3     1  UNL1        0.1240
     29  C         26.8410  -20.7370  -12.6480 C.3     1  UNL1        0.0390
     30  C         26.1560  -20.3610  -13.9650 C.3     1  UNL1        0.1270
     31  N         25.8220  -21.4950  -14.8110 N.am    1  UNL1       -0.3520
     32  C         26.7840  -22.4860  -15.2180 C.3     1  UNL1        0.1260
     33  C         25.9180  -23.6120  -15.7500 C.3     1  UNL1        0.0290
     34  C         24.6870  -22.9010  -16.2960 C.3     1  UNL1        0.1040
     35  C         24.5880  -21.6770  -15.4190 C.2     1  UNL1        0.2190
     36  O         23.6080  -20.9580  -15.3140 O.2     1  UNL1       -0.2730
@<TRIPOS>BOND
     1    34    33    1
     2    34    35    1
     3    33    32    1
     4    35    36    2
     5    35    31   am
     6    32    31    1
     7    31    30    1
     8    30    29    1
     9    29    28    1
    10     2     3    2
    11     2     1    1
    12    25    24    2
    13     3     4    1
    14    24     1    1
    15    24    26   am
    16    28    26    1
    17     1     5    2
    18    26    27    1
    19     4     5    1
    20     4     6    1
    21     7     6    2
    22     7     8    1
    23     5    21    1
    24     6    12    1
    25     8     9    2
    26    21    23    1
    27    21    22    1
    28    12    10    2
    29    23    22    1
    30     9    10    1
    31     9    11    1
    32    10    13    1
    33    11    20    1
    34    20    19    1
    35    13    14    2
    36    13    15    1
    37    19    15    1
    38    14    16    1
    39    15    18    2
    40    16    17    2
    41    18    17    1
