@<TRIPOS>MOLECULE
60541_out_ligand_01.pdbqt
 35 39 0 0 0
SMALL
GASTEIGER

@<TRIPOS>ATOM
      1  C         17.0090  -21.7840  -10.6650 C.3     1  UNL1        0.0710
      2  C         18.4870  -21.7240  -10.9310 C.2     1  UNL1        0.0380
      3  N         18.8690  -20.7800  -11.8280 N.2     1  UNL1       -0.2650
      4  C         20.1820  -20.6830  -12.1150 C.2     1  UNL1        0.1260
      5  C         21.1640  -21.4820  -11.5500 C.2     1  UNL1       -0.0060
      6  C         20.7650  -22.4680  -10.6340 C.2     1  UNL1       -0.0370
      7  C         19.3970  -22.5840  -10.2910 C.2     1  UNL1       -0.0090
      8  C         21.8300  -23.3370  -10.0040 C.3     1  UNL1        0.0700
      9  C         23.1740  -23.2950  -10.7470 C.3     1  UNL1        0.2770
     10  N         23.5690  -21.9060  -11.0380 N.3     1  UNL1        0.0970
     11  C         22.5980  -21.3300  -11.9940 C.3     1  UNL1        0.3130
     12  C         18.9090  -23.6320   -9.3230 C.3     1  UNL1        0.1640
     13  N         18.9770  -23.1350   -7.9680 N.am    1  UNL1       -0.3520
     14  C         17.8630  -23.0370   -7.1680 C.2     1  UNL1        0.2550
     15  O         16.7540  -23.4230   -7.5230 O.2     1  UNL1       -0.2680
     16  H         19.8520  -22.7250   -7.6570 H       1  UNL1        0.1630
     17  C         18.0440  -22.4310   -5.8180 C.2     1  UNL1        0.0700
     18  C         18.8350  -21.2760   -5.7070 C.2     1  UNL1        0.0200
     19  C         19.0360  -20.6710   -4.4630 C.2     1  UNL1        0.0010
     20  C         18.4540  -21.2150   -3.3190 C.2     1  UNL1        0.0030
     21  C         17.6680  -22.3620   -3.4190 C.2     1  UNL1        0.0430
     22  C         17.4690  -22.9620   -4.6620 C.2     1  UNL1        0.1320
     23  F         16.7170  -24.0730   -4.7080 F       1  UNL1       -0.2050
     24  C         24.9350  -21.8700  -11.6030 C.3     1  UNL1        0.3170
     25  C         25.0150  -21.5210  -13.0650 C.2     1  UNL1        0.0430
     26  C         25.1600  -20.2950  -13.5890 C.2     1  UNL1        0.1550
     27  O         25.2200  -19.9710  -14.9220 O.2     1  UNL1       -0.3210
     28  C         25.0960  -20.9910  -15.8300 C.2     1  UNL1        0.0890
     29  C         25.1270  -20.6510  -17.1830 C.2     1  UNL1        0.0380
     30  C         24.9480  -22.3230  -15.4520 C.2     1  UNL1        0.0480
     31  C         25.0050  -21.6470  -18.1530 C.2     1  UNL1        0.0030
     32  C         24.8550  -22.9830  -17.7730 C.2     1  UNL1        0.0010
     33  C         24.8270  -23.3250  -16.4200 C.2     1  UNL1        0.0180
     34  C         24.9190  -22.6560  -14.0170 C.2     1  UNL1        0.1940
     35  O         24.8190  -23.8140  -13.6310 O.2     1  UNL1       -0.2870
@<TRIPOS>BOND
     1    31    32    2
     2    31    29    1
     3    32    33    1
     4    29    28    2
     5    33    30    2
     6    28    30    1
     7    28    27    1
     8    30    34    1
     9    27    26    1
    10    34    35    2
    11    34    25    1
    12    26    25    2
    13    25    24    1
    14     4     3    1
    15     4     5    2
    16    11     5    1
    17    11    10    1
    18     3     2    2
    19    24    10    1
    20     5     6    1
    21    10     9    1
    22     2     1    1
    23     2     7    1
    24     9     8    1
    25     6     7    2
    26     6     8    1
    27     7    12    1
    28    12    13    1
    29    13    16    1
    30    13    14   am
    31    15    14    2
    32    14    17    1
    33    17    18    2
    34    17    22    1
    35    18    19    1
    36    23    22    1
    37    22    21    2
    38    19    20    2
    39    21    20    1
