@<TRIPOS>MOLECULE
60542_out_ligand_01.pdbqt
 27 30 0 0 0
SMALL
GASTEIGER

@<TRIPOS>ATOM
      1  C         18.6260  -22.9450  -10.5180 C.3     1  UNL1        0.1270
      2  C         18.5160  -22.3450  -11.9260 C.3     1  UNL1        0.0320
      3  C         17.9920  -20.9350  -11.6770 C.3     1  UNL1        0.0220
      4  C         17.0380  -21.1310  -10.5120 C.3     1  UNL1        0.1270
      5  N         17.5840  -22.2480   -9.7580 N.am    1  UNL1       -0.3430
      6  C         16.9890  -22.6460   -8.5830 C.2     1  UNL1        0.2260
      7  O         16.0610  -22.0000   -8.0870 O.2     1  UNL1       -0.2730
      8  C         17.4880  -23.9040   -7.8950 C.3     1  UNL1        0.1650
      9  C         17.3800  -23.7750   -6.4210 C.ar    1  UNL1        0.0840
     10  N         16.7440  -24.7150   -5.7040 N.ar    1  UNL1       -0.1310
     11  O         16.8490  -24.3120   -4.3810 O.2     1  UNL1       -0.2120
     12  C         17.5460  -23.1470   -4.3120 C.ar    1  UNL1        0.1130
     13  C         17.8650  -22.4420   -3.1540 C.2     1  UNL1        0.0400
     14  C         17.9050  -22.7520   -5.5880 C.ar    1  UNL1        0.0270
     15  C         18.5980  -21.2620   -3.3300 C.2     1  UNL1        0.0030
     16  C         18.9740  -20.8270   -4.6050 C.2     1  UNL1        0.0010
     17  C         18.6330  -21.5610   -5.7510 C.2     1  UNL1        0.0160
     18  C         19.9810  -22.6860   -9.8980 C.2     1  UNL1        0.0060
     19  C         20.3380  -22.5330   -8.5710 C.2     1  UNL1        0.0180
     20  C         21.7360  -22.3210   -8.4010 C.2     1  UNL1        0.0260
     21  C         22.4240  -22.3140   -9.6010 C.2     1  UNL1        0.0720
     22  S         21.3530  -22.5460  -10.9210 S.3     1  UNL1       -0.0870
     23  C         23.8440  -22.1400   -9.8610 C.2     1  UNL1        0.2560
     24  N         24.6140  -23.2680   -9.7480 N.am    1  UNL1       -0.3660
     25  H         25.5660  -23.1620  -10.0700 H       1  UNL1        0.1590
     26  H         24.2010  -24.1860   -9.8170 H       1  UNL1        0.1590
     27  O         24.3930  -21.0910  -10.1880 O.2     1  UNL1       -0.2670
@<TRIPOS>BOND
     1     2     3    1
     2     2     1    1
     3     3     4    1
     4    22    18    1
     5    22    21    1
     6     1    18    1
     7     1     5    1
     8     4     5    1
     9    27    23    2
    10    25    24    1
    11    18    19    2
    12    23    24   am
    13    23    21    1
    14    26    24    1
    15     5     6   am
    16    21    20    2
    17     6     7    2
    18     6     8    1
    19    19    20    1
    20     8     9    1
    21     9    10   ar
    22     9    14   ar
    23    17    14    1
    24    17    16    2
    25    10    11   ar
    26    14    12   ar
    27    16    15    1
    28    11    12   ar
    29    12    13    1
    30    15    13    2
