@<TRIPOS>MOLECULE
60550_out_ligand_01.pdbqt
 29 32 0 0 0
SMALL
GASTEIGER

@<TRIPOS>ATOM
      1  C         23.4480  -22.7220  -11.4510 C.2     1  UNL1        0.0110
      2  C         24.0880  -22.9040  -10.2200 C.2     1  UNL1        0.0150
      3  C         23.3680  -22.7580   -9.0340 C.2     1  UNL1        0.0020
      4  C         22.0150  -22.4210   -9.0720 C.2     1  UNL1        0.0090
      5  C         21.3630  -22.2070  -10.2930 C.2     1  UNL1       -0.0400
      6  C         22.0920  -22.3700  -11.4820 C.2     1  UNL1        0.0240
      7  C         19.9020  -21.8270  -10.3350 C.3     1  UNL1        0.1550
      8  N         18.9190  -22.8980  -10.1940 N.3     1  UNL1       -0.4060
      9  C         17.6280  -22.6910  -10.8410 C.3     1  UNL1        0.1170
     10  C         16.5330  -22.1270   -9.9340 C.3     1  UNL1        0.0220
     11  C         16.4130  -22.9260   -8.6450 C.3     1  UNL1        0.0360
     12  C         17.7600  -22.9940   -7.9170 C.3     1  UNL1        0.1480
     13  C         18.8400  -23.5360   -8.8780 C.3     1  UNL1        0.1490
     14  O         17.5710  -23.8860   -6.8070 O.2     1  UNL1       -0.3270
     15  C         17.7450  -23.3210   -5.5610 C.2     1  UNL1        0.1640
     16  C         18.2460  -22.0280   -5.5470 C.2     1  UNL1        0.0580
     17  C         18.4340  -21.4030   -4.3170 C.2     1  UNL1        0.0060
     18  C         18.1100  -22.0880   -3.1530 C.2     1  UNL1        0.0190
     19  C         17.6120  -23.3760   -3.2680 C.2     1  UNL1        0.1190
     20  N         17.4200  -24.0090   -4.4460 N.2     1  UNL1       -0.2370
     21  C         24.1750  -22.8630  -12.7420 C.2     1  UNL1        0.1410
     22  N         24.8780  -24.0290  -12.9340 N.am    1  UNL1       -0.3070
     23  C         25.5560  -24.2890  -14.0860 C.2     1  UNL1        0.2480
     24  H         24.8590  -24.7810  -12.2640 H       1  UNL1        0.1700
     25  C         25.5260  -23.2170  -15.0870 C.2     1  UNL1        0.1010
     26  O         26.1490  -25.3420  -14.2870 O.2     1  UNL1       -0.2680
     27  C         24.8160  -22.1150  -14.8090 C.2     1  UNL1        0.0380
     28  C         24.7330  -20.9790  -15.7890 C.3     1  UNL1        0.0700
     29  N         24.1220  -21.9270  -13.6380 N.2     1  UNL1       -0.2350
@<TRIPOS>BOND
     1    28    27    1
     2    25    27    2
     3    25    23    1
     4    27    29    1
     5    26    23    2
     6    23    22   am
     7    29    21    2
     8    22    21    1
     9    22    24    1
    10    21     1    1
    11     6     1    2
    12     6     5    1
    13     1     2    1
    14     9     8    1
    15     9    10    1
    16     7     5    1
    17     7     8    1
    18     5     4    2
    19     2     3    2
    20     8    13    1
    21    10    11    1
    22     4     3    1
    23    13    12    1
    24    11    12    1
    25    12    14    1
    26    14    15    1
    27    15    16    1
    28    15    20    2
    29    16    17    2
    30    20    19    1
    31    17    18    1
    32    19    18    2
