@<TRIPOS>MOLECULE
60567_out_ligand_01.pdbqt
 34 39 0 0 0
SMALL
GASTEIGER

@<TRIPOS>ATOM
      1  C         18.2520  -22.1390  -10.3440 C.2     1  UNL1        0.0760
      2  C         18.3770  -20.9570  -11.1000 C.2     1  UNL1        0.1590
      3  N         19.6130  -20.7300  -11.5320 N.2     1  UNL1       -0.1640
      4  N         20.3610  -21.7350  -10.9750 N.pl3   1  UNL1       -0.0630
      5  C         19.5370  -22.6590  -10.3430 C.2     1  UNL1        0.0760
      6  C         21.8030  -21.7150  -11.0580 C.cat   1  UNL1        0.7500
      7  N         22.4890  -21.4390   -9.9240 N.2     1  UNL1       -0.0730
      8  C         23.8280  -21.5040   -9.9860 C.2     1  UNL1        0.1390
      9  C         24.5140  -21.8360  -11.1260 C.2     1  UNL1        0.0530
     10  C         23.7480  -22.0920  -12.2480 C.2     1  UNL1        0.0870
     11  N         22.3960  -22.0240  -12.2330 N.2     1  UNL1       -0.0600
     12  C         24.3560  -22.4620  -13.5350 C.2     1  UNL1       -0.0040
     13  C         25.2840  -23.5300  -13.6080 C.2     1  UNL1        0.0170
     14  C         25.8810  -23.9080  -14.8160 C.2     1  UNL1        0.0400
     15  C         25.5330  -23.2030  -15.9450 C.2     1  UNL1        0.1050
     16  C         24.6330  -22.1660  -15.8990 C.2     1  UNL1        0.1050
     17  O         26.0080  -23.4220  -17.1980 O.2     1  UNL1       -0.3230
     18  C         24.0320  -21.7730  -14.7190 C.2     1  UNL1        0.0530
     19  O         24.4260  -21.6050  -17.1210 O.2     1  UNL1       -0.3230
     20  C         25.3180  -22.3920  -17.9350 C.3     1  UNL1        0.3520
     21  C         19.9640  -24.0140   -9.6990 C.3     1  UNL1        0.0390
     22  C         21.0560  -24.0280   -8.6560 C.3     1  UNL1        0.0110
     23  C         19.6400  -24.2680   -8.2470 C.3     1  UNL1        0.0110
     24  C         17.0660  -22.6760   -9.6970 C.2     1  UNL1        0.2550
     25  O         16.3160  -23.4820  -10.2380 O.2     1  UNL1       -0.2680
     26  N         16.8440  -22.1960   -8.4220 N.am    1  UNL1       -0.3560
     27  H         17.3890  -21.4120   -8.0910 H       1  UNL1        0.1620
     28  C         15.6540  -22.5650   -7.6760 C.3     1  UNL1        0.1280
     29  C         15.8720  -23.8050   -6.8060 C.3     1  UNL1        0.0660
     30  C         16.3600  -23.4400   -5.4350 C.2     1  UNL1       -0.0160
     31  C         17.5650  -23.7650   -4.8410 C.2     1  UNL1        0.0150
     32  C         17.6780  -23.2380   -3.5220 C.2     1  UNL1        0.0080
     33  C         16.5590  -22.5230   -3.1550 C.2     1  UNL1        0.0500
     34  S         15.3790  -22.4990   -4.3920 S.3     1  UNL1       -0.1060
@<TRIPOS>BOND
     1    20    17    1
     2    20    19    1
     3    17    15    1
     4    19    16    1
     5    15    16    2
     6    15    14    1
     7    16    18    1
     8    14    13    2
     9    18    12    2
    10    13    12    1
    11    12    10    1
    12    10    11    2
    13    10     9    1
    14    11     6    1
    15     3     2    2
    16     3     4    1
    17     9     8    2
    18     2     1    1
    19     6     4    1
    20     6     7    2
    21     4     5    1
    22     1     5    2
    23     1    24    1
    24     5    21    1
    25    25    24    2
    26     8     7    1
    27    21    22    1
    28    21    23    1
    29    24    26   am
    30    22    23    1
    31    26    27    1
    32    26    28    1
    33    28    29    1
    34    29    30    1
    35    30    31    2
    36    30    34    1
    37    31    32    1
    38    34    33    1
    39    32    33    2
