@<TRIPOS>MOLECULE
60576_out_ligand_01.pdbqt
 33 36 0 0 0
SMALL
GASTEIGER

@<TRIPOS>ATOM
      1  N         21.8890  -23.6320   -9.4740 N.3     1  UNL1        0.0940
      2  C         22.1180  -22.5180   -8.5450 C.3     1  UNL1        0.2730
      3  C         23.0150  -21.4110   -9.1220 C.3     1  UNL1        0.0320
      4  C         24.0510  -21.9640  -10.0940 C.3     1  UNL1        0.0300
      5  C         23.3820  -22.7670  -11.2290 C.3     1  UNL1        0.1340
      6  C         21.9470  -23.2150  -10.8750 C.3     1  UNL1        0.2990
      7  C         20.7400  -24.4770   -9.1250 C.3     1  UNL1        0.3110
      8  C         19.4110  -23.7790   -8.9280 C.2     1  UNL1       -0.0290
      9  C         18.7470  -23.1780  -10.0070 C.2     1  UNL1        0.0090
     10  C         17.5240  -22.5330   -9.8200 C.2     1  UNL1        0.0010
     11  C         16.9480  -22.4840   -8.5510 C.2     1  UNL1        0.0120
     12  C         17.5800  -23.0850   -7.4560 C.2     1  UNL1       -0.0250
     13  C         18.8110  -23.7300   -7.6590 C.2     1  UNL1        0.0210
     14  C         16.9770  -23.0330   -6.1180 C.2     1  UNL1       -0.0200
     15  C         15.8280  -23.8040   -5.8600 C.2     1  UNL1        0.0130
     16  C         15.2160  -23.7900   -4.6060 C.2     1  UNL1        0.0010
     17  C         15.7440  -23.0040   -3.5880 C.2     1  UNL1        0.0010
     18  C         16.8820  -22.2330   -3.8230 C.2     1  UNL1        0.0070
     19  C         17.5070  -22.2350   -5.0800 C.2     1  UNL1       -0.0510
     20  C         18.7350  -21.3890   -5.2920 C.3     1  UNL1        0.0490
     21  N         23.4030  -22.0580  -12.4990 N.pl3   1  UNL1       -0.2760
     22  C         24.4500  -21.9290  -13.3620 C.2     1  UNL1        0.1470
     23  C         23.9430  -21.1710  -14.3970 C.2     1  UNL1        0.1580
     24  N         22.6260  -20.8740  -14.1250 N.2     1  UNL1       -0.1530
     25  N         22.3100  -21.4210  -12.9600 N.2     1  UNL1        0.0050
     26  C         24.6350  -20.7250  -15.5960 C.2     1  UNL1        0.2730
     27  O         24.4700  -21.2430  -16.6960 O.2     1  UNL1       -0.2660
     28  N         25.4980  -19.6760  -15.3750 N.am    1  UNL1       -0.3540
     29  H         25.5500  -19.2970  -14.4330 H       1  UNL1        0.1620
     30  C         26.2690  -19.0650  -16.4410 C.3     1  UNL1        0.1490
     31  C         26.5000  -17.5730  -16.2030 C.3     1  UNL1        0.1830
     32  O         25.6590  -16.8040  -17.0600 O.3     1  UNL1       -0.3990
     33  H         26.1970  -16.5830  -17.8400 H       1  UNL1        0.2090
@<TRIPOS>BOND
     1    33    32    1
     2    32    31    1
     3    27    26    2
     4    30    31    1
     5    30    28    1
     6    26    28   am
     7    26    23    1
     8    28    29    1
     9    23    24    1
    10    23    22    2
    11    24    25    2
    12    22    21    1
    13    25    21    1
    14    21     5    1
    15     5     6    1
    16     5     4    1
    17     6     1    1
    18     4     3    1
    19     9    10    1
    20     9     8    2
    21    10    11    2
    22     1     7    1
    23     1     2    1
    24     7     8    1
    25     3     2    1
    26     8    13    1
    27    11    12    1
    28    13    12    2
    29    12    14    1
    30    14    15    2
    31    14    19    1
    32    15    16    1
    33    20    19    1
    34    19    18    2
    35    16    17    2
    36    18    17    1
