@<TRIPOS>MOLECULE
60616_out_ligand_01.pdbqt
 29 32 0 0 0
SMALL
GASTEIGER

@<TRIPOS>ATOM
      1  C         19.6680  -20.7290   -5.7640 C.3     1  UNL1        0.0510
      2  C         19.3790  -21.9650   -6.5460 C.ar    1  UNL1       -0.0220
      3  C         18.2080  -22.7210   -6.5350 C.ar    1  UNL1        0.0520
      4  N         18.3830  -23.7290   -7.4600 N.ar    1  UNL1       -0.3540
      5  C         19.6310  -23.6800   -8.0260 C.ar    1  UNL1        0.0430
      6  C         20.2180  -24.5110   -8.9880 C.2     1  UNL1        0.0310
      7  C         21.5220  -24.2140   -9.3930 C.2     1  UNL1        0.0110
      8  C         22.2240  -23.1290   -8.8520 C.2     1  UNL1       -0.0400
      9  C         21.6010  -22.3070   -7.8950 C.2     1  UNL1        0.0230
     10  C         20.2840  -22.5860   -7.4700 C.ar    1  UNL1       -0.0010
     11  H         17.6780  -24.4160   -7.6890 H       1  UNL1        0.1660
     12  C         23.6110  -22.8020   -9.3350 C.3     1  UNL1        0.1610
     13  N         23.6620  -22.8180  -10.7750 N.am    1  UNL1       -0.3530
     14  C         24.3440  -21.8490  -11.4720 C.2     1  UNL1        0.2540
     15  O         24.9470  -20.9370  -10.9170 O.2     1  UNL1       -0.2680
     16  H         23.1840  -23.5580  -11.2650 H       1  UNL1        0.1630
     17  C         24.3000  -21.9770  -12.9180 C.2     1  UNL1        0.0680
     18  C         23.4980  -21.2200  -13.8030 C.2     1  UNL1        0.1570
     19  N         23.6680  -21.5630  -15.0840 N.2     1  UNL1       -0.1850
     20  N         24.5820  -22.5450  -15.0270 N.pl3   1  UNL1       -0.2850
     21  C         25.0240  -23.1750  -16.2470 C.3     1  UNL1        0.1790
     22  C         24.9950  -22.8330  -13.7560 C.2     1  UNL1        0.1300
     23  C         16.9590  -22.5940   -5.7700 C.2     1  UNL1        0.0300
     24  C         15.7390  -22.3670   -6.4220 C.2     1  UNL1        0.0170
     25  C         14.5470  -22.2450   -5.6970 C.2     1  UNL1        0.0010
     26  C         14.5590  -22.3400   -4.3060 C.2     1  UNL1        0.0030
     27  C         15.7630  -22.5510   -3.6400 C.2     1  UNL1        0.0430
     28  C         16.9450  -22.6720   -4.3690 C.2     1  UNL1        0.1280
     29  F         18.0880  -22.8600   -3.6880 F       1  UNL1       -0.2050
@<TRIPOS>BOND
     1    21    20    1
     2    19    20    1
     3    19    18    2
     4    20    22    1
     5    18    17    1
     6    22    17    2
     7    17    14    1
     8    14    15    2
     9    14    13   am
    10    16    13    1
    11    13    12    1
    12     7     6    1
    13     7     8    2
    14    12     8    1
    15     6     5    2
    16     8     9    1
    17     5    10   ar
    18     5     4   ar
    19     9    10    2
    20    11     4    1
    21    10     2   ar
    22     4     3   ar
    23     2     3   ar
    24     2     1    1
    25     3    23    1
    26    24    23    2
    27    24    25    1
    28    23    28    1
    29    25    26    2
    30    28    29    1
    31    28    27    2
    32    26    27    1
