@<TRIPOS>MOLECULE
60610_out_ligand_01.pdbqt
 29 32 0 0 0
SMALL
GASTEIGER

@<TRIPOS>ATOM
      1  C         19.9810  -20.7240   -5.8870 C.3     1  UNL1        0.0510
      2  C         19.6960  -21.9250   -6.7190 C.ar    1  UNL1       -0.0220
      3  C         18.5250  -22.6760   -6.7420 C.ar    1  UNL1        0.0500
      4  N         18.7230  -23.7040   -7.6370 N.ar    1  UNL1       -0.3540
      5  C         19.9780  -23.6390   -8.1920 C.ar    1  UNL1        0.0430
      6  C         20.5890  -24.4700   -9.1370 C.2     1  UNL1        0.0310
      7  C         21.8950  -24.1530   -9.5340 C.2     1  UNL1        0.0110
      8  C         22.5720  -23.0480   -9.0070 C.2     1  UNL1       -0.0400
      9  C         21.9190  -22.2240   -8.0700 C.2     1  UNL1        0.0230
     10  C         20.6080  -22.5270   -7.6460 C.ar    1  UNL1       -0.0010
     11  H         18.0280  -24.4000   -7.8720 H       1  UNL1        0.1660
     12  C         23.9610  -22.7090   -9.4930 C.3     1  UNL1        0.1610
     13  N         23.9820  -22.4600  -10.9160 N.am    1  UNL1       -0.3530
     14  C         24.7740  -21.4810  -11.4810 C.2     1  UNL1        0.2540
     15  O         25.4900  -20.7270  -10.8260 O.2     1  UNL1       -0.2680
     16  H         23.4090  -23.0470  -11.5000 H       1  UNL1        0.1630
     17  C         24.7260  -21.4060  -12.9320 C.2     1  UNL1        0.0680
     18  C         23.5570  -21.3940  -13.7300 C.2     1  UNL1        0.1570
     19  N         23.8200  -21.3030  -15.0360 N.2     1  UNL1       -0.1850
     20  N         25.1610  -21.2650  -15.0860 N.pl3   1  UNL1       -0.2850
     21  C         25.8210  -21.1750  -16.3660 C.3     1  UNL1        0.1790
     22  C         25.7540  -21.3230  -13.8560 C.2     1  UNL1        0.1300
     23  C         17.2550  -22.5120   -6.0350 C.2     1  UNL1       -0.0090
     24  C         16.0540  -22.3730   -6.7450 C.2     1  UNL1        0.0170
     25  C         14.8430  -22.2090   -6.0660 C.2     1  UNL1        0.0430
     26  C         14.8370  -22.1870   -4.6760 C.2     1  UNL1        0.1160
     27  F         13.6780  -22.0290   -4.0240 F       1  UNL1       -0.2060
     28  C         16.0150  -22.3240   -3.9540 C.2     1  UNL1        0.0430
     29  C         17.2250  -22.4850   -4.6340 C.2     1  UNL1        0.0170
@<TRIPOS>BOND
     1    21    20    1
     2    20    19    1
     3    20    22    1
     4    19    18    2
     5    22    17    2
     6    18    17    1
     7    17    14    1
     8    16    13    1
     9    14    13   am
    10    14    15    2
    11    13    12    1
    12     7     6    1
    13     7     8    2
    14    12     8    1
    15     6     5    2
    16     8     9    1
    17     5    10   ar
    18     5     4   ar
    19     9    10    2
    20    11     4    1
    21    10     2   ar
    22     4     3   ar
    23    24    25    1
    24    24    23    2
    25     3     2   ar
    26     3    23    1
    27     2     1    1
    28    25    26    2
    29    23    29    1
    30    26    27    1
    31    26    28    1
    32    29    28    2
