@<TRIPOS>MOLECULE
60633_out_ligand_01.pdbqt
 30 33 0 0 0
SMALL
GASTEIGER

@<TRIPOS>ATOM
      1  C         22.5810  -23.0770   -9.0250 C.2     1  UNL1       -0.0400
      2  C         21.8930  -24.1770   -9.5530 C.2     1  UNL1        0.0110
      3  C         20.5880  -24.4820   -9.1560 C.2     1  UNL1        0.0310
      4  C         19.9900  -23.6500   -8.2050 C.ar    1  UNL1        0.0430
      5  N         18.7390  -23.7080   -7.6420 N.ar    1  UNL1       -0.3540
      6  C         18.5510  -22.6830   -6.7440 C.ar    1  UNL1        0.0500
      7  C         19.7270  -21.9410   -6.7200 C.ar    1  UNL1       -0.0220
      8  C         20.0060  -20.7380   -5.8870 C.3     1  UNL1        0.0510
      9  C         20.6350  -22.5490   -7.6470 C.ar    1  UNL1       -0.0010
     10  C         21.9530  -22.2630   -8.0640 C.2     1  UNL1        0.0230
     11  H         18.0400  -24.3970   -7.8780 H       1  UNL1        0.1660
     12  C         23.9970  -22.7950   -9.4560 C.3     1  UNL1        0.1610
     13  N         24.1600  -23.0560  -10.8700 N.am    1  UNL1       -0.3510
     14  C         24.7320  -22.1100  -11.7080 C.2     1  UNL1        0.2720
     15  O         25.2420  -21.0730  -11.2970 O.2     1  UNL1       -0.2660
     16  H         23.5320  -23.7430  -11.2670 H       1  UNL1        0.1630
     17  C         24.6810  -22.4100  -13.1680 C.2     1  UNL1        0.1410
     18  N         25.3990  -23.4740  -13.6120 N.2     1  UNL1       -0.2520
     19  C         25.3210  -23.7110  -14.9430 C.2     1  UNL1        0.1440
     20  C         24.5680  -22.9260  -15.8110 C.2     1  UNL1        0.0480
     21  C         24.5230  -23.2380  -17.2740 C.3     1  UNL1        0.0720
     22  N         23.8510  -21.8650  -15.3630 N.2     1  UNL1       -0.2620
     23  C         23.9180  -21.6330  -14.0270 C.2     1  UNL1        0.1540
     24  C         17.2880  -22.5110   -6.0290 C.2     1  UNL1       -0.0090
     25  C         17.2670  -22.4730   -4.6280 C.2     1  UNL1        0.0170
     26  C         16.0610  -22.3030   -3.9440 C.2     1  UNL1        0.0430
     27  C         14.8780  -22.1750   -4.6630 C.2     1  UNL1        0.1160
     28  F         13.7220  -22.0150   -4.0070 F       1  UNL1       -0.2060
     29  C         14.8780  -22.2110   -6.0530 C.2     1  UNL1        0.0430
     30  C         16.0850  -22.3780   -6.7370 C.2     1  UNL1        0.0170
@<TRIPOS>BOND
     1    21    20    1
     2    20    22    2
     3    20    19    1
     4    22    23    1
     5    19    18    2
     6    23    17    2
     7    18    17    1
     8    17    14    1
     9    14    15    2
    10    14    13   am
    11    16    13    1
    12    13    12    1
    13     2     3    1
    14     2     1    2
    15    12     1    1
    16     3     4    2
    17     1    10    1
    18     4     9   ar
    19     4     5   ar
    20    10     9    2
    21    11     5    1
    22     9     7   ar
    23     5     6   ar
    24     6     7   ar
    25     6    24    1
    26    30    29    1
    27    30    24    2
    28     7     8    1
    29    29    27    2
    30    24    25    1
    31    27    28    1
    32    27    26    1
    33    25    26    2
