@<TRIPOS>MOLECULE
60632_out_ligand_01.pdbqt
 31 34 0 0 0
SMALL
GASTEIGER

@<TRIPOS>ATOM
      1  C         19.5440  -21.4000  -11.7100 C.2     1  UNL1        0.2510
      2  O         19.2310  -20.2410  -11.9520 O.2     1  UNL1       -0.2680
      3  N         18.6510  -22.3800  -11.3290 N.am    1  UNL1       -0.3530
      4  H         19.0170  -23.2120  -10.8920 H       1  UNL1        0.1630
      5  C         17.2710  -22.0560  -11.0360 C.3     1  UNL1        0.1610
      6  C         16.8830  -22.5780   -9.6750 C.2     1  UNL1       -0.0400
      7  C         15.8960  -23.5610   -9.5390 C.2     1  UNL1        0.0110
      8  C         15.5420  -24.0740   -8.2860 C.2     1  UNL1        0.0310
      9  C         16.2140  -23.5730   -7.1650 C.ar    1  UNL1        0.0430
     10  N         16.0700  -23.8860   -5.8290 N.ar    1  UNL1       -0.3580
     11  C         17.2090  -22.5970   -7.2590 C.ar    1  UNL1       -0.0010
     12  C         16.9380  -23.1400   -5.0810 C.ar    1  UNL1        0.0170
     13  H         15.3960  -24.5510   -5.4670 H       1  UNL1        0.1660
     14  C         17.6540  -22.3260   -5.9340 C.ar    1  UNL1       -0.0230
     15  C         17.0480  -23.1750   -3.5970 C.3     1  UNL1        0.0570
     16  C         18.6950  -21.3740   -5.4440 C.3     1  UNL1        0.0410
     17  C         18.5580  -21.1400   -3.9270 C.3     1  UNL1        0.0050
     18  C         18.3330  -22.4520   -3.1530 C.3     1  UNL1        0.0060
     19  C         17.5520  -22.1020   -8.5320 C.2     1  UNL1        0.0230
     20  C         20.9720  -21.8140  -11.7750 C.2     1  UNL1        0.0320
     21  C         21.5590  -22.5980  -10.7680 C.2     1  UNL1        0.0180
     22  C         22.9060  -22.9590  -10.8610 C.2     1  UNL1        0.0260
     23  C         23.6620  -22.5330  -11.9610 C.2     1  UNL1        0.0740
     24  C         23.0780  -21.7780  -12.9840 C.2     1  UNL1        0.0260
     25  C         21.7320  -21.4210  -12.8880 C.2     1  UNL1        0.0180
     26  S         25.3730  -22.9930  -12.0700 S.O2    1  UNL1        0.2390
     27  O         25.8410  -23.3430  -10.7490 O.2     1  UNL1       -0.2060
     28  O         26.0520  -22.0350  -12.9110 O.2     1  UNL1       -0.2060
     29  N         25.2730  -24.4460  -12.9160 N.3     1  UNL1       -0.2250
     30  H         26.0150  -24.4730  -13.6160 H       1  UNL1        0.1360
     31  H         25.2880  -25.2690  -12.3170 H       1  UNL1        0.1360
@<TRIPOS>BOND
     1    30    29    1
     2    24    25    1
     3    24    23    2
     4    29    31    1
     5    29    26    1
     6    28    26    2
     7    25    20    2
     8    26    23    1
     9    26    27    2
    10    23    22    1
    11     2     1    2
    12    20     1    1
    13    20    21    1
    14     1     3   am
    15     3     5    1
    16     3     4    1
    17     5     6    1
    18    22    21    2
    19     6     7    2
    20     6    19    1
    21     7     8    1
    22    19    11    2
    23     8     9    2
    24    11     9   ar
    25    11    14   ar
    26     9    10   ar
    27    14    16    1
    28    14    12   ar
    29    10    13    1
    30    10    12   ar
    31    16    17    1
    32    12    15    1
    33    17    18    1
    34    15    18    1
