@<TRIPOS>MOLECULE
60648_out_ligand_01.pdbqt
 32 34 0 0 0
SMALL
GASTEIGER

@<TRIPOS>ATOM
      1  C         21.1190  -24.4630   -8.8280 C.3     1  UNL1        0.0510
      2  C         20.0960  -23.5640   -9.4300 C.ar    1  UNL1       -0.0220
      3  C         20.2730  -22.7080  -10.5130 C.ar    1  UNL1        0.0500
      4  N         19.0640  -22.0870  -10.7370 N.ar    1  UNL1       -0.3540
      5  C         18.1240  -22.4920   -9.8230 C.ar    1  UNL1        0.0430
      6  C         16.7890  -22.1010   -9.6750 C.2     1  UNL1        0.0310
      7  C         16.0530  -22.6880   -8.6400 C.2     1  UNL1        0.0110
      8  C         16.6250  -23.6360   -7.7830 C.2     1  UNL1       -0.0400
      9  C         17.9750  -23.9970   -7.9490 C.2     1  UNL1        0.0230
     10  C         18.7380  -23.4220   -8.9890 C.ar    1  UNL1       -0.0010
     11  H         18.8990  -21.4000  -11.4580 H       1  UNL1        0.1660
     12  C         15.8130  -24.2230   -6.6610 C.3     1  UNL1        0.1610
     13  N         16.2210  -23.6710   -5.3910 N.am    1  UNL1       -0.3570
     14  C         15.4880  -22.6840   -4.7770 C.2     1  UNL1        0.2190
     15  O         14.4580  -22.2180   -5.2570 O.2     1  UNL1       -0.2740
     16  H         17.0160  -24.0820   -4.9200 H       1  UNL1        0.1620
     17  C         16.0590  -22.2530   -3.4450 C.3     1  UNL1        0.1220
     18  C         17.5690  -22.4550   -3.4150 C.3     1  UNL1        0.1330
     19  N         18.3180  -21.2300   -3.6630 N.am    1  UNL1       -0.3470
     20  C         18.8530  -20.9820   -4.8950 C.2     1  UNL1        0.2910
     21  N         19.3880  -19.7360   -4.9710 N.am    1  UNL1       -0.2540
     22  O         18.8820  -21.7570   -5.8380 O.2     1  UNL1       -0.2540
     23  H         19.8750  -19.4210   -4.1430 H       1  UNL1        0.1280
     24  H         19.9030  -19.5900   -5.8310 H       1  UNL1        0.1280
     25  H         17.9450  -20.3960   -3.2280 H       1  UNL1        0.1630
     26  C         21.4500  -22.4100  -11.3240 C.2     1  UNL1       -0.0090
     27  C         21.3370  -21.5870  -12.4560 C.2     1  UNL1        0.0170
     28  C         22.4580  -21.3100  -13.2410 C.2     1  UNL1        0.0430
     29  C         23.6880  -21.8560  -12.8940 C.2     1  UNL1        0.1160
     30  F         24.7630  -21.5910  -13.6470 F       1  UNL1       -0.2060
     31  C         23.8210  -22.6710  -11.7750 C.2     1  UNL1        0.0430
     32  C         22.7010  -22.9490  -10.9900 C.2     1  UNL1        0.0170
@<TRIPOS>BOND
     1    30    29    1
     2    28    29    2
     3    28    27    1
     4    29    31    1
     5    27    26    2
     6    31    32    2
     7    11     4    1
     8    26    32    1
     9    26     3    1
    10     4     3   ar
    11     4     5   ar
    12     3     2   ar
    13     5     6    2
    14     5    10   ar
    15     6     7    1
    16     2    10   ar
    17     2     1    1
    18    10     9    2
    19     7     8    2
    20     9     8    1
    21     8    12    1
    22    12    13    1
    23    22    20    2
    24    24    21    1
    25    13    16    1
    26    13    14   am
    27    15    14    2
    28    21    20   am
    29    21    23    1
    30    20    19   am
    31    14    17    1
    32    19    18    1
    33    19    25    1
    34    17    18    1
