@<TRIPOS>MOLECULE
60647_out_ligand_01.pdbqt
 30 32 0 0 0
SMALL
GASTEIGER

@<TRIPOS>ATOM
      1  C         17.0510  -22.4400  -10.1340 C.2     1  UNL1       -0.0400
      2  C         17.0620  -21.4380  -11.1140 C.2     1  UNL1        0.0110
      3  C         18.2550  -21.0040  -11.6970 C.2     1  UNL1        0.0310
      4  C         19.4430  -21.6120  -11.2790 C.ar    1  UNL1        0.0430
      5  N         20.7380  -21.3950  -11.6820 N.ar    1  UNL1       -0.3540
      6  C         21.6110  -22.2230  -11.0160 C.ar    1  UNL1        0.0500
      7  C         20.8540  -22.9950  -10.1460 C.ar    1  UNL1       -0.0220
      8  C         21.3520  -24.0480   -9.2200 C.3     1  UNL1        0.0510
      9  C         19.4830  -22.6060  -10.3090 C.ar    1  UNL1       -0.0010
     10  C         18.2670  -23.0180   -9.7200 C.2     1  UNL1        0.0230
     11  H         21.0150  -20.7100  -12.3660 H       1  UNL1        0.1660
     12  C         15.7560  -22.9060   -9.5220 C.3     1  UNL1        0.1610
     13  N         15.6210  -22.3990   -8.1720 N.am    1  UNL1       -0.3550
     14  C         15.8220  -23.2080   -7.0800 C.2     1  UNL1        0.2400
     15  O         16.0690  -24.4100   -7.1730 O.2     1  UNL1       -0.2710
     16  H         15.6380  -21.3920   -8.0540 H       1  UNL1        0.1620
     17  C         15.7180  -22.4970   -5.7140 C.3     1  UNL1        0.1720
     18  C         14.2690  -22.1610   -5.3790 C.3     1  UNL1        0.0420
     19  N         16.2940  -23.3870   -4.7080 N.am    1  UNL1       -0.3480
     20  C         17.5320  -23.1790   -4.1600 C.2     1  UNL1        0.2140
     21  C         17.9480  -24.2180   -3.1530 C.3     1  UNL1        0.1170
     22  O         18.2400  -22.2150   -4.4370 O.2     1  UNL1       -0.2740
     23  H         15.8030  -24.2660   -4.5450 H       1  UNL1        0.1630
     24  C         23.0510  -22.1820  -11.2650 C.2     1  UNL1       -0.0090
     25  C         23.9090  -21.5220  -10.3720 C.2     1  UNL1        0.0170
     26  C         25.2850  -21.4820  -10.6140 C.2     1  UNL1        0.0430
     27  C         25.8010  -22.1030  -11.7470 C.2     1  UNL1        0.1160
     28  F         27.1210  -22.0640  -11.9770 F       1  UNL1       -0.2060
     29  C         24.9670  -22.7600  -12.6430 C.2     1  UNL1        0.0430
     30  C         23.5910  -22.7990  -12.4020 C.2     1  UNL1        0.0170
@<TRIPOS>BOND
     1    29    30    1
     2    29    27    2
     3    30    24    2
     4    11     5    1
     5    28    27    1
     6    27    26    1
     7     3     4    2
     8     3     2    1
     9     5     4   ar
    10     5     6   ar
    11     4     9   ar
    12    24     6    1
    13    24    25    1
    14     2     1    2
    15     6     7   ar
    16    26    25    2
    17     9     7   ar
    18     9    10    2
    19     7     8    1
    20     1    10    1
    21     1    12    1
    22    12    13    1
    23    13    16    1
    24    13    14   am
    25    15    14    2
    26    14    17    1
    27    17    18    1
    28    17    19    1
    29    19    23    1
    30    19    20   am
    31    22    20    2
    32    20    21    1
