@<TRIPOS>MOLECULE
60654_out_ligand_01.pdbqt
 27 30 0 0 0
SMALL
GASTEIGER

@<TRIPOS>ATOM
      1  C         21.5510  -24.0920   -8.8840 C.3     1  UNL1        0.0510
      2  C         20.9680  -23.1050   -9.8360 C.ar    1  UNL1       -0.0220
      3  C         21.6520  -22.3640  -10.7930 C.ar    1  UNL1        0.0500
      4  N         20.7180  -21.6030  -11.4570 N.ar    1  UNL1       -0.3540
      5  C         19.4580  -21.8160  -10.9550 C.ar    1  UNL1        0.0430
      6  C         18.2320  -21.2560  -11.3290 C.2     1  UNL1        0.0310
      7  C         17.0910  -21.6670  -10.6320 C.2     1  UNL1        0.0110
      8  C         17.1680  -22.6000   -9.5890 C.2     1  UNL1       -0.0440
      9  C         18.4170  -23.1480   -9.2420 C.2     1  UNL1        0.0220
     10  C         19.5820  -22.7500   -9.9320 C.ar    1  UNL1       -0.0010
     11  H         20.9330  -20.9560  -12.2020 H       1  UNL1        0.1660
     12  C         15.9170  -23.0390   -8.8640 C.3     1  UNL1        0.1320
     13  N         16.2200  -23.9550   -7.7710 N.pl3   1  UNL1       -0.2720
     14  H         17.2130  -24.1850   -7.7400 H       1  UNL1        0.1290
     15  C         15.9320  -23.5080   -6.4840 C.2     1  UNL1        0.1200
     16  C         14.9970  -22.5120   -6.1950 C.2     1  UNL1        0.1600
     17  N         14.7230  -22.0740   -4.9390 N.2     1  UNL1       -0.2680
     18  C         15.4130  -22.6990   -3.9620 C.2     1  UNL1        0.1350
     19  C         16.3230  -23.7060   -4.2320 C.2     1  UNL1        0.1370
     20  N         16.5930  -24.1310   -5.4880 N.2     1  UNL1       -0.2460
     21  C         23.0730  -22.2990  -11.1250 C.2     1  UNL1       -0.0090
     22  C         23.5690  -22.9730  -12.2490 C.2     1  UNL1        0.0170
     23  C         24.9280  -22.9180  -12.5640 C.2     1  UNL1        0.0430
     24  C         25.7890  -22.1870  -11.7550 C.2     1  UNL1        0.1160
     25  F         27.0930  -22.1340  -12.0560 F       1  UNL1       -0.2060
     26  C         25.3180  -21.5110  -10.6350 C.2     1  UNL1        0.0430
     27  C         23.9580  -21.5680  -10.3190 C.2     1  UNL1        0.0170
@<TRIPOS>BOND
     1    23    22    1
     2    23    24    2
     3    22    21    2
     4    11     4    1
     5    25    24    1
     6    24    26    1
     7     4     5   ar
     8     4     3   ar
     9     6     5    2
    10     6     7    1
    11    21     3    1
    12    21    27    1
    13     5    10   ar
    14     3     2   ar
    15    26    27    2
    16     7     8    2
    17    10     2   ar
    18    10     9    2
    19     2     1    1
    20     8     9    1
    21     8    12    1
    22    12    13    1
    23    13    14    1
    24    13    15    1
    25    15    16    2
    26    15    20    1
    27    16    17    1
    28    20    19    2
    29    17    18    2
    30    19    18    1
