@<TRIPOS>MOLECULE
60669_out_ligand_01.pdbqt
 31 34 0 0 0
SMALL
GASTEIGER

@<TRIPOS>ATOM
      1  C         17.2540  -22.7070   -9.8210 C.2     1  UNL1       -0.0440
      2  C         17.1140  -21.6500  -10.7280 C.2     1  UNL1        0.0110
      3  C         18.2200  -21.0920  -11.3770 C.2     1  UNL1        0.0310
      4  C         19.4810  -21.6240  -11.0830 C.ar    1  UNL1        0.0430
      5  N         20.7200  -21.2780  -11.5600 N.ar    1  UNL1       -0.3540
      6  C         21.7030  -22.0670  -11.0060 C.ar    1  UNL1        0.0500
      7  C         21.0760  -22.9480  -10.1340 C.ar    1  UNL1       -0.0220
      8  C         21.7250  -23.9870   -9.2870 C.3     1  UNL1        0.0510
      9  C         19.6700  -22.6720  -10.1870 C.ar    1  UNL1       -0.0010
     10  C         18.5370  -23.2200   -9.5490 C.2     1  UNL1        0.0220
     11  H         20.8870  -20.5550  -12.2450 H       1  UNL1        0.1660
     12  C         16.0450  -23.2990   -9.1280 C.3     1  UNL1        0.1340
     13  N         16.4730  -24.0000   -7.9380 N.pl3   1  UNL1       -0.2570
     14  H         17.4750  -24.0410   -7.7990 H       1  UNL1        0.1310
     15  C         15.9200  -23.5230   -6.7610 C.cat   1  UNL1        0.2030
     16  N         14.9700  -22.5790   -6.7960 N.2     1  UNL1       -0.2240
     17  C         14.4550  -22.1770   -5.6190 C.2     1  UNL1        0.0370
     18  C         14.8900  -22.6870   -4.4160 C.2     1  UNL1        0.0710
     19  C         13.3640  -21.1510   -5.6580 C.3     1  UNL1        0.0700
     20  C         15.8870  -23.6340   -4.4740 C.2     1  UNL1        0.1080
     21  N         16.4030  -24.0600   -5.6340 N.2     1  UNL1       -0.2060
     22  N         16.4000  -24.2420   -3.3230 N.pl3   1  UNL1       -0.2810
     23  C         17.8350  -24.0910   -3.1530 C.3     1  UNL1        0.1140
     24  H         16.1400  -25.2240   -3.4230 H       1  UNL1        0.1280
     25  C         23.1090  -21.9090  -11.3680 C.2     1  UNL1       -0.0090
     26  C         23.5320  -22.1250  -12.6880 C.2     1  UNL1        0.0170
     27  C         24.8770  -21.9770  -13.0320 C.2     1  UNL1        0.0430
     28  C         25.7970  -21.6150  -12.0550 C.2     1  UNL1        0.1160
     29  F         27.0880  -21.4750  -12.3840 F       1  UNL1       -0.2060
     30  C         25.3990  -21.4000  -10.7420 C.2     1  UNL1        0.0430
     31  C         24.0540  -21.5460  -10.3970 C.2     1  UNL1        0.0170
@<TRIPOS>BOND
     1    27    26    1
     2    27    28    2
     3    26    25    2
     4    29    28    1
     5    11     5    1
     6    28    30    1
     7     5     4   ar
     8     5     6   ar
     9     3     4    2
    10     3     2    1
    11    25     6    1
    12    25    31    1
    13     4     9   ar
    14     6     7   ar
    15    30    31    2
    16     2     1    2
    17     9     7   ar
    18     9    10    2
    19     7     8    1
    20     1    10    1
    21     1    12    1
    22    12    13    1
    23    13    14    1
    24    13    15    1
    25    16    15    2
    26    16    17    1
    27    15    21    1
    28    19    17    1
    29    21    20    2
    30    17    18    2
    31    20    18    1
    32    20    22    1
    33    24    22    1
    34    22    23    1
