@<TRIPOS>MOLECULE
60661_out_ligand_01.pdbqt
 30 33 0 0 0
SMALL
GASTEIGER

@<TRIPOS>ATOM
      1  N         23.6190  -22.3610   -9.8180 N.pl3   1  UNL1       -0.3600
      2  C         22.8910  -21.3570   -9.0350 C.3     1  UNL1        0.1260
      3  C         22.0690  -22.0300   -7.9340 C.3     1  UNL1        0.0320
      4  C         21.1900  -23.1850   -8.4210 C.3     1  UNL1        0.0600
      5  C         21.9700  -24.1220   -9.3470 C.3     1  UNL1        0.0320
      6  C         22.7500  -23.3790  -10.4290 C.3     1  UNL1        0.1260
      7  C         19.9150  -22.7100   -9.0880 C.ar    1  UNL1        0.1350
      8  N         19.9090  -21.9800  -10.1710 N.ar    1  UNL1       -0.1560
      9  N         18.5860  -21.8180  -10.4570 N.ar    1  UNL1       -0.2270
     10  C         17.8030  -22.4680   -9.5180 C.ar    1  UNL1        0.3440
     11  H         18.2530  -21.2910  -11.2520 H       1  UNL1        0.1940
     12  O         16.5840  -22.4940   -9.4890 O.2     1  UNL1       -0.2450
     13  N         18.6860  -23.0480   -8.6440 N.ar    1  UNL1       -0.2800
     14  C         18.2660  -23.7560   -7.4500 C.3     1  UNL1        0.1730
     15  C         18.2950  -22.8950   -6.2110 C.2     1  UNL1       -0.0400
     16  C         18.9680  -21.6640   -6.2140 C.2     1  UNL1        0.0090
     17  C         18.9920  -20.8670   -5.0680 C.2     1  UNL1        0.0010
     18  C         18.3540  -21.2940   -3.9060 C.2     1  UNL1        0.0000
     19  C         17.6950  -22.5220   -3.8860 C.2     1  UNL1        0.0010
     20  C         17.6680  -23.3210   -5.0300 C.2     1  UNL1        0.0090
     21  C         24.6680  -21.9470  -10.6040 C.2     1  UNL1        0.1690
     22  S         25.5750  -23.0070  -11.6350 S.3     1  UNL1       -0.0610
     23  C         26.5360  -21.7000  -12.1690 C.2     1  UNL1        0.0900
     24  C         26.1230  -20.5230  -11.5740 C.2     1  UNL1        0.1330
     25  N         25.0590  -20.6930  -10.6920 N.2     1  UNL1       -0.2180
     26  C         26.7090  -19.1960  -11.7940 C.2     1  UNL1        0.2680
     27  N         26.9150  -18.8250  -13.0990 N.am    1  UNL1       -0.3650
     28  H         27.1760  -17.8550  -13.2240 H       1  UNL1        0.1590
     29  H         26.4250  -19.2750  -13.8560 H       1  UNL1        0.1590
     30  O         26.9940  -18.4110  -10.8950 O.2     1  UNL1       -0.2660
@<TRIPOS>BOND
     1    29    27    1
     2    28    27    1
     3    27    26   am
     4    23    22    1
     5    23    24    2
     6    26    24    1
     7    26    30    2
     8    22    21    1
     9    24    25    1
    10    11     9    1
    11    25    21    2
    12    21     1    1
    13     9     8   ar
    14     9    10   ar
    15     6     1    1
    16     6     5    1
    17     8     7   ar
    18     1     2    1
    19    10    12    2
    20    10    13   ar
    21     5     4    1
    22     7    13   ar
    23     7     4    1
    24     2     3    1
    25    13    14    1
    26     4     3    1
    27    14    15    1
    28    16    15    2
    29    16    17    1
    30    15    20    1
    31    17    18    2
    32    20    19    2
    33    18    19    1
