@<TRIPOS>MOLECULE
60667_out_ligand_01.pdbqt
 30 34 0 0 0
SMALL
GASTEIGER

@<TRIPOS>ATOM
      1  C         20.7180  -21.6950  -11.5790 C.2     1  UNL1        0.0760
      2  C         19.6650  -20.8050  -11.8370 C.2     1  UNL1        0.1590
      3  N         18.6170  -20.9930  -11.0510 N.2     1  UNL1       -0.1640
      4  N         18.9540  -22.0530  -10.2420 N.pl3   1  UNL1       -0.0630
      5  C         20.2650  -22.4790  -10.5160 C.2     1  UNL1        0.0760
      6  C         17.9430  -22.5400   -9.3250 C.cat   1  UNL1        0.7500
      7  N         16.8750  -23.1980   -9.7760 N.2     1  UNL1       -0.0730
      8  C         15.9700  -23.5720   -8.8550 C.2     1  UNL1        0.1460
      9  C         16.0560  -23.3330   -7.4880 C.2     1  UNL1       -0.0100
     10  C         17.1960  -22.6530   -7.0880 C.2     1  UNL1        0.0940
     11  C         14.9170  -23.8570   -6.6650 C.3     1  UNL1        0.0430
     12  N         18.1120  -22.2620   -8.0140 N.2     1  UNL1       -0.0600
     13  C         17.5970  -22.2640   -5.7020 C.2     1  UNL1        0.0000
     14  C         18.4970  -21.1780   -5.5410 C.2     1  UNL1        0.0140
     15  C         17.1900  -22.9180   -4.5190 C.2     1  UNL1       -0.0460
     16  C         18.9820  -20.7710   -4.2960 C.2     1  UNL1        0.0010
     17  C         18.5840  -21.4420   -3.1530 C.2     1  UNL1        0.0010
     18  C         17.6970  -22.5070   -3.2630 C.2     1  UNL1        0.0080
     19  C         16.2010  -24.0540   -4.5160 C.3     1  UNL1        0.0400
     20  C         14.9040  -23.6080   -5.1680 C.3     1  UNL1        0.0090
     21  C         21.1970  -23.5660   -9.8560 C.3     1  UNL1        0.0390
     22  C         21.6110  -23.5250   -8.4180 C.3     1  UNL1        0.0110
     23  C         20.6840  -24.6080   -8.9120 C.3     1  UNL1        0.0110
     24  C         22.0050  -21.7190  -12.2600 C.2     1  UNL1        0.2550
     25  N         23.0550  -22.1210  -11.4590 N.am    1  UNL1       -0.3530
     26  H         22.9230  -22.0770  -10.4580 H       1  UNL1        0.1630
     27  O         22.1560  -21.4050  -13.4360 O.2     1  UNL1       -0.2680
     28  C         24.4030  -22.0370  -11.9540 C.3     1  UNL1        0.1490
     29  C         25.2310  -21.3750  -10.9000 C.2     1  UNL1       -0.0180
     30  C         26.3060  -20.6130  -11.1490 C.2     1  UNL1        0.0080
@<TRIPOS>BOND
     1    27    24    2
     2    24     1    1
     3    24    25   am
     4    28    25    1
     5    28    29    1
     6     2     1    1
     7     2     3    2
     8     1     5    2
     9    25    26    1
    10    30    29    2
    11     3     4    1
    12     5     4    1
    13     5    21    1
    14     4     6    1
    15    21    23    1
    16    21    22    1
    17     7     6    2
    18     7     8    1
    19     6    12    1
    20    23    22    1
    21     8     9    2
    22    12    10    2
    23     9    10    1
    24     9    11    1
    25    10    13    1
    26    11    20    1
    27    13    14    2
    28    13    15    1
    29    14    16    1
    30    20    19    1
    31    15    19    1
    32    15    18    2
    33    16    17    2
    34    18    17    1
