@<TRIPOS>MOLECULE
60674_out_ligand_01.pdbqt
 32 35 0 0 0
SMALL
GASTEIGER

@<TRIPOS>ATOM
      1  C         19.4820  -20.8590   -5.7420 C.3     1  UNL1        0.0510
      2  C         19.3290  -22.0840   -6.5750 C.ar    1  UNL1       -0.0220
      3  C         18.2510  -22.9610   -6.5820 C.ar    1  UNL1        0.0520
      4  N         18.5370  -23.9440   -7.5010 N.ar    1  UNL1       -0.3540
      5  C         19.7600  -23.7320   -8.0890 C.ar    1  UNL1        0.0430
      6  C         20.4340  -24.4790   -9.0600 C.2     1  UNL1        0.0310
      7  C         21.6900  -24.0220   -9.4730 C.2     1  UNL1        0.0110
      8  C         22.2540  -22.8570   -8.9410 C.2     1  UNL1       -0.0400
      9  C         21.5550  -22.1340   -7.9580 C.2     1  UNL1        0.0230
     10  C         20.2850  -22.5730   -7.5260 C.ar    1  UNL1       -0.0010
     11  H         17.9400  -24.7320   -7.7030 H       1  UNL1        0.1660
     12  C         23.6200  -22.4040   -9.3900 C.3     1  UNL1        0.1610
     13  N         23.5590  -21.7880  -10.6880 N.am    1  UNL1       -0.3510
     14  C         23.9910  -22.4140  -11.8330 C.2     1  UNL1        0.2720
     15  O         24.3220  -23.5950  -11.8890 O.2     1  UNL1       -0.2660
     16  H         23.4430  -20.7820  -10.7670 H       1  UNL1        0.1630
     17  C         24.0270  -21.5190  -13.0010 C.2     1  UNL1        0.1480
     18  C         25.1560  -20.8160  -13.5000 C.2     1  UNL1        0.0880
     19  C         24.7000  -20.1190  -14.5880 C.2     1  UNL1        0.1170
     20  N         23.3680  -20.4070  -14.6830 N.pl3   1  UNL1       -0.2620
     21  N         22.9270  -21.2660  -13.7440 N.2     1  UNL1       -0.1680
     22  H         22.7060  -20.0500  -15.3600 H       1  UNL1        0.1910
     23  N         25.3260  -19.2890  -15.4430 N.pl3   1  UNL1       -0.3840
     24  H         24.8410  -18.5530  -15.9490 H       1  UNL1        0.1570
     25  H         26.1800  -19.5920  -15.9080 H       1  UNL1        0.1570
     26  C         17.0060  -22.9710   -5.8110 C.2     1  UNL1        0.0300
     27  C         15.8450  -22.3950   -6.3470 C.2     1  UNL1        0.0170
     28  C         14.6470  -22.4000   -5.6240 C.2     1  UNL1        0.0010
     29  C         14.5970  -22.9820   -4.3580 C.2     1  UNL1        0.0030
     30  C         15.7430  -23.5560   -3.8140 C.2     1  UNL1        0.0430
     31  C         16.9350  -23.5470   -4.5380 C.2     1  UNL1        0.1280
     32  F         18.0130  -24.1220   -3.9840 F       1  UNL1       -0.2050
@<TRIPOS>BOND
     1    24    23    1
     2    25    23    1
     3    23    19    1
     4    22    20    1
     5    20    19    1
     6    20    21    1
     7    19    18    2
     8    21    17    2
     9    18    17    1
    10    17    14    1
    11    15    14    2
    12    14    13   am
    13    16    13    1
    14    13    12    1
    15     7     6    1
    16     7     8    2
    17    12     8    1
    18     6     5    2
    19     8     9    1
    20     5    10   ar
    21     5     4   ar
    22     9    10    2
    23    11     4    1
    24    10     2   ar
    25     4     3   ar
    26     3     2   ar
    27     3    26    1
    28     2     1    1
    29    27    26    2
    30    27    28    1
    31    26    31    1
    32    28    29    2
    33    31    32    1
    34    31    30    2
    35    29    30    1
