@<TRIPOS>MOLECULE
60679_out_ligand_01.pdbqt
 31 34 0 0 0
SMALL
GASTEIGER

@<TRIPOS>ATOM
      1  C         21.4060  -24.1560   -9.1290 C.3     1  UNL1        0.0510
      2  C         20.9670  -23.1070  -10.0910 C.ar    1  UNL1       -0.0220
      3  C         21.7680  -22.3990  -10.9800 C.ar    1  UNL1        0.0520
      4  N         20.9410  -21.5390  -11.6680 N.ar    1  UNL1       -0.3540
      5  C         19.6370  -21.6710  -11.2590 C.ar    1  UNL1        0.0430
      6  C         18.4850  -21.0070  -11.6910 C.2     1  UNL1        0.0310
      7  C         17.2730  -21.3470  -11.0820 C.2     1  UNL1        0.0110
      8  C         17.2110  -22.3080  -10.0650 C.2     1  UNL1       -0.0400
      9  C         18.3880  -22.9650   -9.6610 C.2     1  UNL1        0.0230
     10  C         19.6220  -22.6420  -10.2630 C.ar    1  UNL1       -0.0010
     11  H         21.2540  -20.8830  -12.3680 H       1  UNL1        0.1660
     12  C         15.8880  -22.6880   -9.4500 C.3     1  UNL1        0.1610
     13  N         15.9930  -22.7240   -8.0100 N.am    1  UNL1       -0.3560
     14  C         15.8640  -23.8980   -7.3070 C.2     1  UNL1        0.2230
     15  O         15.8620  -25.0040   -7.8400 O.2     1  UNL1       -0.2730
     16  H         15.7900  -21.8500   -7.5200 H       1  UNL1        0.1620
     17  C         15.7110  -23.7090   -5.8010 C.3     1  UNL1        0.0930
     18  C         15.1380  -22.3240   -5.4960 C.3     1  UNL1        0.0210
     19  C         17.0760  -23.8850   -5.1200 C.3     1  UNL1        0.1650
     20  N         17.8250  -22.6440   -5.0230 N.pl3   1  UNL1       -0.2620
     21  C         17.9560  -21.8360   -3.9380 C.2     1  UNL1        0.2290
     22  N         18.7130  -20.8090   -4.2470 N.2     1  UNL1       -0.2340
     23  C         19.0240  -21.0360   -5.5570 C.2     1  UNL1        0.2560
     24  N         18.5080  -22.1530   -6.0790 N.2     1  UNL1       -0.1650
     25  C         23.2090  -22.4400  -11.2290 C.2     1  UNL1        0.0300
     26  C         23.7090  -23.1360  -12.3400 C.2     1  UNL1        0.0170
     27  C         25.0840  -23.1820  -12.5920 C.2     1  UNL1        0.0010
     28  C         25.9750  -22.5340  -11.7390 C.2     1  UNL1        0.0030
     29  C         25.4930  -21.8400  -10.6310 C.2     1  UNL1        0.0430
     30  C         24.1210  -21.7970  -10.3820 C.2     1  UNL1        0.1280
     31  F         23.6940  -21.1080   -9.3140 F       1  UNL1       -0.2050
@<TRIPOS>BOND
     1    27    26    1
     2    27    28    2
     3    11     4    1
     4    26    25    2
     5    28    29    1
     6     6     5    2
     7     6     7    1
     8     4     5   ar
     9     4     3   ar
    10     5    10   ar
    11    25     3    1
    12    25    30    1
    13     7     8    2
    14     3     2   ar
    15    29    30    2
    16    30    31    1
    17    10     2   ar
    18    10     9    2
    19     2     1    1
    20     8     9    1
    21     8    12    1
    22    12    13    1
    23    13    16    1
    24    13    14   am
    25    15    14    2
    26    14    17    1
    27    24    23    2
    28    24    20    1
    29    17    18    1
    30    17    19    1
    31    23    22    1
    32    19    20    1
    33    20    21    1
    34    22    21    2
