@<TRIPOS>MOLECULE
60676_out_ligand_01.pdbqt
 28 31 0 0 0
SMALL
GASTEIGER

@<TRIPOS>ATOM
      1  C         19.3190  -22.5160   -9.8120 C.2     1  UNL1       -0.0060
      2  C         18.1250  -22.6440  -10.5450 C.2     1  UNL1        0.0160
      3  C         16.8630  -22.6620   -9.9360 C.2     1  UNL1        0.0310
      4  C         16.8190  -22.5600   -8.5440 C.ar    1  UNL1        0.0430
      5  N         15.7390  -22.5580   -7.6900 N.ar    1  UNL1       -0.3520
      6  C         16.1680  -22.4620   -6.3960 C.ar    1  UNL1        0.0860
      7  C         17.5480  -22.3930   -6.4050 C.ar    1  UNL1       -0.0150
      8  C         17.9710  -22.4430   -7.7620 C.ar    1  UNL1        0.0000
      9  C         19.2260  -22.4180   -8.4080 C.2     1  UNL1        0.0280
     10  C         18.3410  -22.2910   -5.1470 C.3     1  UNL1        0.0420
     11  C         17.5280  -22.8550   -3.9690 C.3     1  UNL1        0.0120
     12  C         16.1010  -22.2800   -3.9060 C.3     1  UNL1        0.0860
     13  C         15.3380  -22.4490   -5.2190 C.2     1  UNL1        0.1760
     14  O         14.1120  -22.5110   -5.2590 O.2     1  UNL1       -0.2910
     15  H         14.7680  -22.6310   -7.9690 H       1  UNL1        0.1660
     16  C         20.6230  -22.5040  -10.5060 C.2     1  UNL1        0.0660
     17  C         20.8360  -21.8270  -11.7090 C.2     1  UNL1        0.0330
     18  C         22.1000  -21.8570  -12.2990 C.2     1  UNL1        0.0210
     19  C         23.1290  -22.5530  -11.6730 C.2     1  UNL1        0.0490
     20  C         22.8370  -23.2230  -10.4980 C.2     1  UNL1        0.1340
     21  N         21.6160  -23.2110   -9.9060 N.2     1  UNL1       -0.2590
     22  C         24.4760  -22.5920  -12.2770 C.2     1  UNL1        0.2530
     23  N         24.9560  -23.8450  -12.5970 N.am    1  UNL1       -0.3530
     24  H         24.5470  -24.6350  -12.1230 H       1  UNL1        0.1630
     25  O         25.1180  -21.5570  -12.4120 O.2     1  UNL1       -0.2680
     26  C         26.3270  -23.9840  -13.0210 C.3     1  UNL1        0.1490
     27  C         26.3190  -24.4080  -14.4530 C.2     1  UNL1       -0.0180
     28  C         25.2960  -25.0340  -15.0520 C.2     1  UNL1        0.0080
@<TRIPOS>BOND
     1    28    27    2
     2    27    26    1
     3    26    23    1
     4    23    22   am
     5    23    24    1
     6    25    22    2
     7    18    17    1
     8    18    19    2
     9    22    19    1
    10    17    16    2
    11    19    20    1
    12     2     3    1
    13     2     1    2
    14    16    21    1
    15    16     1    1
    16    20    21    2
    17     3     4    2
    18     1     9    1
    19     4     8   ar
    20     4     5   ar
    21     9     8    2
    22    15     5    1
    23     8     7   ar
    24     5     6   ar
    25     7     6   ar
    26     7    10    1
    27     6    13    1
    28    14    13    2
    29    13    12    1
    30    10    11    1
    31    11    12    1
