@<TRIPOS>MOLECULE
60680_out_ligand_01.pdbqt
 30 33 0 0 0
SMALL
GASTEIGER

@<TRIPOS>ATOM
      1  C         17.0190  -22.0960  -10.2590 C.2     1  UNL1       -0.0400
      2  C         17.1120  -21.0650  -11.2020 C.2     1  UNL1        0.0110
      3  C         18.3360  -20.7170  -11.7830 C.2     1  UNL1        0.0310
      4  C         19.4700  -21.4300  -11.3810 C.ar    1  UNL1        0.0430
      5  N         20.7810  -21.2990  -11.7700 N.ar    1  UNL1       -0.3540
      6  C         21.5870  -22.1970  -11.1060 C.ar    1  UNL1        0.0500
      7  C         20.7630  -22.9480  -10.2770 C.ar    1  UNL1       -0.0220
      8  C         21.1710  -24.0590   -9.3730 C.3     1  UNL1        0.0510
      9  C         19.4270  -22.4580  -10.4450 C.ar    1  UNL1       -0.0010
     10  C         18.1800  -22.7940   -9.8760 C.2     1  UNL1        0.0230
     11  H         21.1150  -20.6140  -12.4310 H       1  UNL1        0.1660
     12  C         15.6990  -22.4280   -9.6100 C.3     1  UNL1        0.1610
     13  N         15.8680  -22.6120   -8.1840 N.am    1  UNL1       -0.3510
     14  C         15.7800  -23.8660   -7.6150 C.2     1  UNL1        0.2700
     15  O         15.4500  -24.8580   -8.2570 O.2     1  UNL1       -0.2660
     16  H         16.4320  -21.9150   -7.7230 H       1  UNL1        0.1630
     17  C         16.1260  -23.9240   -6.2170 C.2     1  UNL1        0.1190
     18  C         17.3770  -23.9930   -5.6350 C.2     1  UNL1        0.0650
     19  C         17.1510  -24.0320   -4.2420 C.2     1  UNL1        0.0530
     20  C         18.1530  -24.0970   -3.1530 C.3     1  UNL1        0.0720
     21  N         15.8430  -24.0140   -3.9600 N.2     1  UNL1       -0.1790
     22  N         15.2540  -23.9780   -5.1660 N.pl3   1  UNL1       -0.2730
     23  H         14.2420  -24.0110   -5.1990 H       1  UNL1        0.1890
     24  C         23.0330  -22.2300  -11.3140 C.2     1  UNL1       -0.0090
     25  C         23.8870  -21.5350  -10.4440 C.2     1  UNL1        0.0170
     26  C         25.2680  -21.5560  -10.6470 C.2     1  UNL1        0.0430
     27  C         25.7940  -22.2710  -11.7170 C.2     1  UNL1        0.1160
     28  F         27.1190  -22.2890  -11.9090 F       1  UNL1       -0.2060
     29  C         24.9650  -22.9670  -12.5880 C.2     1  UNL1        0.0430
     30  C         23.5820  -22.9460  -12.3880 C.2     1  UNL1        0.0170
@<TRIPOS>BOND
     1    29    30    1
     2    29    27    2
     3    11     5    1
     4    30    24    2
     5    28    27    1
     6     3     4    2
     7     3     2    1
     8     5     4   ar
     9     5     6   ar
    10    27    26    1
    11     4     9   ar
    12    24     6    1
    13    24    25    1
    14     2     1    2
    15     6     7   ar
    16    26    25    2
    17     9     7   ar
    18     9    10    2
    19     7     8    1
    20     1    10    1
    21     1    12    1
    22    12    13    1
    23    15    14    2
    24    13    16    1
    25    13    14   am
    26    14    17    1
    27    17    18    2
    28    17    22    1
    29    18    19    1
    30    23    22    1
    31    22    21    1
    32    19    21    2
    33    19    20    1
