@<TRIPOS>MOLECULE
60691_out_ligand_01.pdbqt
 35 40 0 0 0
SMALL
GASTEIGER

@<TRIPOS>ATOM
      1  C         20.7880  -21.5770  -11.5850 C.2     1  UNL1        0.0760
      2  C         19.7230  -20.7380  -11.9700 C.2     1  UNL1        0.1590
      3  N         18.5740  -21.0280  -11.3660 N.2     1  UNL1       -0.1640
      4  N         18.8920  -22.0280  -10.4830 N.pl3   1  UNL1       -0.0630
      5  C         20.1990  -22.4510  -10.6840 C.2     1  UNL1        0.0760
      6  C         17.9260  -22.4950   -9.5170 C.cat   1  UNL1        0.7500
      7  N         16.8500  -23.1390   -9.9880 N.2     1  UNL1       -0.0730
      8  C         15.9780  -23.5730   -9.0720 C.2     1  UNL1        0.1460
      9  C         16.0890  -23.3860   -7.6970 C.2     1  UNL1       -0.0100
     10  C         17.1900  -22.6480   -7.2800 C.2     1  UNL1        0.0940
     11  C         14.9780  -23.9840   -6.8910 C.3     1  UNL1        0.0430
     12  N         18.1160  -22.2410   -8.2040 N.2     1  UNL1       -0.0600
     13  C         17.5240  -22.1880   -5.8810 C.2     1  UNL1        0.0000
     14  C         18.7930  -21.5830   -5.6650 C.2     1  UNL1        0.0140
     15  C         16.6930  -22.2550   -4.7370 C.2     1  UNL1       -0.0460
     16  C         19.2250  -21.0800   -4.4330 C.2     1  UNL1        0.0010
     17  C         18.3890  -21.1550   -3.3390 C.2     1  UNL1        0.0010
     18  C         17.1350  -21.7320   -3.4930 C.2     1  UNL1        0.0080
     19  C         15.2990  -22.8220   -4.7220 C.3     1  UNL1        0.0400
     20  C         15.2100  -24.1680   -5.4090 C.3     1  UNL1        0.0090
     21  C         20.8920  -23.6950  -10.0540 C.3     1  UNL1        0.0390
     22  C         20.2440  -24.3830   -8.8770 C.3     1  UNL1        0.0110
     23  C         21.4830  -23.5740   -8.6690 C.3     1  UNL1        0.0110
     24  C         22.1780  -21.5470  -12.0130 C.2     1  UNL1        0.2550
     25  O         23.1180  -21.7100  -11.2430 O.2     1  UNL1       -0.2680
     26  N         22.3620  -21.2990  -13.3560 N.am    1  UNL1       -0.3560
     27  H         21.5650  -21.1270  -13.9540 H       1  UNL1        0.1620
     28  C         23.6830  -21.0830  -13.9190 C.3     1  UNL1        0.1270
     29  C         24.0480  -22.1200  -14.9890 C.3     1  UNL1        0.0580
     30  C         25.0790  -23.1140  -14.5070 C.2     1  UNL1       -0.0540
     31  C         25.4500  -24.1970  -15.3080 C.2     1  UNL1        0.0260
     32  C         26.3700  -25.1070  -14.8100 C.2     1  UNL1        0.1160
     33  N         26.9330  -25.0120  -13.5890 N.2     1  UNL1       -0.2730
     34  C         26.5710  -23.9520  -12.8350 C.2     1  UNL1        0.1160
     35  C         25.6580  -22.9910  -13.2420 C.2     1  UNL1        0.0260
@<TRIPOS>BOND
     1    31    32    1
     2    31    30    2
     3    29    30    1
     4    29    28    1
     5    32    33    2
     6    30    35    1
     7    27    26    1
     8    28    26    1
     9    33    34    1
    10    26    24   am
    11    35    34    2
    12    24     1    1
    13    24    25    2
    14     2     1    1
    15     2     3    2
    16     1     5    2
    17     3     4    1
    18     5     4    1
    19     5    21    1
    20     4     6    1
    21    21    22    1
    22    21    23    1
    23     7     6    2
    24     7     8    1
    25     6    12    1
    26     8     9    2
    27    22    23    1
    28    12    10    2
    29     9    10    1
    30     9    11    1
    31    10    13    1
    32    11    20    1
    33    13    14    2
    34    13    15    1
    35    14    16    1
    36    20    19    1
    37    15    19    1
    38    15    18    2
    39    16    17    2
    40    18    17    1
