@<TRIPOS>MOLECULE
60692_out_ligand_01.pdbqt
 29 32 0 0 0
SMALL
GASTEIGER

@<TRIPOS>ATOM
      1  C         21.4350  -24.1430   -9.1820 C.3     1  UNL1        0.0510
      2  C         20.9100  -23.0670  -10.0700 C.ar    1  UNL1       -0.0220
      3  C         21.6400  -22.2750  -10.9470 C.ar    1  UNL1        0.0500
      4  N         20.7460  -21.4320  -11.5680 N.ar    1  UNL1       -0.3540
      5  C         19.4680  -21.6420  -11.1120 C.ar    1  UNL1        0.0430
      6  C         18.2710  -21.0060  -11.4580 C.2     1  UNL1        0.0310
      7  C         17.1020  -21.4330  -10.8170 C.2     1  UNL1        0.0110
      8  C         17.1230  -22.4620   -9.8700 C.2     1  UNL1       -0.0400
      9  C         18.3460  -23.0780   -9.5410 C.2     1  UNL1        0.0230
     10  C         19.5380  -22.6640  -10.1710 C.ar    1  UNL1       -0.0010
     11  H         21.0010  -20.7330  -12.2500 H       1  UNL1        0.1660
     12  C         15.8580  -22.8930   -9.1710 C.3     1  UNL1        0.1610
     13  N         15.9010  -22.5260   -7.7750 N.am    1  UNL1       -0.3510
     14  C         16.2160  -23.4540   -6.7960 C.2     1  UNL1        0.2720
     15  O         16.3470  -24.6500   -7.0510 O.2     1  UNL1       -0.2660
     16  H         16.0090  -21.5480   -7.5640 H       1  UNL1        0.1630
     17  C         16.3940  -22.8900   -5.4380 C.2     1  UNL1        0.1450
     18  C         17.6040  -22.6300   -4.7320 C.2     1  UNL1        0.0580
     19  C         17.2250  -22.1070   -3.5200 C.2     1  UNL1        0.1120
     20  N         15.8650  -22.0710   -3.5430 N.pl3   1  UNL1       -0.2890
     21  N         15.3370  -22.5340   -4.6820 N.2     1  UNL1       -0.1700
     22  H         15.2320  -21.7420   -2.8210 H       1  UNL1        0.1880
     23  C         23.0710  -22.2240  -11.2390 C.2     1  UNL1       -0.0090
     24  C         23.9350  -21.4830  -10.4200 C.2     1  UNL1        0.0170
     25  C         25.3020  -21.4300  -10.7000 C.2     1  UNL1        0.0430
     26  C         25.8030  -22.1190  -11.7970 C.2     1  UNL1        0.1160
     27  F         27.1140  -22.0680  -12.0650 F       1  UNL1       -0.2060
     28  C         24.9640  -22.8610  -12.6200 C.2     1  UNL1        0.0430
     29  C         23.5970  -22.9140  -12.3410 C.2     1  UNL1        0.0170
@<TRIPOS>BOND
     1    28    29    1
     2    28    26    2
     3    29    23    2
     4    11     4    1
     5    27    26    1
     6    26    25    1
     7     4     5   ar
     8     4     3   ar
     9     6     5    2
    10     6     7    1
    11    23     3    1
    12    23    24    1
    13     5    10   ar
    14     3     2   ar
    15     7     8    2
    16    25    24    2
    17    10     2   ar
    18    10     9    2
    19     2     1    1
    20     8     9    1
    21     8    12    1
    22    12    13    1
    23    13    16    1
    24    13    14   am
    25    15    14    2
    26    14    17    1
    27    17    18    1
    28    17    21    2
    29    18    19    2
    30    21    20    1
    31    20    19    1
    32    20    22    1
