@<TRIPOS>MOLECULE
60709_out_ligand_01.pdbqt
 28 31 0 0 0
SMALL
GASTEIGER

@<TRIPOS>ATOM
      1  C         17.0540  -22.4130  -10.0770 C.2     1  UNL1       -0.0440
      2  C         17.0960  -21.3990  -11.0410 C.2     1  UNL1        0.0110
      3  C         18.3030  -20.9850  -11.6140 C.2     1  UNL1        0.0310
      4  C         19.4740  -21.6230  -11.1940 C.ar    1  UNL1        0.0430
      5  N         20.7760  -21.4290  -11.5850 N.ar    1  UNL1       -0.3540
      6  C         21.6240  -22.2900  -10.9280 C.ar    1  UNL1        0.0500
      7  C         20.8420  -23.0630  -10.0760 C.ar    1  UNL1       -0.0220
      8  C         21.3150  -24.1290   -9.1500 C.3     1  UNL1        0.0510
      9  C         19.4810  -22.6450  -10.2490 C.ar    1  UNL1       -0.0010
     10  C         18.2510  -23.0460   -9.6870 C.2     1  UNL1        0.0220
     11  H         21.0660  -20.7610  -12.2840 H       1  UNL1        0.1660
     12  C         15.7380  -22.8430   -9.4700 C.3     1  UNL1        0.1320
     13  N         15.9020  -24.0530   -8.6720 N.pl3   1  UNL1       -0.2720
     14  H         16.6470  -24.6400   -9.0290 H       1  UNL1        0.1290
     15  C         16.1170  -23.8500   -7.2950 C.2     1  UNL1        0.1260
     16  C         15.4580  -22.7920   -6.6830 C.2     1  UNL1        0.0480
     17  C         15.6450  -22.5510   -5.3250 C.2     1  UNL1        0.0320
     18  C         16.4920  -23.3830   -4.6130 C.2     1  UNL1        0.0530
     19  C         16.7390  -23.1740   -3.1540 C.3     1  UNL1        0.0720
     20  N         17.1260  -24.4060   -5.2180 N.2     1  UNL1       -0.1540
     21  N         16.9380  -24.6310   -6.5640 N.2     1  UNL1       -0.1380
     22  C         23.0620  -22.2990  -11.1890 C.2     1  UNL1       -0.0090
     23  C         23.5830  -23.0540  -12.2490 C.2     1  UNL1        0.0170
     24  C         24.9560  -23.0580  -12.5050 C.2     1  UNL1        0.0430
     25  C         25.8050  -22.3080  -11.6990 C.2     1  UNL1        0.1160
     26  F         27.1210  -22.3120  -11.9450 F       1  UNL1       -0.2060
     27  C         25.3070  -21.5540  -10.6440 C.2     1  UNL1        0.0430
     28  C         23.9340  -21.5470  -10.3880 C.2     1  UNL1        0.0170
@<TRIPOS>BOND
     1    24    23    1
     2    24    25    2
     3    11     5    1
     4    23    22    2
     5    26    25    1
     6    25    27    1
     7     3     4    2
     8     3     2    1
     9     5     4   ar
    10     5     6   ar
    11     4     9   ar
    12    22     6    1
    13    22    28    1
    14     2     1    2
    15     6     7   ar
    16    27    28    2
    17     9     7   ar
    18     9    10    2
    19     1    10    1
    20     1    12    1
    21     7     8    1
    22    12    13    1
    23    14    13    1
    24    13    15    1
    25    15    16    2
    26    15    21    1
    27    16    17    1
    28    21    20    2
    29    17    18    2
    30    20    18    1
    31    18    19    1
