@<TRIPOS>MOLECULE
60700_out_ligand_01.pdbqt
 30 33 0 0 0
SMALL
GASTEIGER

@<TRIPOS>ATOM
      1  C         21.4790  -24.0200   -9.1570 C.3     1  UNL1        0.0510
      2  C         20.9370  -22.9750  -10.0690 C.ar    1  UNL1       -0.0220
      3  C         21.6600  -22.1790  -10.9520 C.ar    1  UNL1        0.0500
      4  N         20.7610  -21.3440  -11.5710 N.ar    1  UNL1       -0.3540
      5  C         19.4810  -21.5820  -11.1340 C.ar    1  UNL1        0.0430
      6  C         18.2760  -20.9730  -11.4990 C.2     1  UNL1        0.0310
      7  C         17.1060  -21.4250  -10.8790 C.2     1  UNL1        0.0110
      8  C         17.1340  -22.4550   -9.9320 C.2     1  UNL1       -0.0400
      9  C         18.3640  -23.0410   -9.5790 C.2     1  UNL1        0.0230
     10  C         19.5580  -22.6030  -10.1920 C.ar    1  UNL1       -0.0010
     11  H         21.0050  -20.6610  -12.2730 H       1  UNL1        0.1660
     12  C         15.8710  -22.9110   -9.2520 C.3     1  UNL1        0.1610
     13  N         15.9140  -22.5840   -7.8420 N.am    1  UNL1       -0.3550
     14  C         16.0930  -23.5870   -6.9070 C.2     1  UNL1        0.2420
     15  O         16.3470  -24.7420   -7.2420 O.2     1  UNL1       -0.2710
     16  H         15.3750  -21.7670   -7.5760 H       1  UNL1        0.1620
     17  C         16.1100  -23.1460   -5.4430 C.3     1  UNL1        0.1940
     18  C         14.7860  -22.5080   -5.0240 C.3     1  UNL1        0.0440
     19  N         17.2260  -22.2760   -5.1320 N.pl3   1  UNL1       -0.2570
     20  C         17.5990  -21.7980   -3.9160 C.2     1  UNL1        0.2440
     21  N         18.6930  -21.0880   -4.0700 N.2     1  UNL1       -0.1560
     22  N         18.9940  -21.1450   -5.4090 N.2     1  UNL1        0.0170
     23  N         18.1040  -21.8780   -6.0650 N.2     1  UNL1       -0.0030
     24  C         23.0870  -22.1360  -11.2580 C.2     1  UNL1       -0.0090
     25  C         23.5810  -22.7400  -12.4220 C.2     1  UNL1        0.0170
     26  C         24.9450  -22.6930  -12.7160 C.2     1  UNL1        0.0430
     27  C         25.8130  -22.0410  -11.8450 C.2     1  UNL1        0.1160
     28  F         27.1210  -21.9910  -12.1280 F       1  UNL1       -0.2060
     29  C         25.3450  -21.4430  -10.6820 C.2     1  UNL1        0.0430
     30  C         23.9790  -21.4890  -10.3900 C.2     1  UNL1        0.0170
@<TRIPOS>BOND
     1    26    25    1
     2    26    27    2
     3    25    24    2
     4    11     4    1
     5    28    27    1
     6    27    29    1
     7     4     5   ar
     8     4     3   ar
     9     6     5    2
    10     6     7    1
    11    24     3    1
    12    24    30    1
    13     5    10   ar
    14     3     2   ar
    15     7     8    2
    16    29    30    2
    17    10     2   ar
    18    10     9    2
    19     2     1    1
    20     8     9    1
    21     8    12    1
    22    12    13    1
    23    13    16    1
    24    13    14   am
    25    15    14    2
    26    14    17    1
    27    23    22    2
    28    23    19    1
    29    17    19    1
    30    17    18    1
    31    22    21    1
    32    19    20    1
    33    21    20    2
