@<TRIPOS>MOLECULE
60739_out_ligand_01.pdbqt
 29 31 0 0 0
SMALL
GASTEIGER

@<TRIPOS>ATOM
      1  N         24.7220  -23.4750  -18.1450 N.1     1  UNL1       -0.1910
      2  C         24.7180  -23.3120  -16.9960 C.1     1  UNL1        0.0990
      3  C         24.7120  -23.0940  -15.5780 C.2     1  UNL1        0.0440
      4  C         25.2670  -24.0460  -14.7180 C.2     1  UNL1        0.0240
      5  C         25.2570  -23.8300  -13.3360 C.2     1  UNL1        0.0180
      6  C         24.7020  -22.6590  -12.8070 C.2     1  UNL1        0.0320
      7  C         24.1330  -21.7120  -13.6690 C.2     1  UNL1        0.0180
      8  C         24.1410  -21.9290  -15.0510 C.2     1  UNL1        0.0240
      9  C         24.7050  -22.4790  -11.3280 C.2     1  UNL1        0.2510
     10  O         25.1780  -21.4600  -10.8390 O.2     1  UNL1       -0.2680
     11  N         24.1280  -23.4880  -10.5880 N.am    1  UNL1       -0.3530
     12  H         23.5520  -24.1730  -11.0570 H       1  UNL1        0.1630
     13  C         23.9710  -23.3720   -9.1560 C.3     1  UNL1        0.1610
     14  C         22.5140  -23.2930   -8.7750 C.2     1  UNL1       -0.0400
     15  C         21.6170  -24.3060   -9.1440 C.2     1  UNL1        0.0100
     16  C         20.2670  -24.2240   -8.7860 C.2     1  UNL1        0.0170
     17  C         19.7990  -23.1140   -8.0720 C.2     1  UNL1        0.0320
     18  C         20.6880  -22.1030   -7.6960 C.2     1  UNL1        0.0170
     19  C         22.0360  -22.1890   -8.0530 C.2     1  UNL1        0.0100
     20  C         18.3710  -22.9960   -7.6610 C.2     1  UNL1        0.2560
     21  O         17.5050  -23.1260   -8.5160 O.2     1  UNL1       -0.2670
     22  N         18.1740  -22.7830   -6.3070 N.am    1  UNL1       -0.3230
     23  H         18.9890  -22.8450   -5.7120 H       1  UNL1        0.1690
     24  C         16.9400  -22.5860   -5.6490 C.2     1  UNL1        0.0370
     25  C         15.7180  -22.4810   -6.3040 C.2     1  UNL1        0.0490
     26  C         14.5760  -22.2780   -5.5450 C.2     1  UNL1        0.1180
     27  N         14.5740  -22.1740   -4.1990 N.2     1  UNL1       -0.2730
     28  C         15.7690  -22.2780   -3.5860 C.2     1  UNL1        0.1180
     29  C         16.9650  -22.4780   -4.2580 C.2     1  UNL1        0.0490
@<TRIPOS>BOND
     1     1     2    3
     2     2     3    1
     3     3     8    2
     4     3     4    1
     5     8     7    1
     6     4     5    2
     7     7     6    2
     8     5     6    1
     9     6     9    1
    10     9    10    2
    11     9    11   am
    12    12    11    1
    13    11    13    1
    14    13    14    1
    15    15    16    1
    16    15    14    2
    17    16    17    2
    18    14    19    1
    19    21    20    2
    20    17    18    1
    21    17    20    1
    22    19    18    2
    23    20    22   am
    24    22    23    1
    25    22    24    1
    26    25    24    2
    27    25    26    1
    28    24    29    1
    29    26    27    2
    30    29    28    2
    31    27    28    1
