@<TRIPOS>MOLECULE
60748_out_ligand_01.pdbqt
 27 29 0 0 0
SMALL
GASTEIGER

@<TRIPOS>ATOM
      1  C         17.0050  -22.1140  -10.2430 C.3     1  UNL1        0.2750
      2  C         16.0740  -23.2010   -9.6870 C.3     1  UNL1        0.0680
      3  C         16.1620  -23.2880   -8.1780 C.2     1  UNL1       -0.0560
      4  C         15.6370  -22.2630   -7.3780 C.2     1  UNL1        0.0090
      5  C         15.6940  -22.3500   -5.9860 C.2     1  UNL1        0.0250
      6  C         16.2880  -23.4660   -5.3930 C.2     1  UNL1        0.0740
      7  C         16.8010  -24.5030   -6.1750 C.2     1  UNL1        0.0250
      8  C         16.7390  -24.4110   -7.5660 C.2     1  UNL1        0.0090
      9  S         16.3700  -23.5920   -3.6280 S.O2    1  UNL1        0.2390
     10  O         15.4980  -24.6640   -3.2020 O.2     1  UNL1       -0.2060
     11  O         17.7560  -23.5090   -3.2250 O.2     1  UNL1       -0.2060
     12  N         15.6010  -22.1680   -3.1540 N.3     1  UNL1       -0.2250
     13  H         14.7450  -22.3330   -2.6240 H       1  UNL1        0.1360
     14  H         16.2670  -21.5950   -2.6310 H       1  UNL1        0.1360
     15  N         18.2980  -21.9590   -9.5640 N.3     1  UNL1        0.0920
     16  H         18.6970  -21.0670   -9.8590 H       1  UNL1        0.3160
     17  C         19.3160  -23.0040   -9.7810 C.3     1  UNL1        0.2540
     18  C         19.7470  -23.7200   -8.4860 C.3     1  UNL1        0.0410
     19  C         20.8500  -24.7340   -8.7780 C.3     1  UNL1        0.0070
     20  C         22.0920  -24.0190   -9.3010 C.3     1  UNL1        0.0390
     21  C         21.7910  -23.0610  -10.4290 C.2     1  UNL1       -0.0470
     22  C         22.8460  -22.6400  -11.2560 C.2     1  UNL1        0.0490
     23  C         20.4920  -22.5540  -10.6460 C.2     1  UNL1       -0.0190
     24  C         22.6050  -21.7630  -12.3070 C.2     1  UNL1        0.1170
     25  F         23.6220  -21.3780  -13.0930 F       1  UNL1       -0.2060
     26  C         21.3270  -21.2880  -12.5610 C.2     1  UNL1        0.0430
     27  C         20.2730  -21.6880  -11.7380 C.2     1  UNL1        0.0130
@<TRIPOS>BOND
     1    25    24    1
     2    26    24    2
     3    26    27    1
     4    24    22    1
     5    27    23    2
     6    22    21    2
     7    23    21    1
     8    23    17    1
     9    21    20    1
    10     1     2    1
    11     1    15    1
    12    16    15    1
    13    17    15    1
    14    17    18    1
    15     2     3    1
    16    20    19    1
    17    19    18    1
    18     3     8    2
    19     3     4    1
    20     8     7    1
    21     4     5    2
    22     7     6    2
    23     5     6    1
    24     6     9    1
    25     9    11    2
    26     9    10    2
    27     9    12    1
    28    12    14    1
    29    12    13    1
