@<TRIPOS>MOLECULE
607_out_ligand_01.pdbqt
 41 45 0 0 0
SMALL
GASTEIGER

@<TRIPOS>ATOM
      1  C         19.5840  -21.4840  -11.3040 C.2     1  UNL1        0.2560
      2  O         19.6440  -20.4150  -11.9000 O.2     1  UNL1       -0.2670
      3  N         20.5880  -22.4300  -11.2040 N.am    1  UNL1       -0.3230
      4  H         20.3610  -23.3080  -10.7560 H       1  UNL1        0.1690
      5  C         18.2980  -21.8400  -10.6320 C.2     1  UNL1        0.0330
      6  C         17.1030  -21.3410  -11.1700 C.2     1  UNL1        0.0170
      7  C         15.8750  -21.6480  -10.5810 C.2     1  UNL1        0.0030
      8  C         15.8290  -22.4670   -9.4520 C.2     1  UNL1        0.0250
      9  C         17.0190  -22.9730   -8.9210 C.2     1  UNL1        0.0760
     10  C         18.2570  -22.6320   -9.4810 C.2     1  UNL1        0.0410
     11  S         16.9730  -24.0450   -7.4930 S.O2    1  UNL1        0.2480
     12  O         16.0090  -25.0880   -7.7830 O.2     1  UNL1       -0.2050
     13  O         18.3440  -24.3760   -7.1590 O.2     1  UNL1       -0.2050
     14  N         16.3680  -23.0250   -6.2640 N.pl3   1  UNL1       -0.1670
     15  C         17.3210  -22.3180   -5.4660 C.2     1  UNL1        0.0320
     16  C         18.2840  -21.4230   -5.8950 C.2     1  UNL1        0.0250
     17  C         17.1470  -22.6070   -4.1140 C.2     1  UNL1       -0.0340
     18  C         19.1080  -20.8320   -4.9340 C.2     1  UNL1        0.0020
     19  C         18.9550  -21.1440   -3.5730 C.2     1  UNL1        0.0010
     20  C         17.9700  -22.0400   -3.1530 C.2     1  UNL1        0.0090
     21  C         16.0430  -23.5970   -3.9150 C.3     1  UNL1        0.0610
     22  C         15.3730  -23.6390   -5.3100 C.3     1  UNL1        0.0800
     23  C         14.0950  -22.8040   -5.3520 C.3     1  UNL1        0.0280
     24  C         21.9070  -22.3320  -11.7010 C.2     1  UNL1        0.0350
     25  C         22.9280  -22.8680  -10.9030 C.2     1  UNL1        0.0310
     26  C         24.2660  -22.7810  -11.2960 C.2     1  UNL1        0.0270
     27  C         24.5840  -22.1620  -12.5050 C.2     1  UNL1        0.0800
     28  C         23.5790  -21.6480  -13.3250 C.2     1  UNL1        0.0270
     29  C         22.2430  -21.7280  -12.9150 C.2     1  UNL1        0.0310
     30  S         26.2790  -22.0030  -13.0030 S.O2    1  UNL1        0.2630
     31  O         27.0930  -22.3470  -11.8580 O.2     1  UNL1       -0.2000
     32  O         26.4480  -20.7420  -13.6940 O.2     1  UNL1       -0.2000
     33  N         26.4640  -23.2680  -14.1150 N.pl3   1  UNL1       -0.2810
     34  H         27.3370  -23.7660  -13.9460 H       1  UNL1        0.1790
     35  C         26.0920  -23.0260  -15.4670 C.2     1  UNL1        0.0440
     36  C         26.9870  -22.3820  -16.3240 C.2     1  UNL1        0.0300
     37  C         26.6460  -22.1770  -17.6610 C.2     1  UNL1        0.0040
     38  C         25.4140  -22.6220  -18.1400 C.2     1  UNL1        0.0240
     39  C         24.5310  -23.2730  -17.2790 C.2     1  UNL1        0.0360
     40 CL         23.0130  -23.8240  -17.8750 Cl      1  UNL1       -0.0840
     41  C         24.8650  -23.4820  -15.9420 C.2     1  UNL1        0.0540
@<TRIPOS>BOND
     1    38    37    2
     2    38    39    1
     3    40    39    1
     4    37    36    1
     5    39    41    2
     6    36    35    2
     7    41    35    1
     8    35    33    1
     9    33    34    1
    10    33    30    1
    11    32    30    2
    12    28    29    1
    13    28    27    2
    14    30    27    1
    15    30    31    2
    16    29    24    2
    17    27    26    1
    18     2     1    2
    19    24     3    1
    20    24    25    1
    21     1     3   am
    22     1     5    1
    23    26    25    2
    24     3     4    1
    25     6     5    2
    26     6     7    1
    27     5    10    1
    28     7     8    2
    29    10     9    2
    30     8     9    1
    31     9    11    1
    32    12    11    2
    33    11    13    2
    34    11    14    1
    35    14    15    1
    36    14    22    1
    37    16    15    2
    38    16    18    1
    39    15    17    1
    40    23    22    1
    41    22    21    1
    42    18    19    2
    43    17    21    1
    44    17    20    2
    45    19    20    1
