@<TRIPOS>MOLECULE
60805_out_ligand_01.pdbqt
 31 33 0 0 0
SMALL
GASTEIGER

@<TRIPOS>ATOM
      1  C         18.7460  -21.4960  -11.2440 C.2     1  UNL1        0.2450
      2  O         17.8520  -20.6740  -11.4010 O.2     1  UNL1       -0.2680
      3  N         18.7690  -22.5580  -10.3750 N.am    1  UNL1       -0.3210
      4  H         19.5400  -23.2090  -10.4600 H       1  UNL1        0.1690
      5  C         19.9500  -21.4160  -12.1130 C.2     1  UNL1        0.0750
      6  C         21.1530  -21.8690  -11.7230 C.2     1  UNL1        0.0170
      7  C         22.3690  -21.7860  -12.5430 C.2     1  UNL1       -0.0360
      8  C         22.3620  -20.9470  -13.6680 C.2     1  UNL1        0.0130
      9  C         23.4840  -20.8550  -14.4950 C.2     1  UNL1        0.0260
     10  C         24.6210  -21.6100  -14.2000 C.2     1  UNL1        0.0790
     11  C         24.6350  -22.4720  -13.1010 C.2     1  UNL1        0.0260
     12  C         23.5090  -22.5580  -12.2780 C.2     1  UNL1        0.0130
     13  S         26.0320  -21.5130  -15.2690 S.O2    1  UNL1        0.2580
     14  O         26.8940  -22.6340  -14.9600 O.2     1  UNL1       -0.2010
     15  O         26.5240  -20.1540  -15.2830 O.2     1  UNL1       -0.2010
     16  N         25.3560  -21.8410  -16.7710 N.3     1  UNL1       -0.3200
     17  C         24.8190  -23.1730  -17.0170 C.3     1  UNL1        0.1590
     18  H         24.8620  -21.0390  -17.1600 H       1  UNL1        0.1710
     19  C         17.8420  -22.8790   -9.3600 C.2     1  UNL1        0.0690
     20  C         16.5680  -22.3150   -9.2730 C.2     1  UNL1        0.0320
     21  C         15.6970  -22.6860   -8.2420 C.2     1  UNL1        0.0020
     22  C         16.0870  -23.6240   -7.2880 C.2     1  UNL1        0.0030
     23  C         17.3560  -24.1940   -7.3570 C.2     1  UNL1        0.0390
     24  C         18.2330  -23.8050   -8.3740 C.2     1  UNL1        0.1020
     25  O         19.4630  -24.4260   -8.4120 O.2     1  UNL1       -0.3090
     26  C         20.5950  -23.6380   -8.3540 C.2     1  UNL1        0.0760
     27  C         20.6920  -22.4080   -7.6980 C.2     1  UNL1        0.0370
     28  C         21.8910  -21.6920   -7.7330 C.2     1  UNL1        0.0030
     29  C         22.9950  -22.2050   -8.4120 C.2     1  UNL1        0.0000
     30  C         22.9070  -23.4390   -9.0540 C.2     1  UNL1        0.0030
     31  C         21.7090  -24.1530   -9.0230 C.2     1  UNL1        0.0370
@<TRIPOS>BOND
     1    18    16    1
     2    17    16    1
     3    16    13    1
     4    15    13    2
     5    13    14    2
     6    13    10    1
     7     9    10    2
     8     9     8    1
     9    10    11    1
    10     8     7    2
    11    11    12    2
    12     7    12    1
    13     7     6    1
    14     5     6    2
    15     5     1    1
    16     2     1    2
    17     1     3   am
    18     4     3    1
    19     3    19    1
    20    19    20    2
    21    19    24    1
    22    20    21    1
    23    30    31    1
    24    30    29    2
    25    31    26    2
    26    25    24    1
    27    25    26    1
    28    29    28    1
    29    24    23    2
    30    26    27    1
    31    21    22    2
    32    28    27    2
    33    23    22    1
