@<TRIPOS>MOLECULE
60815_out_ligand_01.pdbqt
 32 35 0 0 0
SMALL
GASTEIGER

@<TRIPOS>ATOM
      1  N         15.9100  -24.4260   -3.5650 N.1     1  UNL1       -0.1910
      2  C         16.6240  -23.6090   -3.9820 C.1     1  UNL1        0.1000
      3  C         17.5450  -22.6420   -4.5100 C.2     1  UNL1        0.0520
      4  C         17.9240  -21.5710   -3.6880 C.2     1  UNL1        0.0230
      5  C         18.8370  -20.6200   -4.1440 C.2     1  UNL1        0.0020
      6  C         19.3800  -20.7350   -5.4190 C.2     1  UNL1        0.0010
      7  C         19.0080  -21.7950   -6.2470 C.2     1  UNL1        0.0100
      8  C         18.0800  -22.7600   -5.8100 C.2     1  UNL1       -0.0190
      9  C         17.6870  -23.8790   -6.7540 C.3     1  UNL1        0.1680
     10  N         17.3450  -23.3890   -8.0890 N.pl3   1  UNL1       -0.3550
     11  C         16.1440  -22.7890   -8.3970 C.2     1  UNL1        0.0910
     12  C         16.1410  -22.4820   -9.7350 C.2     1  UNL1        0.0190
     13  C         17.3940  -22.8700  -10.2540 C.2     1  UNL1        0.0270
     14  C         18.1410  -23.4080   -9.2190 C.2     1  UNL1        0.0240
     15  C         19.5560  -23.9090   -9.2730 C.3     1  UNL1        0.1490
     16  N         20.5370  -22.8220   -9.2040 N.pl3   1  UNL1       -0.2870
     17  H         21.2170  -23.0370   -8.4780 H       1  UNL1        0.1280
     18  C         21.1620  -22.4370  -10.3970 C.2     1  UNL1        0.0080
     19  C         22.4950  -22.8120  -10.6340 C.2     1  UNL1        0.0240
     20  C         23.1490  -22.4400  -11.8140 C.2     1  UNL1        0.0190
     21  C         22.4770  -21.6690  -12.7680 C.2     1  UNL1        0.0320
     22  C         21.1590  -21.2700  -12.5330 C.2     1  UNL1        0.0190
     23  C         20.5170  -21.6360  -11.3460 C.2     1  UNL1        0.0240
     24  C         23.1230  -21.2670  -14.0490 C.2     1  UNL1        0.2570
     25  O         22.7760  -20.2040  -14.5510 O.2     1  UNL1       -0.2670
     26  N         24.0750  -22.1490  -14.5020 N.am    1  UNL1       -0.3010
     27  H         24.3530  -22.9330  -13.9300 H       1  UNL1        0.1710
     28  C         24.8190  -22.0450  -15.6490 C.2     1  UNL1        0.1730
     29  N         24.2870  -22.3080  -16.8210 N.2     1  UNL1       -0.2360
     30  C         25.2340  -22.1170  -17.8100 C.2     1  UNL1        0.1260
     31  C         26.4750  -21.7120  -17.3700 C.2     1  UNL1        0.0720
     32  S         26.4510  -21.5530  -15.6650 S.3     1  UNL1       -0.0620
@<TRIPOS>BOND
     1    30    31    2
     2    30    29    1
     3    31    32    1
     4    29    28    2
     5    32    28    1
     6    28    26    1
     7    25    24    2
     8    26    24   am
     9    26    27    1
    10    24    21    1
    11    21    22    2
    12    21    20    1
    13    22    23    1
    14    20    19    2
    15    23    18    2
    16    19    18    1
    17    18    16    1
    18    13    12    1
    19    13    14    2
    20    12    11    2
    21    15    14    1
    22    15    16    1
    23    14    10    1
    24    16    17    1
    25    11    10    1
    26    10     9    1
    27     9     8    1
    28     7     8    1
    29     7     6    2
    30     8     3    2
    31     6     5    1
    32     3     2    1
    33     3     4    1
    34     5     4    2
    35     2     1    3
