@<TRIPOS>MOLECULE
60824_out_ligand_01.pdbqt
 34 36 0 0 0
SMALL
GASTEIGER

@<TRIPOS>ATOM
      1  C         23.8580  -22.8070   -9.7230 C.3     1  UNL1        0.1950
      2  C         22.7460  -22.3820   -8.7460 C.2     1  UNL1        0.2350
      3  O         22.8560  -21.3770   -8.0490 O.2     1  UNL1       -0.2720
      4  N         21.6730  -23.2670   -8.7400 N.am    1  UNL1       -0.3260
      5  H         21.7570  -24.1000   -9.3080 H       1  UNL1        0.1690
      6  C         20.4800  -23.1570   -7.9980 C.2     1  UNL1        0.0340
      7  C         19.5420  -24.1820   -8.1390 C.2     1  UNL1        0.0320
      8  C         18.3290  -24.1500   -7.4360 C.2     1  UNL1        0.0320
      9  C         18.0110  -23.0900   -6.5800 C.2     1  UNL1        0.0370
     10  C         18.9590  -22.0640   -6.4540 C.2     1  UNL1        0.0320
     11  C         20.1760  -22.0970   -7.1520 C.2     1  UNL1        0.0320
     12  N         16.7850  -23.0440   -5.8610 N.am    1  UNL1       -0.3180
     13  C         15.5770  -22.4760   -6.4160 C.3     1  UNL1        0.1330
     14  C         14.6670  -22.2970   -5.2200 C.3     1  UNL1        0.0290
     15  C         15.0550  -23.4490   -4.3150 C.3     1  UNL1        0.1050
     16  C         16.5240  -23.6370   -4.6150 C.2     1  UNL1        0.2240
     17  O         17.2770  -24.2500   -3.8710 O.2     1  UNL1       -0.2730
     18  N         23.3350  -23.3200  -10.9930 N.pl3   1  UNL1       -0.2830
     19  H         23.7040  -24.2710  -11.1660 H       1  UNL1        0.1280
     20  C         23.4600  -22.5720  -12.1800 C.2     1  UNL1        0.0240
     21  C         24.6840  -22.4490  -12.8580 C.2     1  UNL1        0.0240
     22  C         24.8110  -21.6490  -14.0010 C.2     1  UNL1        0.0020
     23  C         23.7220  -20.9290  -14.4790 C.2     1  UNL1        0.0010
     24  C         22.5080  -20.9870  -13.8010 C.2     1  UNL1        0.0190
     25  C         22.3800  -21.7790  -12.6460 C.2     1  UNL1        0.0530
     26  C         21.0720  -21.7870  -11.9270 C.2     1  UNL1        0.2530
     27  O         20.6900  -22.7790  -11.3130 O.2     1  UNL1       -0.2680
     28  N         20.3610  -20.6030  -11.9530 N.am    1  UNL1       -0.3480
     29  H         20.8800  -19.7610  -12.1820 H       1  UNL1        0.1630
     30  C         19.1720  -20.4590  -11.1090 C.3     1  UNL1        0.2400
     31  C         17.9710  -21.2880  -11.5520 C.3     1  UNL1        0.4030
     32  F         17.7690  -22.3380  -10.7260 F       1  UNL1       -0.1690
     33  F         16.8440  -20.5380  -11.5450 F       1  UNL1       -0.1690
     34  F         18.1300  -21.7700  -12.8030 F       1  UNL1       -0.1690
@<TRIPOS>BOND
     1    23    22    2
     2    23    24    1
     3    22    21    1
     4    24    25    2
     5    21    20    2
     6    34    31    1
     7    25    20    1
     8    25    26    1
     9    29    28    1
    10    20    18    1
    11    28    26   am
    12    28    30    1
    13    26    27    2
    14    31    33    1
    15    31    30    1
    16    31    32    1
    17    19    18    1
    18    18     1    1
    19     1     2    1
    20     5     4    1
    21     2     4   am
    22     2     3    2
    23     4     6    1
    24     7     6    2
    25     7     8    1
    26     6    11    1
    27     8     9    2
    28    11    10    2
    29     9    10    1
    30     9    12    1
    31    13    12    1
    32    13    14    1
    33    12    16   am
    34    14    15    1
    35    16    15    1
    36    16    17    2
