@<TRIPOS>MOLECULE
60822_out_ligand_01.pdbqt
 35 38 0 0 0
SMALL
GASTEIGER

@<TRIPOS>ATOM
      1  C         23.8730  -23.2100  -18.0790 C.1     1  UNL1        0.0140
      2  C         24.5730  -22.8660  -17.1660 C.1     1  UNL1       -0.0970
      3  C         25.4330  -22.4560  -16.0540 C.3     1  UNL1        0.2250
      4  N         26.3390  -23.5400  -15.7090 N.3     1  UNL1       -0.3040
      5  H         27.3250  -23.4470  -15.9430 H       1  UNL1        0.1730
      6  S         26.0100  -24.5120  -14.3990 S.O2    1  UNL1        0.2590
      7  O         27.1180  -25.4170  -14.1880 O.2     1  UNL1       -0.2010
      8  O         24.6570  -24.9950  -14.5780 O.2     1  UNL1       -0.2010
      9  C         25.9770  -23.3360  -13.0700 C.2     1  UNL1        0.0800
     10  C         27.1110  -22.5570  -12.8170 C.2     1  UNL1        0.0250
     11  C         27.0860  -21.6180  -11.7880 C.2     1  UNL1        0.0030
     12  C         25.9270  -21.4450  -11.0250 C.2     1  UNL1        0.0170
     13  C         24.7820  -22.2060  -11.3020 C.2     1  UNL1        0.0330
     14  C         24.8090  -23.1620  -12.3240 C.2     1  UNL1        0.0420
     15  C         23.5220  -22.0490  -10.5200 C.2     1  UNL1        0.2560
     16  O         23.4180  -21.0640   -9.8010 O.2     1  UNL1       -0.2670
     17  N         22.6030  -23.0690  -10.6810 N.am    1  UNL1       -0.3230
     18  H         22.8700  -23.8470  -11.2720 H       1  UNL1        0.1690
     19  C         21.3560  -23.2070  -10.0330 C.2     1  UNL1        0.0350
     20  C         20.3300  -22.3410  -10.4310 C.2     1  UNL1        0.0300
     21  C         19.0600  -22.4230   -9.8490 C.2     1  UNL1        0.0170
     22  C         18.7940  -23.3700   -8.8530 C.2     1  UNL1        0.0120
     23  C         19.8130  -24.2460   -8.4720 C.2     1  UNL1        0.0170
     24  C         21.0880  -24.1580   -9.0480 C.2     1  UNL1        0.0300
     25  C         17.4530  -23.4500   -8.2780 C.ar    1  UNL1        0.1630
     26  N         16.3370  -23.2370   -8.9450 N.ar    1  UNL1       -0.1290
     27  N         15.2850  -23.3840   -8.0880 N.ar    1  UNL1       -0.1340
     28  C         15.7590  -23.6560   -6.8900 C.ar    1  UNL1        0.1300
     29  N         17.1330  -23.6950   -6.9490 N.ar    1  UNL1       -0.3160
     30  C         14.9050  -23.8480   -5.6900 C.3     1  UNL1        0.0810
     31  C         18.1220  -23.8440   -5.9000 C.3     1  UNL1        0.1320
     32  C         17.6990  -24.0310   -4.4420 C.3     1  UNL1        0.0200
     33  C         17.1720  -22.7870   -3.7270 C.3     1  UNL1        0.0020
     34  C         16.1490  -21.9220   -4.4570 C.3     1  UNL1        0.0000
     35  C         14.8260  -22.6040   -4.8060 C.3     1  UNL1        0.0080
@<TRIPOS>BOND
     1     1     2    3
     2     2     3    1
     3     3     4    1
     4     5     4    1
     5     4     6    1
     6     8     6    2
     7     6     7    2
     8     6     9    1
     9     9    10    2
    10     9    14    1
    11    10    11    1
    12    14    13    2
    13    11    12    2
    14    13    12    1
    15    13    15    1
    16    18    17    1
    17    17    15   am
    18    17    19    1
    19    15    16    2
    20    20    19    2
    21    20    21    1
    22    19    24    1
    23    21    22    2
    24    24    23    2
    25    26    25   ar
    26    26    27   ar
    27    22    23    1
    28    22    25    1
    29    25    29   ar
    30    27    28   ar
    31    29    28   ar
    32    29    31    1
    33    28    30    1
    34    31    32    1
    35    30    35    1
    36    35    34    1
    37    34    33    1
    38    32    33    1
