@<TRIPOS>MOLECULE
60839_out_ligand_01.pdbqt
 31 33 0 0 0
SMALL
GASTEIGER

@<TRIPOS>ATOM
      1  N         20.4170  -23.0060   -7.9420 N.am    1  UNL1       -0.3260
      2  C         21.0950  -24.0320   -8.5840 C.2     1  UNL1        0.2350
      3  O         20.7280  -25.2000   -8.6740 O.2     1  UNL1       -0.2720
      4  H         20.9020  -22.1170   -7.9010 H       1  UNL1        0.1690
      5  C         22.4290  -23.5730   -9.1990 C.3     1  UNL1        0.1950
      6  N         22.3770  -22.1630   -9.6280 N.pl3   1  UNL1       -0.2830
      7  H         21.4750  -21.7570   -9.3680 H       1  UNL1        0.1280
      8  C         22.6770  -21.9080  -10.9840 C.2     1  UNL1        0.0190
      9  C         24.0160  -21.8890  -11.4070 C.2     1  UNL1        0.0240
     10  C         24.3510  -21.6820  -12.7460 C.2     1  UNL1        0.0020
     11  C         23.3480  -21.4800  -13.6870 C.2     1  UNL1        0.0010
     12  C         22.0130  -21.4690  -13.2850 C.2     1  UNL1        0.0140
     13  C         21.6560  -21.6710  -11.9380 C.2     1  UNL1       -0.0050
     14  C         20.2320  -21.6310  -11.5760 C.2     1  UNL1       -0.0240
     15  C         19.5590  -22.8050  -11.2000 C.2     1  UNL1        0.0120
     16  C         18.2020  -22.7750  -10.8700 C.2     1  UNL1        0.0010
     17  C         17.5000  -21.5730  -10.9110 C.2     1  UNL1        0.0000
     18  C         18.1540  -20.3990  -11.2790 C.2     1  UNL1        0.0010
     19  C         19.5130  -20.4280  -11.6040 C.2     1  UNL1        0.0120
     20  C         19.2220  -23.0920   -7.2020 C.2     1  UNL1        0.0340
     21  C         18.9530  -22.0410   -6.3120 C.2     1  UNL1        0.0310
     22  C         17.8060  -22.0540   -5.5140 C.2     1  UNL1        0.0270
     23  C         16.9220  -23.1300   -5.6080 C.2     1  UNL1        0.0740
     24  C         17.1790  -24.1880   -6.4820 C.2     1  UNL1        0.0270
     25  C         18.3240  -24.1600   -7.2830 C.2     1  UNL1        0.0310
     26  S         15.4620  -23.1750   -4.6040 S.O2    1  UNL1        0.2390
     27  O         14.3970  -22.5230   -5.3270 O.2     1  UNL1       -0.2060
     28  O         15.3320  -24.5010   -4.0420 O.2     1  UNL1       -0.2060
     29  N         15.9020  -22.1920   -3.3090 N.3     1  UNL1       -0.2250
     30  H         16.8790  -21.8980   -3.3360 H       1  UNL1        0.1360
     31  H         15.6760  -22.6770   -2.4390 H       1  UNL1        0.1360
@<TRIPOS>BOND
     1    11    12    2
     2    11    10    1
     3    12    13    1
     4    10     9    2
     5    13    14    1
     6    13     8    2
     7    19    14    2
     8    19    18    1
     9    14    15    1
    10     9     8    1
    11    18    17    2
    12    15    16    2
    13     8     6    1
    14    17    16    1
    15     6     7    1
    16     6     5    1
    17     5     2    1
    18     3     2    2
    19     2     1   am
    20     1     4    1
    21     1    20    1
    22    25    20    2
    23    25    24    1
    24    20    21    1
    25    24    23    2
    26    21    22    2
    27    23    22    1
    28    23    26    1
    29    27    26    2
    30    26    28    2
    31    26    29    1
    32    30    29    1
    33    29    31    1
