@<TRIPOS>MOLECULE
60844_out_ligand_01.pdbqt
 29 32 0 0 0
SMALL
GASTEIGER

@<TRIPOS>ATOM
      1  N         18.9970  -22.7830  -10.0810 N.am    1  UNL1       -0.3430
      2  C         17.9200  -22.6120   -9.1860 C.2     1  UNL1        0.2240
      3  O         16.9940  -21.8290   -9.4020 O.2     1  UNL1       -0.2730
      4  C         20.1190  -23.6940   -9.7970 C.3     1  UNL1        0.1640
      5  C         21.4910  -23.0730   -9.9710 C.2     1  UNL1       -0.0400
      6  C         22.2390  -23.3850  -11.1180 C.2     1  UNL1        0.0100
      7  C         23.5010  -22.8220  -11.3210 C.2     1  UNL1        0.0170
      8  C         24.0330  -21.9190  -10.3930 C.2     1  UNL1        0.0310
      9  C         23.2950  -21.5980   -9.2490 C.2     1  UNL1        0.0170
     10  C         22.0300  -22.1640   -9.0480 C.2     1  UNL1        0.0100
     11  C         25.3840  -21.3540  -10.6550 C.2     1  UNL1        0.2490
     12  N         26.4550  -22.1990  -10.5670 N.am    1  UNL1       -0.3660
     13  H         26.4030  -23.0970  -10.1110 H       1  UNL1        0.1590
     14  H         27.3660  -21.7640  -10.6340 H       1  UNL1        0.1590
     15  O         25.5440  -20.1660  -10.9110 O.2     1  UNL1       -0.2680
     16  C         19.0950  -22.0580  -11.3460 C.3     1  UNL1        0.0870
     17  C         19.4990  -20.6160  -11.4700 C.3     1  UNL1        0.0270
     18  C         18.0860  -21.0320  -11.7840 C.3     1  UNL1        0.0270
     19  C         17.9470  -23.4600   -7.9120 C.3     1  UNL1        0.1420
     20  C         18.1370  -22.6720   -6.6260 C.2     1  UNL1       -0.0380
     21  C         19.1790  -21.7280   -6.5840 C.2     1  UNL1        0.0080
     22  C         19.4230  -20.9890   -5.4330 C.2     1  UNL1        0.0010
     23  C         18.6280  -21.1780   -4.3060 C.2     1  UNL1        0.0120
     24  C         17.5730  -22.1020   -4.3160 C.2     1  UNL1       -0.0250
     25  C         16.7810  -22.2710   -3.1680 C.2     1  UNL1        0.0120
     26  C         17.3060  -22.8610   -5.4830 C.2     1  UNL1       -0.0190
     27  C         15.7210  -23.1760   -3.1530 C.2     1  UNL1        0.0010
     28  C         15.4390  -23.9220   -4.2890 C.2     1  UNL1        0.0010
     29  C         16.2190  -23.7660   -5.4380 C.2     1  UNL1        0.0130
@<TRIPOS>BOND
     1    18    17    1
     2    18    16    1
     3    17    16    1
     4    16     1    1
     5     7     6    1
     6     7     8    2
     7     6     5    2
     8    15    11    2
     9    11    12   am
    10    11     8    1
    11    14    12    1
    12    12    13    1
    13     8     9    1
    14     1     4    1
    15     1     2   am
    16     5     4    1
    17     5    10    1
    18     3     2    2
    19     9    10    2
    20     2    19    1
    21    19    20    1
    22    20    21    2
    23    20    26    1
    24    21    22    1
    25    26    29    1
    26    26    24    2
    27    29    28    2
    28    22    23    2
    29    24    23    1
    30    24    25    1
    31    28    27    1
    32    25    27    2
