@<TRIPOS>MOLECULE
60867_out_ligand_01.pdbqt
 32 35 0 0 0
SMALL
GASTEIGER

@<TRIPOS>ATOM
      1  N         23.7000  -22.9200  -10.8210 N.am    1  UNL1       -0.3470
      2  C         23.1850  -21.9400  -10.0000 C.2     1  UNL1        0.2730
      3  O         23.8500  -21.0260   -9.5240 O.2     1  UNL1       -0.2660
      4  H         22.9920  -23.5060  -11.2550 H       1  UNL1        0.1630
      5  C         25.0150  -22.8220  -11.4120 C.3     1  UNL1        0.1140
      6  C         25.9320  -23.9070  -10.8450 C.3     1  UNL1        0.0370
      7  C         24.9000  -22.8550  -12.9290 C.2     1  UNL1       -0.0360
      8  C         25.3580  -23.9430  -13.6910 C.2     1  UNL1        0.0110
      9  C         25.2090  -23.9550  -15.0790 C.2     1  UNL1        0.0250
     10  C         24.5920  -22.8780  -15.7160 C.2     1  UNL1        0.0740
     11  C         24.1000  -21.8000  -14.9790 C.2     1  UNL1        0.0250
     12  C         24.2560  -21.7940  -13.5910 C.2     1  UNL1        0.0110
     13  S         24.3970  -22.9030  -17.4780 S.O2    1  UNL1        0.2390
     14  O         25.6510  -23.2980  -18.0750 O.2     1  UNL1       -0.2060
     15  O         23.1440  -23.5490  -17.7960 O.2     1  UNL1       -0.2060
     16  N         24.1590  -21.2670  -17.8100 N.3     1  UNL1       -0.2250
     17  H         24.9480  -20.8390  -18.2920 H       1  UNL1        0.1360
     18  H         23.9380  -20.7860  -16.9360 H       1  UNL1        0.1360
     19  C         21.7420  -22.0930   -9.7640 C.ar    1  UNL1        0.1530
     20  N         21.2510  -22.4760   -8.5600 N.ar    1  UNL1       -0.1610
     21  N         19.8830  -22.5400   -8.7110 N.ar    1  UNL1       -0.2370
     22  C         19.5480  -22.1680   -9.9830 C.ar    1  UNL1        0.0450
     23  C         20.6980  -21.8960  -10.6650 C.ar    1  UNL1        0.0030
     24  C         18.3240  -21.9910  -10.7840 C.3     1  UNL1        0.0600
     25  C         20.4510  -21.5050  -12.0610 C.3     1  UNL1        0.0430
     26  C         18.9030  -21.2700  -12.0530 C.3     1  UNL1        0.0110
     27  C         19.0600  -22.9540   -7.6270 C.2     1  UNL1        0.0580
     28  C         18.4120  -24.1950   -7.6210 C.2     1  UNL1        0.0310
     29  C         17.6120  -24.5680   -6.5360 C.2     1  UNL1        0.0020
     30  C         17.4540  -23.7090   -5.4500 C.2     1  UNL1        0.0000
     31  C         18.0990  -22.4760   -5.4430 C.2     1  UNL1        0.0020
     32  C         18.8990  -22.0990   -6.5230 C.2     1  UNL1        0.0310
@<TRIPOS>BOND
     1    17    16    1
     2    14    13    2
     3    16    13    1
     4    16    18    1
     5    15    13    2
     6    13    10    1
     7    10     9    2
     8    10    11    1
     9     9     8    1
    10    11    12    2
    11     8     7    2
    12    12     7    1
    13     7     5    1
    14    25    26    1
    15    25    23    1
    16    26    24    1
    17     5     6    1
    18     5     1    1
    19     4     1    1
    20     1     2   am
    21    24    22    1
    22    23    22   ar
    23    23    19   ar
    24     2    19    1
    25     2     3    2
    26    22    21   ar
    27    19    20   ar
    28    21    20   ar
    29    21    27    1
    30    27    28    2
    31    27    32    1
    32    28    29    1
    33    29    30    2
    34    32    31    2
    35    30    31    1
