@<TRIPOS>MOLECULE
60875_out_ligand_01.pdbqt
 30 32 0 0 0
SMALL
GASTEIGER

@<TRIPOS>ATOM
      1  N         20.3660  -23.1810   -7.9180 N.am    1  UNL1       -0.3260
      2  C         21.0290  -24.1690   -8.6240 C.2     1  UNL1        0.2350
      3  O         20.6950  -25.3450   -8.7300 O.2     1  UNL1       -0.2720
      4  H         20.8180  -22.2690   -8.0000 H       1  UNL1        0.1690
      5  C         22.3140  -23.6470   -9.2890 C.3     1  UNL1        0.1950
      6  N         22.1980  -22.2310   -9.7060 N.pl3   1  UNL1       -0.2830
      7  H         22.7260  -21.6280   -9.0710 H       1  UNL1        0.1280
      8  C         22.4970  -21.8830  -11.0440 C.2     1  UNL1        0.0190
      9  C         23.8120  -21.9260  -11.5420 C.2     1  UNL1        0.0240
     10  C         24.0930  -21.6530  -12.8830 C.2     1  UNL1        0.0020
     11  C         23.0630  -21.3570  -13.7660 C.2     1  UNL1        0.0010
     12  C         21.7470  -21.3490  -13.3090 C.2     1  UNL1        0.0140
     13  C         21.4430  -21.6240  -11.9610 C.2     1  UNL1       -0.0050
     14  C         20.0270  -21.6210  -11.5510 C.2     1  UNL1       -0.0240
     15  C         19.2660  -20.4430  -11.5960 C.2     1  UNL1        0.0120
     16  C         17.9240  -20.4440  -11.2150 C.2     1  UNL1        0.0010
     17  C         17.3230  -21.6240  -10.7810 C.2     1  UNL1        0.0000
     18  C         18.0640  -22.8030  -10.7280 C.2     1  UNL1        0.0010
     19  C         19.4090  -22.8010  -11.1090 C.2     1  UNL1        0.0120
     20  C         19.1700  -23.2680   -7.1930 C.2     1  UNL1        0.0340
     21  C         18.8600  -22.2010   -6.3420 C.2     1  UNL1        0.0300
     22  C         17.6850  -22.2090   -5.5810 C.2     1  UNL1        0.0190
     23  C         16.8070  -23.2950   -5.6630 C.2     1  UNL1        0.0320
     24  C         17.1080  -24.3550   -6.5230 C.2     1  UNL1        0.0190
     25  C         18.2850  -24.3440   -7.2810 C.2     1  UNL1        0.0300
     26  C         15.5450  -23.3520   -4.8780 C.2     1  UNL1        0.2490
     27  N         14.8770  -22.1770   -4.6690 N.am    1  UNL1       -0.3660
     28  H         14.1030  -22.2280   -4.0210 H       1  UNL1        0.1590
     29  H         15.3320  -21.2810   -4.7740 H       1  UNL1        0.1590
     30  O         15.1280  -24.4000   -4.4030 O.2     1  UNL1       -0.2680
@<TRIPOS>BOND
     1    11    12    2
     2    11    10    1
     3    12    13    1
     4    10     9    2
     5    13    14    1
     6    13     8    2
     7    15    14    2
     8    15    16    1
     9    14    19    1
    10     9     8    1
    11    16    17    2
    12    19    18    2
    13     8     6    1
    14    17    18    1
    15     6     5    1
    16     6     7    1
    17     5     2    1
    18     3     2    2
    19     2     1   am
    20     4     1    1
    21     1    20    1
    22    25    20    2
    23    25    24    1
    24    20    21    1
    25    24    23    2
    26    21    22    2
    27    23    22    1
    28    23    26    1
    29    26    27   am
    30    26    30    2
    31    29    27    1
    32    27    28    1
