@<TRIPOS>MOLECULE
60898_out_ligand_01.pdbqt
 30 33 0 0 0
SMALL
GASTEIGER

@<TRIPOS>ATOM
      1  C         21.3560  -22.0280  -10.5680 C.2     1  UNL1        0.0800
      2  C         21.1150  -20.9040  -11.3620 C.2     1  UNL1        0.0260
      3  C         19.8000  -20.5270  -11.6480 C.2     1  UNL1        0.0090
      4  C         18.7190  -21.2620  -11.1380 C.2     1  UNL1       -0.0460
      5  C         17.3120  -20.8550  -11.4740 C.3     1  UNL1        0.0490
      6  C         18.9900  -22.3640  -10.3040 C.2     1  UNL1        0.0390
      7  C         20.3010  -22.7580  -10.0230 C.2     1  UNL1        0.0420
      8  S         23.0260  -22.5310  -10.2170 S.O2    1  UNL1        0.2630
      9  O         22.9510  -23.5690   -9.2100 O.2     1  UNL1       -0.2000
     10  O         23.8180  -21.3390  -10.0030 O.2     1  UNL1       -0.2000
     11  N         23.5050  -23.2840  -11.6500 N.pl3   1  UNL1       -0.2810
     12  H         22.7680  -23.8690  -12.0400 H       1  UNL1        0.1790
     13  C         24.3300  -22.5700  -12.5620 C.2     1  UNL1        0.0420
     14  C         23.7700  -21.7440  -13.5340 C.2     1  UNL1        0.0300
     15  C         24.5930  -21.0840  -14.4490 C.2     1  UNL1        0.0090
     16  C         25.9830  -21.2400  -14.3930 C.2     1  UNL1       -0.0620
     17  C         26.8670  -20.5580  -15.3960 C.3     1  UNL1        0.0480
     18  C         26.5360  -22.0840  -13.4220 C.2     1  UNL1        0.0090
     19  C         25.7130  -22.7420  -12.5050 C.2     1  UNL1        0.0300
     20  C         17.9010  -23.1800   -9.7330 C.2     1  UNL1        0.2540
     21  O         17.2390  -23.8520  -10.5190 O.2     1  UNL1       -0.2670
     22  N         17.6980  -23.1430   -8.3560 N.am    1  UNL1       -0.3430
     23  C         16.6700  -24.0360   -7.7950 C.3     1  UNL1        0.1310
     24  C         18.7170  -22.6340   -7.4210 C.3     1  UNL1        0.1650
     25  C         15.8730  -23.3640   -6.6680 C.3     1  UNL1        0.0660
     26  C         16.8190  -22.6720   -5.7440 C.2     1  UNL1       -0.0080
     27  S         16.3920  -22.2060   -4.1680 S.3     1  UNL1       -0.1060
     28  C         18.1120  -22.3240   -6.0850 C.2     1  UNL1       -0.0270
     29  C         17.9410  -21.5320   -3.8970 C.2     1  UNL1        0.0510
     30  C         18.7630  -21.6610   -4.9970 C.2     1  UNL1        0.0170
@<TRIPOS>BOND
     1    17    16    1
     2    15    16    2
     3    15    14    1
     4    16    18    1
     5    14    13    2
     6    18    19    2
     7    13    19    1
     8    13    11    1
     9    12    11    1
    10    11     8    1
    11     3     2    1
    12     3     4    2
    13     5     4    1
    14     2     1    2
    15     4     6    1
    16     1     8    1
    17     1     7    1
    18    21    20    2
    19     6     7    2
    20     6    20    1
    21     8    10    2
    22     8     9    2
    23    20    22   am
    24    22    23    1
    25    22    24    1
    26    23    25    1
    27    24    28    1
    28    25    26    1
    29    28    26    2
    30    28    30    1
    31    26    27    1
    32    30    29    2
    33    27    29    1
