@<TRIPOS>MOLECULE
60911_out_ligand_01.pdbqt
 30 33 0 0 0
SMALL
GASTEIGER

@<TRIPOS>ATOM
      1  N         18.2110  -22.8520   -9.7120 N.am    1  UNL1       -0.3270
      2  C         16.9390  -22.3430   -9.9040 C.2     1  UNL1        0.2280
      3  O         16.6200  -21.4950  -10.7320 O.2     1  UNL1       -0.2730
      4  H         18.3420  -23.5170   -8.9570 H       1  UNL1        0.1690
      5  C         19.3830  -22.5420  -10.4310 C.2     1  UNL1        0.0340
      6  C         20.5570  -23.2050  -10.0460 C.2     1  UNL1        0.0300
      7  C         21.7690  -22.9610  -10.7020 C.2     1  UNL1        0.0190
      8  C         21.8200  -22.0390  -11.7530 C.2     1  UNL1        0.0320
      9  C         20.6480  -21.3910  -12.1530 C.2     1  UNL1        0.0190
     10  C         19.4370  -21.6380  -11.4920 C.2     1  UNL1        0.0300
     11  C         23.0820  -21.7440  -12.4860 C.2     1  UNL1        0.2520
     12  O         23.0450  -21.4540  -13.6770 O.2     1  UNL1       -0.2680
     13  N         24.2440  -21.7850  -11.7360 N.am    1  UNL1       -0.3520
     14  H         24.1780  -21.8440  -10.7280 H       1  UNL1        0.1630
     15  C         25.5190  -21.4830  -12.3060 C.3     1  UNL1        0.0840
     16  C         26.7760  -21.7170  -11.5150 C.3     1  UNL1        0.0270
     17  C         26.3250  -20.3150  -11.8040 C.3     1  UNL1        0.0270
     18  C         15.8700  -22.9110   -8.9730 C.3     1  UNL1        0.1050
     19  C         16.1390  -24.3560   -8.5760 C.3     1  UNL1        0.1190
     20  C         16.8010  -24.2450   -7.2210 C.2     1  UNL1        0.2250
     21  O         17.2980  -25.1950   -6.6420 O.2     1  UNL1       -0.2730
     22  N         16.6860  -22.9140   -6.7950 N.am    1  UNL1       -0.3140
     23  C         15.8020  -22.1660   -7.6560 C.3     1  UNL1        0.1470
     24  C         17.2040  -22.3920   -5.5810 C.2     1  UNL1        0.0750
     25  C         18.3650  -21.6050   -5.5890 C.2     1  UNL1        0.0330
     26  C         18.8820  -21.0730   -4.4000 C.2     1  UNL1        0.0020
     27  C         18.2580  -21.3350   -3.1830 C.2     1  UNL1        0.0030
     28  C         17.1250  -22.1410   -3.1530 C.2     1  UNL1        0.0440
     29  C         16.6120  -22.6680   -4.3390 C.2     1  UNL1        0.1430
     30  F         15.6060  -23.5480   -4.2330 F       1  UNL1       -0.2040
@<TRIPOS>BOND
     1    12    11    2
     2    11     8    1
     3    11    13   am
     4    15    17    1
     5    15    13    1
     6    15    16    1
     7     9     8    2
     8     9    10    1
     9    17    16    1
    10     8     7    1
    11    13    14    1
    12    10     5    2
    13     3     2    2
    14     7     6    2
    15     5     6    1
    16     5     1    1
    17     2     1   am
    18     2    18    1
    19     1     4    1
    20    18    19    1
    21    18    23    1
    22    19    20    1
    23    23    22    1
    24    20    22   am
    25    20    21    2
    26    22    24    1
    27    25    24    2
    28    25    26    1
    29    24    29    1
    30    26    27    2
    31    29    30    1
    32    29    28    2
    33    27    28    1
