@<TRIPOS>MOLECULE
60928_out_ligand_01.pdbqt
 34 37 0 0 0
SMALL
GASTEIGER

@<TRIPOS>ATOM
      1  C         21.3990  -22.3830  -11.1910 C.2     1  UNL1        0.0350
      2  C         21.2070  -23.3620  -10.2110 C.2     1  UNL1        0.0300
      3  C         19.9970  -23.4480   -9.5150 C.2     1  UNL1        0.0170
      4  C         18.9590  -22.5500   -9.7840 C.2     1  UNL1        0.0120
      5  C         19.1400  -21.5900  -10.7850 C.2     1  UNL1        0.0170
      6  C         20.3550  -21.5020  -11.4780 C.2     1  UNL1        0.0300
      7  N         22.6440  -22.3630  -11.8490 N.am    1  UNL1       -0.3230
      8  C         23.8100  -21.7670  -11.4130 C.2     1  UNL1        0.2560
      9  O         24.0200  -21.2080  -10.3440 O.2     1  UNL1       -0.2670
     10  H         22.6980  -22.8820  -12.7180 H       1  UNL1        0.1690
     11  C         24.9360  -21.8930  -12.3690 C.2     1  UNL1        0.0390
     12  C         26.0790  -22.6660  -12.0830 C.2     1  UNL1       -0.0460
     13  C         27.1210  -22.6980  -13.0240 C.2     1  UNL1        0.0090
     14  C         26.2250  -23.4430  -10.8040 C.3     1  UNL1        0.0490
     15  C         27.0120  -22.0090  -14.2350 C.2     1  UNL1        0.0260
     16  C         25.8540  -21.2810  -14.5130 C.2     1  UNL1        0.0800
     17  C         24.8130  -21.2130  -13.5860 C.2     1  UNL1        0.0420
     18  S         25.7050  -20.3920  -16.0400 S.O2    1  UNL1        0.2580
     19  O         24.4600  -20.7600  -16.6760 O.2     1  UNL1       -0.2010
     20  O         26.9730  -20.5020  -16.7240 O.2     1  UNL1       -0.2010
     21  N         25.5760  -18.8060  -15.5160 N.3     1  UNL1       -0.3200
     22  C         26.7670  -18.1250  -15.0300 C.3     1  UNL1        0.1590
     23  H         24.6770  -18.5940  -15.0850 H       1  UNL1        0.1710
     24  C         17.7000  -22.6630   -9.0530 C.ar    1  UNL1        0.1630
     25  N         16.5370  -22.9510   -9.6020 N.ar    1  UNL1       -0.1290
     26  N         15.5820  -22.9500   -8.6240 N.ar    1  UNL1       -0.1340
     27  C         16.1660  -22.6900   -7.4720 C.ar    1  UNL1        0.1300
     28  N         17.5170  -22.5460   -7.6880 N.ar    1  UNL1       -0.3160
     29  C         15.4290  -22.5130   -6.1900 C.3     1  UNL1        0.0810
     30  C         18.5610  -22.4840   -6.6880 C.3     1  UNL1        0.1320
     31  C         18.3910  -21.4040   -5.6180 C.3     1  UNL1        0.0200
     32  C         18.1040  -21.9920   -4.2360 C.3     1  UNL1        0.0020
     33  C         16.6530  -22.3800   -3.9570 C.3     1  UNL1        0.0000
     34  C         15.9790  -23.2850   -4.9910 C.3     1  UNL1        0.0080
@<TRIPOS>BOND
     1    20    18    2
     2    19    18    2
     3    18    21    1
     4    18    16    1
     5    21    23    1
     6    21    22    1
     7    16    15    2
     8    16    17    1
     9    15    13    1
    10    17    11    2
    11    13    12    2
    12    10     7    1
    13    11    12    1
    14    11     8    1
    15    12    14    1
    16     7     8   am
    17     7     1    1
    18     6     1    2
    19     6     5    1
    20     8     9    2
    21     1     2    1
    22     5     4    2
    23     2     3    2
    24     4     3    1
    25     4    24    1
    26    25    24   ar
    27    25    26   ar
    28    24    28   ar
    29    26    27   ar
    30    28    27   ar
    31    28    30    1
    32    27    29    1
    33    30    31    1
    34    29    34    1
    35    31    32    1
    36    34    33    1
    37    32    33    1
