@<TRIPOS>MOLECULE
60937_out_ligand_01.pdbqt
 36 38 0 0 0
SMALL
GASTEIGER

@<TRIPOS>ATOM
      1  C         17.7210  -22.7360   -9.6630 C.2     1  UNL1        0.0800
      2  C         17.7210  -21.8380  -10.7300 C.2     1  UNL1        0.0260
      3  C         18.9030  -21.6050  -11.4380 C.2     1  UNL1        0.0090
      4  C         20.0910  -22.2700  -11.0950 C.2     1  UNL1       -0.0460
      5  C         21.3440  -21.9610  -11.8650 C.3     1  UNL1        0.0490
      6  C         20.0580  -23.2140  -10.0460 C.2     1  UNL1        0.0460
      7  C         18.8770  -23.4400   -9.3250 C.2     1  UNL1        0.0430
      8  C         21.2470  -23.9830   -9.6200 C.2     1  UNL1        0.2940
      9  O         21.1880  -24.9860   -8.9310 O.2     1  UNL1       -0.2590
     10  O         22.3520  -23.4260  -10.1670 O.3     1  UNL1       -0.3030
     11  C         23.3880  -23.0520   -9.2400 C.3     1  UNL1        0.2200
     12  C         23.0130  -21.7330   -8.5760 C.3     1  UNL1        0.0500
     13  C         24.7150  -22.8810   -9.9950 C.2     1  UNL1        0.2470
     14  O         25.5660  -23.7660  -10.0340 O.2     1  UNL1       -0.2710
     15  N         24.8760  -21.6390  -10.5770 N.am    1  UNL1       -0.3510
     16  H         24.0250  -21.0980  -10.6760 H       1  UNL1        0.1630
     17  C         25.9400  -21.3800  -11.5330 C.3     1  UNL1        0.1130
     18  C         26.4120  -19.9300  -11.4060 C.3     1  UNL1        0.0370
     19  C         25.4620  -21.7540  -12.9290 C.2     1  UNL1       -0.0360
     20  C         24.5970  -20.8800  -13.6110 C.2     1  UNL1        0.0090
     21  C         24.1630  -21.1670  -14.9070 C.2     1  UNL1        0.0010
     22  C         24.5930  -22.3270  -15.5450 C.2     1  UNL1        0.0000
     23  C         25.4620  -23.1980  -14.8900 C.2     1  UNL1        0.0010
     24  C         25.8990  -22.9120  -13.5930 C.2     1  UNL1        0.0090
     25  S         16.2200  -23.0320   -8.7550 S.O2    1  UNL1        0.2630
     26  O         15.1060  -22.7860   -9.6460 O.2     1  UNL1       -0.2000
     27  O         16.3690  -24.3060   -8.0830 O.2     1  UNL1       -0.2000
     28  N         16.2570  -21.8560   -7.5480 N.pl3   1  UNL1       -0.2800
     29  H         15.7450  -21.0150   -7.8060 H       1  UNL1        0.1790
     30  C         16.2880  -22.2350   -6.1730 C.2     1  UNL1        0.0480
     31  C         15.1050  -22.6080   -5.5290 C.2     1  UNL1        0.0300
     32  C         15.1130  -22.9590   -4.1790 C.2     1  UNL1        0.0020
     33  C         16.3100  -22.9480   -3.4690 C.2     1  UNL1        0.0010
     34  C         17.4970  -22.5900   -4.1080 C.2     1  UNL1        0.0090
     35  C         17.5040  -22.2280   -5.4650 C.2     1  UNL1       -0.0350
     36  C         18.8100  -21.8670   -6.1160 C.3     1  UNL1        0.0500
@<TRIPOS>BOND
     1    22    21    2
     2    22    23    1
     3    21    20    1
     4    23    24    2
     5    20    19    2
     6    24    19    1
     7    19    17    1
     8     5     4    1
     9    17    18    1
    10    17    15    1
    11     3     4    2
    12     3     2    1
    13     4     6    1
    14     2     1    2
    15    16    15    1
    16    15    13   am
    17    10     8    1
    18    10    11    1
    19     6     8    1
    20     6     7    2
    21    14    13    2
    22    13    11    1
    23     1     7    1
    24     1    25    1
    25    26    25    2
    26     8     9    2
    27    11    12    1
    28    25    27    2
    29    25    28    1
    30    29    28    1
    31    28    30    1
    32    30    31    2
    33    30    35    1
    34    36    35    1
    35    31    32    1
    36    35    34    2
    37    32    33    2
    38    34    33    1
