@<TRIPOS>MOLECULE
60959_out_ligand_01.pdbqt
 34 37 0 0 0
SMALL
GASTEIGER

@<TRIPOS>ATOM
      1  C         21.8080  -23.0650   -9.3860 C.2     1  UNL1        0.0220
      2  C         22.2950  -22.1980   -8.4050 C.2     1  UNL1        0.0250
      3  C         21.4620  -21.7960   -7.3570 C.2     1  UNL1        0.0190
      4  C         20.1380  -22.2560   -7.3000 C.2     1  UNL1        0.0320
      5  C         19.6620  -23.1310   -8.2850 C.2     1  UNL1        0.0190
      6  C         20.4930  -23.5240   -9.3360 C.2     1  UNL1        0.0250
      7  N         22.6260  -23.4430  -10.4950 N.pl3   1  UNL1       -0.1810
      8  H         22.9170  -24.4200  -10.4250 H       1  UNL1        0.1460
      9  S         24.0590  -22.5330  -10.6610 S.O2    1  UNL1        0.2450
     10  O         25.1270  -23.3960  -10.2010 O.2     1  UNL1       -0.2060
     11  O         23.8800  -21.1950  -10.1420 O.2     1  UNL1       -0.2060
     12  C         24.1630  -22.4110  -12.4290 C.2     1  UNL1        0.0750
     13  C         23.3850  -21.4770  -13.1150 C.2     1  UNL1        0.0270
     14  C         23.4680  -21.4130  -14.5070 C.2     1  UNL1        0.0380
     15  C         24.3100  -22.2770  -15.2160 C.2     1  UNL1        0.0680
     16  C         25.0740  -23.2150  -14.5200 C.2     1  UNL1        0.0380
     17  C         24.9990  -23.2870  -13.1250 C.2     1  UNL1        0.0270
     18  O         24.2890  -22.1050  -16.5730 O.2     1  UNL1       -0.3520
     19  C         24.5440  -23.2550  -17.3790 C.3     1  UNL1        0.1710
     20  C         23.2440  -23.6500  -18.0550 C.3     1  UNL1        0.0340
     21  C         19.2140  -21.8610   -6.2030 C.2     1  UNL1        0.2510
     22  O         19.2610  -20.7250   -5.7460 O.2     1  UNL1       -0.2680
     23  N         18.3670  -22.8420   -5.7430 N.am    1  UNL1       -0.3560
     24  H         18.4050  -23.7760   -6.1250 H       1  UNL1        0.1620
     25  C         17.3680  -22.5880   -4.7270 C.3     1  UNL1        0.1370
     26  C         15.9770  -22.8810   -5.2690 C.3     1  UNL1        0.0030
     27  C         15.0240  -23.6490   -4.3650 C.3     1  UNL1        0.0170
     28  C         14.7980  -22.1880   -4.6020 C.3     1  UNL1        0.0170
     29  C         15.9080  -23.1660   -6.7670 C.2     1  UNL1       -0.0480
     30  C         15.9550  -22.1290   -7.7160 C.2     1  UNL1        0.0080
     31  C         15.9160  -22.3930   -9.0870 C.2     1  UNL1        0.0010
     32  C         15.8290  -23.7060   -9.5400 C.2     1  UNL1        0.0000
     33  C         15.7790  -24.7510   -8.6230 C.2     1  UNL1        0.0010
     34  C         15.8180  -24.4820   -7.2540 C.2     1  UNL1        0.0080
@<TRIPOS>BOND
     1    20    19    1
     2    19    18    1
     3    18    15    1
     4    15    16    2
     5    15    14    1
     6    16    17    1
     7    14    13    2
     8    17    12    2
     9    13    12    1
    10    12     9    1
    11     9     7    1
    12     9    10    2
    13     9    11    2
    14     7     8    1
    15     7     1    1
    16    32    31    2
    17    32    33    1
    18     1     6    2
    19     1     2    1
    20     6     5    1
    21    31    30    1
    22    33    34    2
    23     2     3    2
    24     5     4    2
    25    30    29    2
    26     3     4    1
    27     4    21    1
    28    34    29    1
    29    29    26    1
    30    21    22    2
    31    21    23   am
    32    24    23    1
    33    23    25    1
    34    26    25    1
    35    26    28    1
    36    26    27    1
    37    28    27    1
