@<TRIPOS>MOLECULE
60961_out_ligand_01.pdbqt
 29 31 0 0 0
SMALL
GASTEIGER

@<TRIPOS>ATOM
      1  C         20.6400  -23.5820   -8.3110 C.ar    1  UNL1        0.1300
      2  N         19.6880  -24.4620   -8.2300 N.ar    1  UNL1       -0.1470
      3  N         18.5950  -24.1930   -7.3990 N.ar    1  UNL1       -0.1310
      4  C         18.4830  -23.0460   -6.8020 C.ar    1  UNL1        0.1640
      5  N         19.4380  -22.0670   -6.8850 N.ar    1  UNL1       -0.3040
      6  C         20.6270  -22.3200   -7.4940 C.ar    1  UNL1        0.2740
      7  O         21.6330  -21.6450   -7.3480 O.2     1  UNL1       -0.2660
      8  H         19.4200  -21.2560   -6.2860 H       1  UNL1        0.1710
      9  C         21.8060  -23.8000   -9.2300 C.3     1  UNL1        0.1280
     10  C         21.7340  -23.0080  -10.5240 C.2     1  UNL1        0.0640
     11  N         22.7260  -22.8520  -11.3560 N.2     1  UNL1       -0.2070
     12  N         23.9350  -23.3930  -11.0500 N.pl3   1  UNL1       -0.2260
     13  H         23.9610  -24.4020  -11.1990 H       1  UNL1        0.1450
     14  H         24.7620  -22.9410  -11.4430 H       1  UNL1        0.1450
     15  C         20.4340  -22.3530  -10.8600 C.2     1  UNL1       -0.0100
     16  C         20.4330  -21.0090  -11.2500 C.2     1  UNL1        0.0130
     17  C         19.2310  -20.3700  -11.5640 C.2     1  UNL1        0.0010
     18  C         18.0280  -21.0700  -11.4800 C.2     1  UNL1        0.0000
     19  C         18.0230  -22.4060  -11.0770 C.2     1  UNL1        0.0010
     20  C         19.2220  -23.0480  -10.7640 C.2     1  UNL1        0.0130
     21  C         17.2980  -22.7500   -5.9420 C.2     1  UNL1        0.0330
     22  C         17.4680  -22.6080   -4.5530 C.2     1  UNL1        0.0170
     23  C         16.3670  -22.3830   -3.7250 C.2     1  UNL1        0.0010
     24  C         15.0920  -22.3030   -4.2750 C.2     1  UNL1        0.0020
     25  C         14.9180  -22.4190   -5.6560 C.2     1  UNL1        0.0240
     26  C         16.0150  -22.5940   -6.5090 C.2     1  UNL1        0.0200
     27  N         15.7440  -22.7980   -7.8800 N.pl3   1  UNL1       -0.3020
     28  H         16.0300  -23.7450   -8.1630 H       1  UNL1        0.1240
     29  H         14.7560  -22.6850   -8.0850 H       1  UNL1        0.1240
@<TRIPOS>BOND
     1    17    18    2
     2    17    16    1
     3    18    19    1
     4    14    12    1
     5    11    12    1
     6    11    10    2
     7    16    15    2
     8    13    12    1
     9    19    20    2
    10    15    20    1
    11    15    10    1
    12    10     9    1
    13     9     1    1
    14     1     2   ar
    15     1     6   ar
    16     2     3   ar
    17    28    27    1
    18    29    27    1
    19    27    26    1
    20     6     7    2
    21     6     5   ar
    22     3     4   ar
    23     5     4   ar
    24     5     8    1
    25     4    21    1
    26    26    21    2
    27    26    25    1
    28    21    22    1
    29    25    24    2
    30    22    23    2
    31    24    23    1
