@<TRIPOS>MOLECULE
60982_out_ligand_01.pdbqt
 35 38 0 0 0
SMALL
GASTEIGER

@<TRIPOS>ATOM
      1  C         19.5270  -23.1700   -9.1860 C.2     1  UNL1        0.0320
      2  C         20.5500  -23.9290   -8.6040 C.2     1  UNL1        0.0190
      3  C         21.8090  -23.9830   -9.2110 C.2     1  UNL1        0.0310
      4  C         22.0430  -23.2840  -10.3960 C.2     1  UNL1        0.0420
      5  C         21.0220  -22.5470  -10.9930 C.2     1  UNL1        0.0310
      6  C         19.7620  -22.4920  -10.3900 C.2     1  UNL1        0.0190
      7  N         23.3170  -23.3760  -11.0180 N.pl3   1  UNL1       -0.2810
      8  H         23.7550  -24.2970  -11.0490 H       1  UNL1        0.1790
      9  S         24.4710  -22.1980  -10.6330 S.O2    1  UNL1        0.2630
     10  O         25.6560  -22.9200  -10.2200 O.2     1  UNL1       -0.2000
     11  O         23.8720  -21.1960   -9.7810 O.2     1  UNL1       -0.2000
     12  C         24.8230  -21.4730  -12.2170 C.2     1  UNL1        0.0820
     13  C         25.7840  -20.4350  -12.3070 C.2     1  UNL1        0.0280
     14  C         26.0840  -19.8490  -13.5420 C.2     1  UNL1        0.0330
     15  C         25.4090  -20.3380  -14.6360 C.ar    1  UNL1        0.0630
     16  N         25.4930  -19.9600  -15.9710 N.ar    1  UNL1       -0.3070
     17  C         24.4730  -21.3690  -14.5400 C.ar    1  UNL1        0.0640
     18  C         24.6150  -20.7550  -16.7210 C.ar    1  UNL1        0.3250
     19  H         26.0860  -19.2510  -16.3730 H       1  UNL1        0.1700
     20  O         24.4320  -20.7000  -17.9230 O.2     1  UNL1       -0.2470
     21  N         23.9870  -21.6240  -15.8170 N.ar    1  UNL1       -0.3060
     22  H         23.3090  -22.3170  -16.0900 H       1  UNL1        0.1700
     23  C         24.1560  -21.9670  -13.3460 C.2     1  UNL1        0.0570
     24  C         18.1670  -23.0900   -8.5800 C.2     1  UNL1        0.2560
     25  O         17.1980  -23.0920   -9.3270 O.2     1  UNL1       -0.2670
     26  N         18.1480  -22.9790   -7.2000 N.am    1  UNL1       -0.3230
     27  H         19.0390  -22.8510   -6.7370 H       1  UNL1        0.1690
     28  C         17.0080  -22.9260   -6.3670 C.2     1  UNL1        0.0400
     29  C         17.0620  -23.6440   -5.1660 C.2     1  UNL1        0.0720
     30  C         15.9710  -23.6400   -4.2990 C.2     1  UNL1        0.1210
     31  F         16.0420  -24.3310   -3.1540 F       1  UNL1       -0.2060
     32  C         14.8160  -22.9370   -4.6000 C.2     1  UNL1        0.0840
     33  C         14.7650  -22.2320   -5.7930 C.2     1  UNL1        0.1210
     34  F         13.6550  -21.5490   -6.1020 F       1  UNL1       -0.2060
     35  C         15.8450  -22.2200   -6.6770 C.2     1  UNL1        0.0720
@<TRIPOS>BOND
     1    20    18    2
     2    18    16   ar
     3    18    21   ar
     4    19    16    1
     5    22    21    1
     6    16    15   ar
     7    21    17   ar
     8    15    17   ar
     9    15    14    1
    10    17    23    1
    11    14    13    2
    12    23    12    2
    13    13    12    1
    14    12     9    1
    15     8     7    1
    16     7     9    1
    17     7     4    1
    18     5     4    2
    19     5     6    1
    20     9    10    2
    21     9    11    2
    22     4     3    1
    23     6     1    2
    24    25    24    2
    25     3     2    2
    26     1     2    1
    27     1    24    1
    28    24    26   am
    29    26    27    1
    30    26    28    1
    31    35    28    2
    32    35    33    1
    33    28    29    1
    34    34    33    1
    35    33    32    2
    36    29    30    2
    37    32    30    1
    38    30    31    1
