@<TRIPOS>MOLECULE
60993_out_ligand_01.pdbqt
 28 31 0 0 0
SMALL
GASTEIGER

@<TRIPOS>ATOM
      1  C         22.4840  -21.1650  -13.6440 C.3     1  UNL1        0.1630
      2  N         23.4790  -21.7880  -12.7880 N.ar    1  UNL1       -0.2870
      3  C         24.7820  -21.9130  -13.2210 C.ar    1  UNL1        0.3300
      4  O         25.1870  -21.5240  -14.3150 O.2     1  UNL1       -0.2460
      5  N         25.6570  -22.5120  -12.3580 N.ar    1  UNL1       -0.2750
      6  C         25.3710  -23.0000  -11.1140 C.ar    1  UNL1        0.2630
      7  O         26.2190  -23.5260  -10.4030 O.2     1  UNL1       -0.2670
      8  C         23.9820  -22.8580  -10.6720 C.ar    1  UNL1        0.0780
      9  C         23.5730  -23.3210   -9.4180 C.2     1  UNL1        0.0230
     10  C         22.2440  -23.1660   -9.0420 C.2     1  UNL1        0.0380
     11  C         21.3830  -22.5530   -9.9410 C.2     1  UNL1        0.1260
     12  N         21.7640  -22.0920  -11.1690 N.2     1  UNL1       -0.2240
     13  C         23.0630  -22.2530  -11.5200 C.ar    1  UNL1        0.1500
     14  H         26.6100  -22.6000  -12.6810 H       1  UNL1        0.1730
     15  C         19.9410  -22.3600   -9.5840 C.2     1  UNL1        0.2700
     16  O         19.1210  -21.9910  -10.4160 O.2     1  UNL1       -0.2660
     17  N         19.6430  -22.6380   -8.2710 N.am    1  UNL1       -0.3470
     18  H         20.3920  -23.0280   -7.7040 H       1  UNL1        0.1630
     19  C         18.2900  -22.6270   -7.7430 C.3     1  UNL1        0.1180
     20  C         17.6340  -23.9940   -7.9970 C.3     1  UNL1        0.0300
     21  C         16.3410  -24.1360   -7.2080 C.3     1  UNL1        0.0070
     22  C         16.6340  -24.0830   -5.7130 C.3     1  UNL1        0.0390
     23  C         17.4930  -22.9040   -5.3280 C.2     1  UNL1       -0.0500
     24  C         17.5190  -22.5000   -3.9830 C.2     1  UNL1        0.0070
     25  C         18.2900  -22.2300   -6.2730 C.2     1  UNL1       -0.0290
     26  C         18.2970  -21.4160   -3.5800 C.2     1  UNL1        0.0010
     27  C         19.0570  -20.7220   -4.5150 C.2     1  UNL1        0.0010
     28  C         19.0490  -21.1220   -5.8520 C.2     1  UNL1        0.0100
@<TRIPOS>BOND
     1     4     3    2
     2     1     2    1
     3     3     2   ar
     4     3     5   ar
     5     2    13   ar
     6    14     5    1
     7     5     6   ar
     8    13    12    1
     9    13     8   ar
    10    12    11    2
    11     6     8   ar
    12     6     7    2
    13     8     9    1
    14    16    15    2
    15    11    15    1
    16    11    10    1
    17    15    17   am
    18     9    10    2
    19    17    19    1
    20    17    18    1
    21    20    19    1
    22    20    21    1
    23    19    25    1
    24    21    22    1
    25    25    28    1
    26    25    23    2
    27    28    27    2
    28    22    23    1
    29    23    24    1
    30    27    26    1
    31    24    26    2
