@<TRIPOS>MOLECULE
6099_out_ligand_01.pdbqt
 34 37 0 0 0
SMALL
GASTEIGER

@<TRIPOS>ATOM
      1  C         20.6030  -22.6220   -7.8170 C.2     1  UNL1        0.0320
      2  C         21.5970  -21.6460   -7.6990 C.2     1  UNL1        0.0190
      3  C         22.8170  -21.7950   -8.3730 C.2     1  UNL1        0.0300
      4  C         23.0600  -22.9190   -9.1630 C.2     1  UNL1        0.0340
      5  C         22.0700  -23.9050   -9.2620 C.2     1  UNL1        0.0300
      6  C         20.8520  -23.7610   -8.5910 C.2     1  UNL1        0.0190
      7  C         19.2880  -22.5050   -7.1270 C.2     1  UNL1        0.2510
      8  N         18.2610  -23.2760   -7.6390 N.am    1  UNL1       -0.3530
      9  H         18.5040  -24.0260   -8.2730 H       1  UNL1        0.1630
     10  O         19.1750  -21.7870   -6.1420 O.2     1  UNL1       -0.2680
     11  C         16.9570  -23.3500   -6.9800 C.3     1  UNL1        0.0810
     12  C         16.6910  -24.7870   -6.5290 C.3     1  UNL1        0.0320
     13  C         15.8800  -22.8240   -7.9460 C.3     1  UNL1        0.0290
     14  C         16.0120  -23.2960   -9.3990 C.3     1  UNL1        0.0400
     15  C         16.9600  -22.4690  -10.2300 C.2     1  UNL1       -0.0580
     16  C         18.1940  -22.9940  -10.6370 C.2     1  UNL1        0.0070
     17  C         19.0680  -22.2290  -11.4120 C.2     1  UNL1        0.0010
     18  C         18.7180  -20.9330  -11.7860 C.2     1  UNL1        0.0000
     19  C         17.4960  -20.3990  -11.3840 C.2     1  UNL1        0.0010
     20  C         16.6220  -21.1630  -10.6090 C.2     1  UNL1        0.0070
     21  N         24.2530  -23.1380   -9.8750 N.am    1  UNL1       -0.3250
     22  C         24.9880  -22.2250  -10.6160 C.2     1  UNL1        0.2540
     23  O         24.7380  -21.0290  -10.7440 O.2     1  UNL1       -0.2700
     24  H         24.5950  -24.0940   -9.9140 H       1  UNL1        0.1690
     25  C         26.2610  -22.8520  -11.2200 C.3     1  UNL1        0.2450
     26  C         27.1210  -21.8090  -11.9250 C.3     1  UNL1        0.2180
     27  O         26.5120  -21.3400  -13.1330 O.2     1  UNL1       -0.3450
     28  C         25.9970  -22.3680  -13.8740 C.2     1  UNL1        0.1020
     29  C         25.6810  -22.0860  -15.2030 C.2     1  UNL1        0.0390
     30  C         25.7700  -23.6460  -13.3590 C.2     1  UNL1        0.1030
     31  C         25.1690  -23.0900  -16.0250 C.2     1  UNL1        0.0030
     32  C         24.9690  -24.3750  -15.5180 C.2     1  UNL1        0.0030
     33  C         25.2700  -24.6530  -14.1840 C.2     1  UNL1        0.0400
     34  O         26.0050  -23.9860  -12.0530 O.2     1  UNL1       -0.3310
@<TRIPOS>BOND
     1    31    32    2
     2    31    29    1
     3    32    33    1
     4    29    28    2
     5    33    30    2
     6    28    30    1
     7    28    27    1
     8    30    34    1
     9    27    26    1
    10    34    25    1
    11    26    25    1
    12    18    17    2
    13    18    19    1
    14    17    16    1
    15    19    20    2
    16    25    22    1
    17    23    22    2
    18    16    15    2
    19    22    21   am
    20    20    15    1
    21    15    14    1
    22    24    21    1
    23    21     4    1
    24    14    13    1
    25     5     4    2
    26     5     6    1
    27     4     3    1
    28     6     1    2
    29     3     2    2
    30     9     8    1
    31    13    11    1
    32     1     2    1
    33     1     7    1
    34     8     7   am
    35     8    11    1
    36     7    10    2
    37    11    12    1
