@<TRIPOS>MOLECULE
61006_out_ligand_01.pdbqt
 32 35 0 0 0
SMALL
GASTEIGER

@<TRIPOS>ATOM
      1  C         21.1160  -22.1550  -10.1750 C.2     1  UNL1        0.0320
      2  C         20.1590  -21.7170  -11.0990 C.2     1  UNL1        0.0180
      3  C         18.7980  -21.7750  -10.7810 C.2     1  UNL1        0.0190
      4  C         18.3870  -22.2740   -9.5380 C.2     1  UNL1        0.0450
      5  C         19.3380  -22.7250   -8.6140 C.2     1  UNL1       -0.0380
      6  C         20.7010  -22.6750   -8.9400 C.2     1  UNL1        0.0250
      7  C         18.8620  -23.3020   -7.3120 C.3     1  UNL1        0.0770
      8  C         17.5870  -22.5610   -6.9080 C.3     1  UNL1        0.1690
      9  O         16.5980  -22.6860   -7.9550 O.3     1  UNL1       -0.3070
     10  C         16.9330  -22.3620   -9.2310 C.2     1  UNL1        0.2940
     11  O         16.0910  -22.1690  -10.0960 O.2     1  UNL1       -0.2590
     12  C         22.5770  -22.1200  -10.4690 C.2     1  UNL1        0.2520
     13  N         23.0090  -22.8840  -11.5350 N.am    1  UNL1       -0.3520
     14  H         22.3170  -23.2240  -12.1890 H       1  UNL1        0.1630
     15  O         23.3180  -21.4120   -9.7980 O.2     1  UNL1       -0.2680
     16  C         24.3980  -22.8380  -11.9920 C.3     1  UNL1        0.0890
     17  C         24.5950  -23.8060  -13.1630 C.3     1  UNL1        0.0660
     18  C         25.7820  -23.4380  -14.0670 C.3     1  UNL1        0.1530
     19  C         27.1210  -23.6290  -13.3290 C.3     1  UNL1        0.0480
     20  C         25.7830  -24.3860  -15.2850 C.3     1  UNL1        0.0480
     21  N         25.7240  -22.0580  -14.5620 N.3     1  UNL1        0.1010
     22  C         24.9120  -21.0880  -13.8170 C.3     1  UNL1        0.1530
     23  H         25.5050  -22.0180  -15.5570 H       1  UNL1        0.3170
     24  C         24.8420  -21.4050  -12.3120 C.3     1  UNL1        0.0660
     25  C         23.5040  -20.9740  -14.4340 C.3     1  UNL1        0.0480
     26  C         25.6050  -19.7220  -13.9980 C.3     1  UNL1        0.0480
     27  C         16.9340  -23.0140   -5.6140 C.2     1  UNL1       -0.0290
     28  C         17.7530  -23.2140   -4.4870 C.2     1  UNL1        0.0100
     29  C         17.2130  -23.6310   -3.2680 C.2     1  UNL1        0.0010
     30  C         15.8440  -23.8500   -3.1530 C.2     1  UNL1        0.0000
     31  C         15.0160  -23.6460   -4.2540 C.2     1  UNL1        0.0010
     32  C         15.5550  -23.2300   -5.4750 C.2     1  UNL1        0.0100
@<TRIPOS>BOND
     1    23    21    1
     2    20    18    1
     3    21    18    1
     4    21    22    1
     5    25    22    1
     6    18    19    1
     7    18    17    1
     8    26    22    1
     9    22    24    1
    10    17    16    1
    11    24    16    1
    12    14    13    1
    13    16    13    1
    14    13    12   am
    15     2     3    1
    16     2     1    2
    17     3     4    2
    18    12     1    1
    19    12    15    2
    20     1     6    1
    21    11    10    2
    22     4    10    1
    23     4     5    1
    24    10     9    1
    25     6     5    2
    26     5     7    1
    27     9     8    1
    28     7     8    1
    29     8    27    1
    30    27    32    2
    31    27    28    1
    32    32    31    1
    33    28    29    2
    34    31    30    2
    35    29    30    1
