@<TRIPOS>MOLECULE
61008_out_ligand_01.pdbqt
 29 31 0 0 0
SMALL
GASTEIGER

@<TRIPOS>ATOM
      1  C         23.0190  -23.5250   -9.8260 C.2     1  UNL1        0.2580
      2  O         23.5160  -23.8490   -8.7500 O.2     1  UNL1       -0.2670
      3  N         21.6700  -23.7050  -10.0690 N.am    1  UNL1       -0.3550
      4  H         21.2640  -23.4010  -10.9390 H       1  UNL1        0.1620
      5  C         23.7690  -22.9200  -10.9240 C.2     1  UNL1        0.0760
      6  C         25.1240  -22.9360  -11.2060 C.2     1  UNL1        0.0630
      7  C         25.4480  -22.2160  -12.4000 C.2     1  UNL1        0.0990
      8  C         24.3280  -21.6860  -13.0040 C.2     1  UNL1        0.1490
      9  S         22.9150  -22.0110  -12.1020 S.3     1  UNL1       -0.0690
     10  O         26.6710  -22.0090  -12.9560 O.2     1  UNL1       -0.3540
     11  C         27.1200  -23.0330  -13.8330 C.3     1  UNL1        0.2100
     12  S         24.1040  -20.7130  -14.4620 S.O2    1  UNL1        0.2480
     13  O         24.9740  -19.5630  -14.3720 O.2     1  UNL1       -0.2050
     14  O         24.1500  -21.6440  -15.5660 O.2     1  UNL1       -0.2050
     15  N         22.5380  -20.0970  -14.4560 N.3     1  UNL1       -0.2250
     16  H         22.0920  -20.3360  -13.5710 H       1  UNL1        0.1360
     17  H         22.5750  -19.0910  -14.6200 H       1  UNL1        0.1360
     18  C         20.7610  -24.2610   -9.0830 C.3     1  UNL1        0.1370
     19  C         19.7340  -23.2750   -8.4250 C.3     1  UNL1       -0.0000
     20  C         20.4460  -22.2710   -7.4880 C.3     1  UNL1        0.0220
     21  C         18.8230  -24.1900   -7.5460 C.3     1  UNL1        0.0160
     22  C         17.4710  -23.5710   -7.2330 C.3     1  UNL1        0.0060
     23  C         16.7100  -23.3670   -8.5340 C.3     1  UNL1        0.0390
     24  C         17.5090  -22.5630   -9.5270 C.2     1  UNL1       -0.0510
     25  C         16.8030  -21.8710  -10.5290 C.2     1  UNL1        0.0070
     26  C         18.9180  -22.4910   -9.4740 C.2     1  UNL1       -0.0420
     27  C         17.4690  -21.0620  -11.4440 C.2     1  UNL1        0.0010
     28  C         18.8470  -20.9230  -11.3580 C.2     1  UNL1        0.0010
     29  C         19.5590  -21.6220  -10.3810 C.2     1  UNL1        0.0080
@<TRIPOS>BOND
     1    14    12    2
     2    17    15    1
     3    12    15    1
     4    12    13    2
     5    12     8    1
     6    15    16    1
     7    11    10    1
     8     8     7    2
     9     8     9    1
    10    10     7    1
    11     7     6    1
    12     9     5    1
    13    27    28    2
    14    27    25    1
    15    28    29    1
    16     6     5    2
    17     4     3    1
    18     5     1    1
    19    25    24    2
    20    29    26    2
    21     3     1   am
    22     3    18    1
    23     1     2    2
    24    24    26    1
    25    24    23    1
    26    26    19    1
    27    18    19    1
    28    23    22    1
    29    19    21    1
    30    19    20    1
    31    21    22    1
