@<TRIPOS>MOLECULE
61002_out_ligand_01.pdbqt
 31 34 0 0 0
SMALL
GASTEIGER

@<TRIPOS>ATOM
      1  C         18.8540  -21.8480  -11.4990 C.2     1  UNL1        0.0350
      2  C         18.1720  -20.6410  -11.7010 C.2     1  UNL1        0.0290
      3  C         16.9300  -20.4150  -11.1060 C.2     1  UNL1        0.0030
      4  C         16.3570  -21.3940  -10.2990 C.2     1  UNL1        0.0090
      5  C         17.0270  -22.6030  -10.0730 C.2     1  UNL1       -0.0380
      6  C         18.2740  -22.8210  -10.6820 C.2     1  UNL1        0.0380
      7  C         16.3940  -23.6710   -9.2170 C.3     1  UNL1        0.1700
      8  N         16.0380  -23.1310   -7.9110 N.3     1  UNL1       -0.3110
      9  H         15.0540  -22.9440   -7.7210 H       1  UNL1        0.1720
     10  S         16.9110  -23.6290   -6.5790 S.O2    1  UNL1        0.2590
     11  O         16.4870  -22.8010   -5.4710 O.2     1  UNL1       -0.2010
     12  O         16.8520  -25.0740   -6.5200 O.2     1  UNL1       -0.2010
     13  C         18.5570  -23.1340   -7.0170 C.2     1  UNL1        0.0800
     14  C         19.0510  -21.8890   -6.5900 C.2     1  UNL1        0.0260
     15  C         20.3520  -21.5010   -6.9210 C.2     1  UNL1        0.0090
     16  C         21.1220  -22.3650   -7.6840 C.2     1  UNL1       -0.0520
     17  C         20.6240  -23.6020   -8.1100 C.2     1  UNL1       -0.0500
     18  C         22.5400  -22.1810   -8.1300 C.3     1  UNL1        0.0390
     19  C         19.3400  -24.0060   -7.7840 C.2     1  UNL1        0.0330
     20  C         21.6610  -24.3580   -8.8780 C.3     1  UNL1        0.0390
     21  C         22.6420  -23.2340   -9.2410 C.3     1  UNL1        0.0090
     22  N         20.1050  -21.9950  -12.1400 N.am    1  UNL1       -0.3230
     23  C         21.2830  -21.3360  -11.8360 C.2     1  UNL1        0.2570
     24  O         21.4690  -20.5580  -10.9080 O.2     1  UNL1       -0.2670
     25  H         20.1410  -22.7170  -12.8480 H       1  UNL1        0.1690
     26  C         22.4350  -21.6580  -12.7120 C.2     1  UNL1        0.0490
     27  C         23.4240  -22.5360  -12.2640 C.2     1  UNL1        0.0200
     28  C         24.5040  -22.8320  -13.0930 C.2     1  UNL1        0.0200
     29  C         24.5580  -22.2320  -14.3420 C.2     1  UNL1        0.1160
     30  N         23.6270  -21.3640  -14.8000 N.2     1  UNL1       -0.2720
     31  C         22.5940  -21.0850  -13.9670 C.2     1  UNL1        0.1330
@<TRIPOS>BOND
     1    30    29    2
     2    30    31    1
     3    29    28    1
     4    31    26    2
     5    28    27    2
     6    25    22    1
     7    26    27    1
     8    26    23    1
     9    22    23   am
    10    22     1    1
    11    23    24    2
    12     2     1    2
    13     2     3    1
    14     1     6    1
    15     3     4    2
    16     6     5    2
    17     4     5    1
    18     5     7    1
    19    21    20    1
    20    21    18    1
    21     7     8    1
    22    20    17    1
    23    18    16    1
    24    17    19    1
    25    17    16    2
    26     8     9    1
    27     8    10    1
    28    19    13    2
    29    16    15    1
    30    13    14    1
    31    13    10    1
    32    15    14    2
    33    10    12    2
    34    10    11    2
