@<TRIPOS>MOLECULE
61034_out_ligand_01.pdbqt
 32 35 0 0 0
SMALL
GASTEIGER

@<TRIPOS>ATOM
      1  C         23.4590  -21.7480  -12.9080 C.2     1  UNL1        0.0340
      2  C         24.4190  -22.0450  -11.9340 C.2     1  UNL1        0.0190
      3  C         24.0200  -22.4310  -10.6510 C.2     1  UNL1        0.0270
      4  C         22.6600  -22.5200  -10.3260 C.2     1  UNL1        0.0370
      5  C         21.6960  -22.2150  -11.3210 C.2     1  UNL1        0.0570
      6  C         22.0950  -21.8240  -12.5980 C.2     1  UNL1        0.0480
      7  N         20.3540  -22.3230  -10.9010 N.am    1  UNL1       -0.3210
      8  C         19.2610  -21.5920  -11.3010 C.2     1  UNL1        0.2590
      9  O         19.2690  -20.7160  -12.1590 O.2     1  UNL1       -0.2670
     10  H         20.2360  -23.0800  -10.2360 H       1  UNL1        0.1690
     11  C         18.0210  -21.9590  -10.6250 C.2     1  UNL1        0.0680
     12  C         16.7370  -21.3640  -10.6310 C.2     1  UNL1        0.1570
     13  N         15.8500  -22.0140   -9.8730 N.2     1  UNL1       -0.1840
     14  N         16.5660  -23.0390   -9.3610 N.pl3   1  UNL1       -0.2760
     15  C         17.8590  -23.0560   -9.7960 C.2     1  UNL1        0.1310
     16  C         15.9280  -24.0170   -8.4900 C.3     1  UNL1        0.1890
     17  C         16.1780  -23.7150   -7.0340 C.2     1  UNL1       -0.0380
     18  C         15.3510  -22.8140   -6.3450 C.2     1  UNL1        0.0090
     19  C         15.5800  -22.5290   -4.9980 C.2     1  UNL1        0.0010
     20  C         16.6370  -23.1390   -4.3270 C.2     1  UNL1        0.0000
     21  C         17.4670  -24.0340   -5.0010 C.2     1  UNL1        0.0010
     22  C         17.2400  -24.3200   -6.3490 C.2     1  UNL1        0.0090
     23  N         22.2000  -22.9320   -9.0520 N.pl3   1  UNL1       -0.2810
     24  C         21.6150  -24.2860   -8.9790 C.3     1  UNL1        0.0960
     25  C         20.1910  -24.0840   -8.4730 C.3     1  UNL1        0.0160
     26  C         20.3090  -22.8280   -7.6300 C.3     1  UNL1        0.0160
     27  C         21.2430  -21.9650   -8.4700 C.3     1  UNL1        0.0960
     28  C         23.8550  -21.3230  -14.2760 C.2     1  UNL1        0.2490
     29  N         23.1430  -20.2990  -14.8380 N.am    1  UNL1       -0.3660
     30  H         22.5970  -19.6650  -14.2730 H       1  UNL1        0.1590
     31  H         23.5270  -19.9330  -15.7020 H       1  UNL1        0.1590
     32  O         24.7920  -21.8360  -14.8710 O.2     1  UNL1       -0.2680
@<TRIPOS>BOND
     1    31    29    1
     2    32    28    2
     3    29    28   am
     4    29    30    1
     5    28     1    1
     6     1     6    2
     7     1     2    1
     8     6     5    1
     9     9     8    2
    10     2     3    2
    11     5     7    1
    12     5     4    2
    13     8     7   am
    14     8    11    1
    15     7    10    1
    16     3     4    1
    17    12    11    1
    18    12    13    2
    19    11    15    2
    20     4    23    1
    21    13    14    1
    22    15    14    1
    23    14    16    1
    24    23    24    1
    25    23    27    1
    26    24    25    1
    27    16    17    1
    28    25    26    1
    29    27    26    1
    30    17    22    2
    31    17    18    1
    32    22    21    1
    33    18    19    2
    34    21    20    2
    35    19    20    1
