@<TRIPOS>MOLECULE
61049_out_ligand_01.pdbqt
 36 39 0 0 0
SMALL
GASTEIGER

@<TRIPOS>ATOM
      1  C         21.1850  -21.5880  -11.0390 C.2     1  UNL1        0.0360
      2  C         20.4090  -20.8030  -11.9050 C.2     1  UNL1        0.0290
      3  C         19.0140  -20.7810  -11.8080 C.2     1  UNL1        0.0040
      4  C         18.3760  -21.5480  -10.8390 C.2     1  UNL1        0.0250
      5  C         19.1460  -22.3280   -9.9720 C.2     1  UNL1        0.0830
      6  C         20.5440  -22.3510  -10.0630 C.2     1  UNL1        0.0540
      7  N         22.5800  -21.5500  -11.2240 N.am    1  UNL1       -0.3260
      8  C         23.5690  -21.4410  -10.2630 C.2     1  UNL1        0.2310
      9  O         23.3880  -21.3790   -9.0490 O.2     1  UNL1       -0.2720
     10  H         22.9010  -21.5740  -12.1920 H       1  UNL1        0.1690
     11  C         24.9830  -21.4740  -10.8260 C.3     1  UNL1        0.1850
     12  S         25.5780  -23.1770  -11.0550 S.3     1  UNL1       -0.0810
     13  C         25.4060  -23.3090  -12.8180 C.2     1  UNL1        0.1910
     14  N         25.5050  -24.5440  -13.3350 N.2     1  UNL1       -0.2100
     15  C         25.3820  -24.7080  -14.6630 C.3     1  UNL1        0.1160
     16  C         25.1430  -23.5910  -15.4750 C.2     1  UNL1        0.0400
     17  C         24.9650  -23.4150  -16.8910 C.2     1  UNL1        0.0250
     18  C         25.0650  -22.3750  -14.8150 C.2     1  UNL1        0.1140
     19  C         24.7540  -22.0970  -17.2370 C.2     1  UNL1        0.0530
     20  S         24.7750  -21.0690  -15.8710 S.3     1  UNL1       -0.0810
     21  N         25.1900  -22.1710  -13.4930 N.pl3   1  UNL1       -0.2150
     22  N         25.4940  -26.0010  -15.1520 N.3     1  UNL1       -0.2860
     23  H         25.2330  -26.6880  -14.4520 H       1  UNL1        0.1250
     24  H         25.1480  -26.1610  -16.0890 H       1  UNL1        0.1250
     25  S         18.3470  -23.3350   -8.7360 S.O2    1  UNL1        0.2840
     26  O         16.9890  -23.5320   -9.2010 O.2     1  UNL1       -0.1980
     27  O         19.2180  -24.4710   -8.4960 O.2     1  UNL1       -0.1980
     28  N         18.3540  -22.3910   -7.4230 N.2     1  UNL1       -0.1470
     29  C         17.9400  -22.8210   -6.2710 C.2     1  UNL1        0.1130
     30  C         17.3940  -24.2140   -5.9750 C.3     1  UNL1        0.0790
     31  N         17.9500  -21.9210   -5.2240 N.pl3   1  UNL1       -0.3780
     32  C         15.8740  -24.2270   -5.7740 C.3     1  UNL1        0.0080
     33  C         15.2040  -22.8710   -5.5350 C.3     1  UNL1        0.0020
     34  C         15.6710  -22.0980   -4.2960 C.3     1  UNL1        0.0200
     35  C         17.1720  -22.1020   -4.0160 C.3     1  UNL1        0.1210
     36  H         18.0880  -20.9620   -5.5210 H       1  UNL1        0.1600
@<TRIPOS>BOND
     1    19    17    2
     2    19    20    1
     3    17    16    1
     4    24    22    1
     5    20    18    1
     6    16    18    2
     7    16    15    1
     8    22    15    1
     9    22    23    1
    10    18    21    1
    11    15    14    1
    12    21    13    1
    13    14    13    2
    14    13    12    1
    15    10     7    1
    16     2     3    1
    17     2     1    2
    18     3     4    2
    19     7     1    1
    20     7     8   am
    21    12    11    1
    22     1     6    1
    23     4     5    1
    24    11     8    1
    25     8     9    2
    26     6     5    2
    27     5    25    1
    28    26    25    2
    29    25    27    2
    30    25    28    1
    31    28    29    2
    32    29    30    1
    33    29    31    1
    34    30    32    1
    35    32    33    1
    36    33    34    1
    37    36    31    1
    38    31    35    1
    39    34    35    1
