@<TRIPOS>MOLECULE
61042_out_ligand_01.pdbqt
 31 34 0 0 0
SMALL
GASTEIGER

@<TRIPOS>ATOM
      1  N         21.3000  -22.6700   -8.3830 N.pl3   1  UNL1       -0.3740
      2  H         21.7050  -21.8320   -8.7870 H       1  UNL1        0.1610
      3  C         19.9280  -22.6370   -8.2120 C.ar    1  UNL1        0.1380
      4  N         19.4150  -22.9850   -7.0580 N.ar    1  UNL1       -0.2090
      5  C         18.0580  -22.9780   -6.9180 C.ar    1  UNL1        0.1770
      6  N         17.2050  -22.6240   -7.9420 N.ar    1  UNL1       -0.2130
      7  C         17.2270  -23.2860   -5.8620 C.ar    1  UNL1        0.1070
      8  N         15.8930  -22.6890   -7.6150 N.ar    1  UNL1       -0.1690
      9  C         17.6710  -22.2240   -9.2000 C.ar    1  UNL1        0.0740
     10  C         15.9070  -23.0940   -6.3360 C.ar    1  UNL1        0.0770
     11  C         14.6340  -23.2880   -5.6000 C.3     1  UNL1        0.0740
     12  C         16.8010  -21.8500  -10.2270 C.2     1  UNL1        0.0320
     13  C         19.0600  -22.2040   -9.3690 C.ar    1  UNL1        0.0380
     14  C         17.3340  -21.4360  -11.4460 C.2     1  UNL1        0.0020
     15  C         18.7180  -21.3910  -11.6260 C.2     1  UNL1        0.0010
     16  C         19.5820  -21.7680  -10.5920 C.2     1  UNL1        0.0170
     17 CL         17.6700  -23.7970   -4.3050 Cl      1  UNL1       -0.0780
     18  C         21.9740  -23.8830   -8.8440 C.3     1  UNL1        0.1260
     19  C         23.4580  -23.6150   -9.1260 C.3     1  UNL1        0.0580
     20  C         23.7060  -22.8590  -10.4130 C.2     1  UNL1       -0.0570
     21  C         24.9350  -22.2210  -10.6390 C.2     1  UNL1        0.0090
     22  C         25.1730  -21.5450  -11.8380 C.2     1  UNL1        0.0250
     23  C         24.1720  -21.4990  -12.8100 C.2     1  UNL1        0.0740
     24  C         22.9460  -22.1360  -12.6040 C.2     1  UNL1        0.0250
     25  C         22.7140  -22.8090  -11.4050 C.2     1  UNL1        0.0090
     26  S         24.4630  -20.6560  -14.3420 S.O2    1  UNL1        0.2390
     27  O         25.2090  -19.4500  -14.0680 O.2     1  UNL1       -0.2060
     28  O         24.8890  -21.6280  -15.3200 O.2     1  UNL1       -0.2060
     29  N         22.9100  -20.1490  -14.7480 N.3     1  UNL1       -0.2250
     30  H         22.2780  -20.9520  -14.6980 H       1  UNL1        0.1360
     31  H         22.8620  -19.6830  -15.6520 H       1  UNL1        0.1360
@<TRIPOS>BOND
     1    31    29    1
     2    28    26    2
     3    29    30    1
     4    29    26    1
     5    26    27    2
     6    26    23    1
     7    23    24    2
     8    23    22    1
     9    24    25    1
    10    22    21    2
    11    15    14    2
    12    15    16    1
    13    14    12    1
    14    25    20    2
    15    21    20    1
    16    16    13    2
    17    20    19    1
    18    12     9    2
    19    13     9   ar
    20    13     3   ar
    21     9     6   ar
    22    19    18    1
    23    18     1    1
    24     2     1    1
    25     1     3    1
    26     3     4   ar
    27     6     8   ar
    28     6     5   ar
    29     8    10   ar
    30     4     5   ar
    31     5     7   ar
    32    10     7   ar
    33    10    11    1
    34     7    17    1
