@<TRIPOS>MOLECULE
61041_out_ligand_01.pdbqt
 35 39 0 0 0
SMALL
GASTEIGER

@<TRIPOS>ATOM
      1  C         18.2160  -22.6530  -11.0710 C.3     1  UNL1        0.1850
      2  S         18.7730  -21.0650  -11.7490 S.3     1  UNL1       -0.0830
      3  C         20.4840  -21.3600  -11.8870 C.ar    1  UNL1        0.1700
      4  N         21.1230  -21.9780  -10.9450 N.ar    1  UNL1       -0.2160
      5  C         22.4470  -22.1460  -11.2080 C.ar    1  UNL1        0.1170
      6  S         23.4850  -22.9510  -10.1170 S.2     1  UNL1       -0.0730
      7  C         23.1260  -21.7280  -12.3370 C.ar    1  UNL1        0.0750
      8  C         24.8240  -22.7560  -11.1500 C.ar    1  UNL1       -0.0080
      9  C         24.5170  -22.0550  -12.2980 C.ar    1  UNL1       -0.0260
     10  C         26.1820  -23.2810  -10.7930 C.3     1  UNL1        0.0510
     11  C         25.5430  -21.7450  -13.3450 C.3     1  UNL1        0.0410
     12  C         26.9720  -22.0110  -12.8400 C.3     1  UNL1        0.0090
     13  C         27.1060  -23.3130  -12.0280 C.3     1  UNL1       -0.0140
     14  C         26.8490  -24.5470  -12.8970 C.3     1  UNL1        0.0100
     15  C         22.3610  -21.0480  -13.3620 C.ar    1  UNL1        0.2610
     16  N         21.0250  -20.9210  -13.0660 N.ar    1  UNL1       -0.3020
     17  O         22.8270  -20.6320  -14.4160 O.2     1  UNL1       -0.2670
     18  H         20.4510  -20.4660  -13.7540 H       1  UNL1        0.1710
     19  C         17.4750  -22.4780   -9.7560 C.2     1  UNL1        0.2320
     20  O         16.4500  -21.8060   -9.7230 O.2     1  UNL1       -0.2720
     21  N         18.0540  -23.1790   -8.7190 N.am    1  UNL1       -0.3200
     22  H         18.7920  -23.8440   -8.9400 H       1  UNL1        0.1690
     23  C         17.6420  -23.2100   -7.3940 C.ar    1  UNL1        0.0930
     24  S         16.2010  -24.0100   -6.9350 S.2     1  UNL1       -0.0750
     25  C         16.4120  -23.5350   -5.3500 C.ar    1  UNL1       -0.0080
     26  C         17.5460  -22.7960   -5.1280 C.ar    1  UNL1       -0.0260
     27  C         15.5850  -23.7670   -4.1440 C.3     1  UNL1        0.0470
     28  C         18.2940  -22.5800   -6.3240 C.ar    1  UNL1        0.0720
     29  C         17.6510  -22.4210   -3.6920 C.3     1  UNL1        0.0410
     30  C         16.2230  -22.7440   -3.1530 C.3     1  UNL1        0.0100
     31  C         19.5450  -21.8460   -6.5040 C.2     1  UNL1        0.2520
     32  N         19.7310  -20.7400   -5.7170 N.am    1  UNL1       -0.3660
     33  H         19.1950  -20.6160   -4.8710 H       1  UNL1        0.1590
     34  H         20.6520  -20.3260   -5.7450 H       1  UNL1        0.1590
     35  O         20.4290  -22.2160   -7.2740 O.2     1  UNL1       -0.2680
@<TRIPOS>BOND
     1    17    15    2
     2    18    16    1
     3    15    16   ar
     4    15     7   ar
     5    11    12    1
     6    11     9    1
     7    16     3   ar
     8    14    13    1
     9    12    13    1
    10     7     9   ar
    11     7     5   ar
    12     9     8   ar
    13    13    10    1
    14     3     2    1
    15     3     4   ar
    16     2     1    1
    17     5     4   ar
    18     5     6   ar
    19     8    10    1
    20     8     6   ar
    21     1    19    1
    22    19    20    2
    23    19    21   am
    24    22    21    1
    25    21    23    1
    26    23    24   ar
    27    23    28   ar
    28    35    31    2
    29    24    25   ar
    30    31    28    1
    31    31    32   am
    32    28    26   ar
    33    34    32    1
    34    32    33    1
    35    25    26   ar
    36    25    27    1
    37    26    29    1
    38    27    30    1
    39    29    30    1
