@<TRIPOS>MOLECULE
61059_out_ligand_01.pdbqt
 33 36 0 0 0
SMALL
GASTEIGER

@<TRIPOS>ATOM
      1  C         18.0840  -22.6300   -6.6910 C.2     1  UNL1        0.0830
      2  C         19.2740  -22.6100   -7.4420 C.2     1  UNL1        0.0540
      3  C         20.3610  -21.8270   -7.0440 C.2     1  UNL1        0.0360
      4  C         20.2460  -21.0700   -5.8800 C.2     1  UNL1        0.0300
      5  C         19.0680  -21.0960   -5.1230 C.2     1  UNL1        0.0100
      6  C         17.9660  -21.8730   -5.5130 C.2     1  UNL1       -0.0390
      7  C         16.7450  -21.8780   -4.6370 C.3     1  UNL1        0.0500
      8  N         21.5160  -21.8720   -7.8540 N.am    1  UNL1       -0.3220
      9  C         21.9950  -22.9500   -8.5890 C.2     1  UNL1        0.2770
     10  O         21.4940  -24.0710   -8.5880 O.2     1  UNL1       -0.2660
     11  H         22.0780  -21.0320   -7.8540 H       1  UNL1        0.1690
     12  C         23.2020  -22.6460   -9.3800 C.2     1  UNL1        0.1550
     13  C         23.5770  -21.4400  -10.0340 C.2     1  UNL1        0.0820
     14  C         24.7930  -21.7010  -10.6280 C.2     1  UNL1        0.1370
     15  O         25.1260  -22.9930  -10.3480 O.2     1  UNL1       -0.2100
     16  N         24.1440  -23.5830   -9.5830 N.2     1  UNL1       -0.1220
     17  C         25.6100  -20.8260  -11.4100 C.2     1  UNL1        0.1110
     18  C         25.8790  -20.8780  -12.7680 C.2     1  UNL1        0.0420
     19  C         26.7390  -19.7940  -13.0670 C.2     1  UNL1        0.0270
     20  C         26.9470  -19.1380  -11.8780 C.2     1  UNL1        0.1420
     21  O         26.2730  -19.7510  -10.8720 O.2     1  UNL1       -0.3200
     22  S         16.7500  -23.6620   -7.2860 S.O2    1  UNL1        0.2460
     23  O         15.5710  -22.8340   -7.4040 O.2     1  UNL1       -0.2060
     24  O         16.7530  -24.8760   -6.4940 O.2     1  UNL1       -0.2060
     25  N         17.3380  -24.0990   -8.8270 N.pl3   1  UNL1       -0.1810
     26  H         16.6850  -24.7720   -9.2300 H       1  UNL1        0.1460
     27  C         17.5380  -22.9860   -9.7080 C.2     1  UNL1        0.0230
     28  C         16.4730  -22.1310   -9.9890 C.2     1  UNL1        0.0240
     29  C         16.6530  -21.0650  -10.8690 C.2     1  UNL1        0.0020
     30  C         17.8920  -20.8650  -11.4810 C.2     1  UNL1        0.0070
     31  C         18.9560  -21.7410  -11.2320 C.2     1  UNL1       -0.0600
     32  C         20.2910  -21.5160  -11.8800 C.3     1  UNL1        0.0480
     33  C         18.7730  -22.8010  -10.3340 C.2     1  UNL1        0.0310
@<TRIPOS>BOND
     1    19    18    1
     2    19    20    2
     3    18    17    2
     4    32    31    1
     5    20    21    1
     6    30    31    2
     7    30    29    1
     8    17    21    1
     9    17    14    1
    10    31    33    1
    11    29    28    2
    12    14    15    1
    13    14    13    2
    14    15    16    1
    15    33    27    2
    16    13    12    1
    17    28    27    1
    18    27    25    1
    19    16    12    2
    20    12     9    1
    21    26    25    1
    22    25    22    1
    23     9    10    2
    24     9     8   am
    25    11     8    1
    26     8     3    1
    27     2     3    1
    28     2     1    2
    29    23    22    2
    30    22     1    1
    31    22    24    2
    32     3     4    2
    33     1     6    1
    34     4     5    1
    35     6     5    2
    36     6     7    1
