@<TRIPOS>MOLECULE
61052_out_ligand_01.pdbqt
 30 32 0 0 0
SMALL
GASTEIGER

@<TRIPOS>ATOM
      1  C         20.3450  -22.0860  -11.0440 C.2     1  UNL1        0.0360
      2  C         19.4530  -21.3710  -11.8370 C.2     1  UNL1        0.0300
      3  C         18.0960  -21.3060  -11.5000 C.2     1  UNL1        0.0100
      4  C         17.5910  -21.9640  -10.3680 C.2     1  UNL1       -0.0390
      5  C         16.1260  -21.8290  -10.0630 C.3     1  UNL1        0.0500
      6  C         18.4960  -22.6860   -9.5710 C.2     1  UNL1        0.0870
      7  C         19.8630  -22.7350   -9.9060 C.2     1  UNL1        0.0550
      8  S         17.9880  -23.5660   -8.0990 S.O2    1  UNL1        0.2630
      9  O         16.7080  -24.1880   -8.3670 O.2     1  UNL1       -0.2000
     10  O         19.1030  -24.3590   -7.6300 O.2     1  UNL1       -0.2000
     11  N         17.7530  -22.3320   -6.9630 N.pl3   1  UNL1       -0.2780
     12  H         17.4340  -21.4740   -7.4150 H       1  UNL1        0.1790
     13  C         17.0930  -22.6620   -5.7380 C.2     1  UNL1        0.0810
     14  C         17.8000  -23.1850   -4.6560 C.2     1  UNL1        0.0330
     15  C         17.1180  -23.5460   -3.4900 C.2     1  UNL1        0.0020
     16  C         15.7340  -23.3860   -3.4060 C.2     1  UNL1        0.0030
     17  C         15.0240  -22.8600   -4.4860 C.2     1  UNL1        0.0440
     18  C         15.7080  -22.5020   -5.6420 C.2     1  UNL1        0.1430
     19  F         15.0230  -22.0030   -6.6820 F       1  UNL1       -0.2040
     20  N         21.7180  -22.1980  -11.3140 N.am    1  UNL1       -0.3220
     21  C         22.7820  -21.6980  -10.5860 C.2     1  UNL1        0.2740
     22  O         22.7320  -21.0410   -9.5530 O.2     1  UNL1       -0.2660
     23  H         22.0010  -22.7120  -12.1470 H       1  UNL1        0.1690
     24  C         24.1090  -22.0380  -11.2000 C.2     1  UNL1        0.1240
     25  C         25.2650  -21.4100  -10.7590 C.2     1  UNL1        0.0370
     26  C         26.4680  -21.7630  -11.3590 C.2     1  UNL1        0.0040
     27  C         26.4720  -22.7220  -12.3690 C.2     1  UNL1        0.0270
     28  C         25.2690  -23.3060  -12.7570 C.2     1  UNL1        0.0310
     29  C         25.2510  -24.3410  -13.8410 C.3     1  UNL1        0.0700
     30  N         24.0830  -22.9790  -12.1890 N.2     1  UNL1       -0.2480
@<TRIPOS>BOND
     1    29    28    1
     2    28    27    2
     3    28    30    1
     4    27    26    1
     5    30    24    2
     6    23    20    1
     7     2     3    1
     8     2     1    2
     9     3     4    2
    10    26    25    2
    11    20     1    1
    12    20    21   am
    13    24    25    1
    14    24    21    1
    15     1     7    1
    16    21    22    2
    17     4     5    1
    18     4     6    1
    19     7     6    2
    20     6     8    1
    21     9     8    2
    22     8    10    2
    23     8    11    1
    24    12    11    1
    25    11    13    1
    26    19    18    1
    27    13    18    2
    28    13    14    1
    29    18    17    1
    30    14    15    2
    31    17    16    2
    32    15    16    1
