@<TRIPOS>MOLECULE
61063_out_ligand_01.pdbqt
 30 33 0 0 0
SMALL
GASTEIGER

@<TRIPOS>ATOM
      1  C         18.3630  -22.3620   -8.9910 C.2     1  UNL1       -0.0010
      2  C         17.2740  -22.1680   -9.8210 C.2     1  UNL1        0.0650
      3  S         17.7300  -21.7080  -11.4030 S.3     1  UNL1       -0.0800
      4  C         19.3870  -21.7620  -11.0050 C.2     1  UNL1        0.1150
      5  N         20.3370  -21.4620  -11.9260 N.2     1  UNL1       -0.2350
      6  C         21.5480  -21.5290  -11.4780 C.2     1  UNL1        0.2140
      7  N         21.9180  -21.8780  -10.1930 N.am    1  UNL1       -0.3040
      8  C         20.9700  -22.2050   -9.2230 C.2     1  UNL1        0.2620
      9  O         21.2700  -22.5370   -8.0790 O.2     1  UNL1       -0.2670
     10  C         19.5940  -22.1280   -9.6900 C.2     1  UNL1        0.0800
     11  C         23.3250  -21.8890   -9.8300 C.3     1  UNL1        0.1710
     12  C         24.2140  -22.1270  -11.0310 C.2     1  UNL1       -0.0400
     13  C         25.2180  -21.2090  -11.3760 C.2     1  UNL1        0.0100
     14  C         26.0520  -21.4460  -12.4740 C.2     1  UNL1        0.0170
     15  C         25.8960  -22.6090  -13.2360 C.2     1  UNL1        0.0310
     16  C         24.8910  -23.5220  -12.9030 C.2     1  UNL1        0.0170
     17  C         24.0610  -23.2870  -11.8040 C.2     1  UNL1        0.0100
     18  C         26.7550  -22.9020  -14.4140 C.2     1  UNL1        0.2490
     19  N         27.0940  -24.2090  -14.6370 N.am    1  UNL1       -0.3660
     20  H         26.5730  -24.9690  -14.2260 H       1  UNL1        0.1590
     21  H         27.5580  -24.3910  -15.5180 H       1  UNL1        0.1590
     22  O         27.1210  -22.0200  -15.1810 O.2     1  UNL1       -0.2680
     23  C         18.1610  -22.7620   -7.6050 C.2     1  UNL1       -0.0240
     24  C         17.7050  -24.0450   -7.3010 C.2     1  UNL1        0.0130
     25  C         17.5000  -24.4200   -5.9720 C.2     1  UNL1        0.0080
     26  C         17.7450  -23.5190   -4.9240 C.2     1  UNL1       -0.0560
     27  C         17.5170  -23.9630   -3.5040 C.3     1  UNL1        0.0490
     28  C         18.2060  -22.2220   -5.2230 C.2     1  UNL1       -0.0550
     29  C         18.4100  -21.8570   -6.5660 C.2     1  UNL1        0.0190
     30  C         18.4930  -21.2210   -4.1370 C.3     1  UNL1        0.0490
@<TRIPOS>BOND
     1    21    19    1
     2    22    18    2
     3    19    18   am
     4    19    20    1
     5    18    15    1
     6    15    16    2
     7    15    14    1
     8    16    17    1
     9    14    13    2
    10     5     6    2
    11     5     4    1
    12    17    12    2
    13     6     7    1
    14     3     4    1
    15     3     2    1
    16    13    12    1
    17    12    11    1
    18     4    10    2
    19     7    11    1
    20     7     8   am
    21     2     1    2
    22    10     8    1
    23    10     1    1
    24     8     9    2
    25     1    23    1
    26    23    24    2
    27    23    29    1
    28    24    25    1
    29    29    28    2
    30    25    26    2
    31    28    26    1
    32    28    30    1
    33    26    27    1
