@<TRIPOS>MOLECULE
61066_out_ligand_01.pdbqt
 31 34 0 0 0
SMALL
GASTEIGER

@<TRIPOS>ATOM
      1  N         23.9470  -23.2220  -10.7710 N.am    1  UNL1       -0.3260
      2  C         23.5350  -22.2280   -9.9040 C.2     1  UNL1        0.2350
      3  O         23.8500  -21.0410   -9.9480 O.2     1  UNL1       -0.2720
      4  H         23.5590  -24.1380  -10.5450 H       1  UNL1        0.1690
      5  C         22.6190  -22.7600   -8.7880 C.3     1  UNL1        0.1950
      6  N         21.7190  -23.8390   -9.2530 N.pl3   1  UNL1       -0.2830
      7  H         22.0040  -24.7360   -8.8620 H       1  UNL1        0.1280
      8  C         20.3190  -23.6980   -9.1080 C.2     1  UNL1        0.0190
      9  C         19.6070  -24.2660   -8.0230 C.2     1  UNL1        0.0250
     10  C         18.2260  -24.0670   -7.8470 C.2     1  UNL1        0.0100
     11  C         17.5480  -23.2670   -8.7450 C.2     1  UNL1       -0.0460
     12  C         18.2400  -22.6780   -9.7680 C.2     1  UNL1       -0.0110
     13  C         16.0970  -22.8930   -8.7680 C.2     1  UNL1        0.0440
     14  C         17.3910  -21.9020  -10.5200 C.2     1  UNL1       -0.0460
     15  C         19.6110  -22.8320   -9.9990 C.2     1  UNL1       -0.0040
     16  C         17.8900  -21.1940  -11.5990 C.2     1  UNL1        0.0080
     17  C         15.9860  -21.9600   -9.9990 C.2     1  UNL1        0.0440
     18  C         19.2570  -21.2880  -11.8850 C.2     1  UNL1        0.0020
     19  C         20.1110  -22.0900  -11.1000 C.2     1  UNL1        0.0140
     20  C         24.7670  -23.1170  -11.9060 C.2     1  UNL1        0.0350
     21  C         26.1380  -23.3330  -11.7220 C.2     1  UNL1        0.0290
     22  C         27.0230  -23.2500  -12.7990 C.2     1  UNL1        0.0030
     23  C         26.5410  -22.9430  -14.0690 C.2     1  UNL1        0.0170
     24  C         25.1740  -22.7150  -14.2670 C.2     1  UNL1        0.0340
     25  C         24.2890  -22.8180  -13.1840 C.2     1  UNL1        0.0460
     26  C         24.7080  -22.3920  -15.6470 C.2     1  UNL1        0.2510
     27  N         24.9230  -23.3500  -16.6160 N.am    1  UNL1       -0.3570
     28  H         25.2430  -24.2710  -16.3480 H       1  UNL1        0.1620
     29  O         24.1380  -21.3280  -15.8670 O.2     1  UNL1       -0.2680
     30  C         24.4450  -23.1770  -17.9710 C.3     1  UNL1        0.1180
     31  C         23.0490  -23.7450  -18.1530 C.3     1  UNL1        0.0260
@<TRIPOS>BOND
     1    31    30    1
     2    30    27    1
     3    27    28    1
     4    27    26   am
     5    29    26    2
     6    26    24    1
     7    24    23    2
     8    24    25    1
     9    23    22    1
    10    25    20    2
    11    22    21    2
    12    20    21    1
    13    20     1    1
    14    18    16    1
    15    18    19    2
    16    16    14    2
    17    19    15    1
    18     1     4    1
    19     1     2   am
    20    14    17    1
    21    14    12    1
    22    17    13    2
    23    15    12    1
    24    15     8    2
    25     3     2    2
    26     2     5    1
    27    12    11    2
    28     6     8    1
    29     6     7    1
    30     6     5    1
    31     8     9    1
    32    13    11    1
    33    11    10    1
    34     9    10    2
