@<TRIPOS>MOLECULE
61081_out_ligand_01.pdbqt
 36 39 0 0 0
SMALL
GASTEIGER

@<TRIPOS>ATOM
      1  C         19.2470  -22.0560  -10.6770 C.2     1  UNL1       -0.0400
      2  C         19.7490  -21.3060  -11.7500 C.2     1  UNL1        0.0100
      3  C         21.0840  -21.4360  -12.1450 C.2     1  UNL1        0.0170
      4  C         21.9320  -22.3230  -11.4710 C.2     1  UNL1        0.0320
      5  C         21.4430  -23.0570  -10.3850 C.2     1  UNL1        0.0170
      6  C         20.1090  -22.9280   -9.9930 C.2     1  UNL1        0.0100
      7  C         17.8110  -21.9120  -10.2350 C.3     1  UNL1        0.1700
      8  N         17.1040  -23.1800  -10.3670 N.3     1  UNL1       -0.3110
      9  H         17.6530  -24.0320  -10.4590 H       1  UNL1        0.1720
     10  S         15.6760  -23.3800   -9.5240 S.O2    1  UNL1        0.2590
     11  O         14.9110  -22.1690   -9.7140 O.2     1  UNL1       -0.2010
     12  O         15.1420  -24.6840   -9.8470 O.2     1  UNL1       -0.2010
     13  C         16.2510  -23.3900   -7.8450 C.2     1  UNL1        0.0790
     14  C         15.6140  -22.5780   -6.9010 C.2     1  UNL1        0.0260
     15  C         16.0570  -22.5770   -5.5740 C.2     1  UNL1        0.0170
     16  C         17.1340  -23.3900   -5.1920 C.2     1  UNL1        0.0090
     17  C         17.7580  -24.2050   -6.1490 C.2     1  UNL1        0.0170
     18  C         17.3160  -24.2120   -7.4750 C.2     1  UNL1        0.0260
     19  C         17.6500  -23.4200   -3.7900 C.2     1  UNL1        0.1550
     20  C         18.1150  -22.1370   -3.1530 C.3     1  UNL1        0.0960
     21  O         17.6920  -24.4880   -3.1800 O.2     1  UNL1       -0.2930
     22  C         23.3620  -22.4930  -11.8510 C.2     1  UNL1        0.2520
     23  O         24.1640  -22.9560  -11.0480 O.2     1  UNL1       -0.2680
     24  N         23.7010  -22.1310  -13.1370 N.am    1  UNL1       -0.3480
     25  H         22.9770  -21.8860  -13.7980 H       1  UNL1        0.1630
     26  C         25.0630  -22.2670  -13.6390 C.3     1  UNL1        0.1200
     27  C         26.0270  -21.3110  -12.9290 C.3     1  UNL1        0.0400
     28  C         25.7210  -19.8600  -13.2490 C.3     1  UNL1        0.0820
     29  S         26.0430  -19.4800  -14.9930 S.3     1  UNL1       -0.1260
     30  C         25.4410  -20.9500  -15.8150 C.2     1  UNL1        0.0470
     31  C         25.3740  -20.9250  -17.2200 C.2     1  UNL1        0.1330
     32  C         25.0540  -22.1230  -15.1460 C.2     1  UNL1       -0.0160
     33  F         25.7430  -19.8280  -17.9010 F       1  UNL1       -0.2050
     34  C         24.9270  -22.0200  -17.9550 C.2     1  UNL1        0.0440
     35  C         24.5330  -23.1760  -17.2950 C.2     1  UNL1        0.0040
     36  C         24.5950  -23.2250  -15.9030 C.2     1  UNL1        0.0110
@<TRIPOS>BOND
     1    34    35    2
     2    34    31    1
     3    33    31    1
     4    35    36    1
     5    31    30    2
     6    36    32    2
     7    30    32    1
     8    30    29    1
     9    32    26    1
    10    29    28    1
    11    25    24    1
    12    26    24    1
    13    26    27    1
    14    28    27    1
    15    24    22   am
    16     3     2    1
    17     3     4    2
    18    22     4    1
    19    22    23    2
    20     2     1    2
    21     4     5    1
    22     1     7    1
    23     1     6    1
    24     9     8    1
    25     5     6    2
    26     8     7    1
    27     8    10    1
    28    12    10    2
    29    11    10    2
    30    10    13    1
    31    13    18    2
    32    13    14    1
    33    18    17    1
    34    14    15    2
    35    17    16    2
    36    15    16    1
    37    16    19    1
    38    19    21    2
    39    19    20    1
