@<TRIPOS>MOLECULE
61093_out_ligand_01.pdbqt
 35 38 0 0 0
SMALL
GASTEIGER

@<TRIPOS>ATOM
      1  N         19.3640  -22.5840   -8.7540 N.pl3   1  UNL1       -0.3720
      2  C         19.3220  -22.0270  -10.1140 C.2     1  UNL1        0.1620
      3  C         20.7070  -22.2700  -10.6270 C.2     1  UNL1       -0.0320
      4  C         21.2390  -21.9490  -11.8630 C.2     1  UNL1        0.0110
      5  C         22.5730  -22.2850  -12.1180 C.2     1  UNL1        0.0300
      6  C         23.3650  -22.9310  -11.1460 C.2     1  UNL1        0.0350
      7  C         22.8080  -23.2450   -9.9020 C.2     1  UNL1        0.0390
      8  C         21.4830  -22.9080   -9.6600 C.2     1  UNL1       -0.0300
      9  C         20.6820  -23.1460   -8.4180 C.2     1  UNL1        0.1620
     10  N         24.6940  -23.2290  -11.5020 N.am    1  UNL1       -0.3250
     11  C         25.8370  -22.5040  -11.2170 C.2     1  UNL1        0.2460
     12  O         25.9040  -21.4540  -10.5840 O.2     1  UNL1       -0.2710
     13  H         24.8390  -24.0540  -12.0770 H       1  UNL1        0.1690
     14  C         27.1090  -23.1700  -11.7570 C.3     1  UNL1        0.2780
     15  O         26.8960  -24.1180  -12.7990 O.2     1  UNL1       -0.3420
     16  C         26.3160  -23.6720  -13.9540 C.2     1  UNL1        0.0690
     17  C         25.4700  -24.5970  -14.5730 C.2     1  UNL1        0.0380
     18  C         24.7970  -24.2730  -15.7560 C.2     1  UNL1        0.0200
     19  C         24.9680  -23.0100  -16.3300 C.2     1  UNL1        0.0320
     20  C         25.7950  -22.0740  -15.6960 C.2     1  UNL1        0.0200
     21  C         26.4680  -22.4030  -14.5140 C.2     1  UNL1        0.0380
     22  C         24.2800  -22.6080  -17.5850 C.2     1  UNL1        0.2490
     23  N         23.3670  -23.4800  -18.1130 N.am    1  UNL1       -0.3660
     24  H         23.0180  -23.2410  -19.0320 H       1  UNL1        0.1590
     25  H         23.3430  -24.4550  -17.8520 H       1  UNL1        0.1590
     26  O         24.5390  -21.5540  -18.1530 O.2     1  UNL1       -0.2680
     27  C         18.2850  -22.6010   -7.8980 C.2     1  UNL1        0.0300
     28  C         16.9700  -22.7490   -8.3630 C.2     1  UNL1        0.0300
     29  C         15.8670  -22.7640   -7.4970 C.2     1  UNL1        0.0100
     30  C         16.0370  -22.6330   -6.1170 C.2     1  UNL1       -0.0550
     31  C         17.3390  -22.4860   -5.6340 C.2     1  UNL1        0.0100
     32  C         18.4350  -22.4720   -6.5100 C.2     1  UNL1        0.0300
     33  C         14.8320  -22.6490   -5.1960 C.3     1  UNL1        0.0100
     34  C         13.7430  -21.6850   -5.6730 C.3     1  UNL1        0.0150
     35  C         14.2740  -24.0640   -5.0320 C.3     1  UNL1        0.0150
@<TRIPOS>BOND
     1    24    23    1
     2    26    22    2
     3    23    25    1
     4    23    22   am
     5    22    19    1
     6    19    18    2
     7    19    20    1
     8    18    17    1
     9    20    21    2
    10    17    16    2
    11    21    16    1
    12    16    15    1
    13    15    14    1
    14     5     4    2
    15     5     6    1
    16    13    10    1
    17     4     3    1
    18    14    11    1
    19    10    11   am
    20    10     6    1
    21    11    12    2
    22     6     7    2
    23     3     2    2
    24     3     8    1
    25     2     1    1
    26     7     8    1
    27     8     9    2
    28     1     9    1
    29     1    27    1
    30    28    27    2
    31    28    29    1
    32    27    32    1
    33    29    30    2
    34    32    31    2
    35    30    31    1
    36    30    33    1
    37    34    33    1
    38    33    35    1
