@<TRIPOS>MOLECULE
610_out_ligand_01.pdbqt
 35 38 0 0 0
SMALL
GASTEIGER

@<TRIPOS>ATOM
      1  C         15.9850  -23.5770   -6.0220 C.2     1  UNL1        0.0540
      2  C         14.8270  -23.4080   -5.2490 C.2     1  UNL1        0.0190
      3  C         14.9310  -23.0360   -3.9060 C.2     1  UNL1        0.0010
      4  C         16.1860  -22.8400   -3.3290 C.2     1  UNL1        0.0020
      5  C         17.3430  -23.0180   -4.0890 C.2     1  UNL1        0.0250
      6  C         17.2500  -23.3980   -5.4300 C.2     1  UNL1        0.0380
      7  N         18.4600  -23.5030   -6.1970 N.pl3   1  UNL1       -0.1800
      8  H         18.3620  -24.1130   -7.0240 H       1  UNL1        0.1460
      9  S         19.1400  -22.0380   -6.7240 S.O2    1  UNL1        0.2460
     10  O         18.1770  -21.4110   -7.6030 O.2     1  UNL1       -0.2060
     11  O         19.6970  -21.3290   -5.5900 O.2     1  UNL1       -0.2060
     12  C         20.4760  -22.6000   -7.7550 C.2     1  UNL1        0.0770
     13  C         20.5010  -23.9440   -8.2000 C.2     1  UNL1        0.0270
     14  C         21.5470  -24.4070   -9.0060 C.2     1  UNL1        0.0330
     15  C         22.5270  -23.4970   -9.3290 C.ar    1  UNL1        0.0630
     16  N         23.6710  -23.6610  -10.1000 N.ar    1  UNL1       -0.3070
     17  C         22.4990  -22.1750   -8.8790 C.ar    1  UNL1        0.0640
     18  C         24.3690  -22.4460  -10.1370 C.ar    1  UNL1        0.3250
     19  H         23.9870  -24.4990  -10.5600 H       1  UNL1        0.1700
     20  O         25.4170  -22.2270  -10.7190 O.2     1  UNL1       -0.2470
     21  N         23.6260  -21.5320   -9.3760 N.ar    1  UNL1       -0.3060
     22  H         23.9040  -20.5760   -9.2260 H       1  UNL1        0.1700
     23  C         21.4900  -21.6890   -8.0850 C.2     1  UNL1        0.0560
     24  C         15.8930  -23.9870   -7.4480 C.2     1  UNL1        0.2530
     25  O         15.9290  -25.1810   -7.7330 O.2     1  UNL1       -0.2680
     26  N         15.8090  -22.9740   -8.3750 N.am    1  UNL1       -0.3530
     27  H         15.9710  -22.0200   -8.0820 H       1  UNL1        0.1630
     28  C         15.8800  -23.2380   -9.7950 C.3     1  UNL1        0.1610
     29  C         17.0110  -22.4600  -10.4230 C.2     1  UNL1       -0.0400
     30  C         18.2760  -23.0450  -10.5940 C.2     1  UNL1        0.0120
     31  C         19.3130  -22.3200  -11.1850 C.2     1  UNL1        0.0430
     32  C         19.0860  -21.0140  -11.6050 C.2     1  UNL1        0.1160
     33  F         20.0830  -20.3240  -12.1770 F       1  UNL1       -0.2060
     34  C         17.8410  -20.4180  -11.4480 C.2     1  UNL1        0.0430
     35  C         16.8040  -21.1380  -10.8550 C.2     1  UNL1        0.0120
@<TRIPOS>BOND
     1    33    32    1
     2    32    34    2
     3    32    31    1
     4    34    35    1
     5    31    30    2
     6    35    29    2
     7    20    18    2
     8    30    29    1
     9    19    16    1
    10    29    28    1
    11    18    16   ar
    12    18    21   ar
    13    16    15   ar
    14    28    26    1
    15    21    22    1
    16    21    17   ar
    17    15    14    2
    18    15    17   ar
    19    14    13    1
    20    17    23    2
    21    26    27    1
    22    26    24   am
    23    13    12    2
    24    23    12    1
    25    12     9    1
    26    25    24    2
    27    10     9    2
    28    24     1    1
    29     8     7    1
    30     9     7    1
    31     9    11    2
    32     7     6    1
    33     1     6    2
    34     1     2    1
    35     6     5    1
    36     2     3    2
    37     5     4    2
    38     3     4    1
