@<TRIPOS>MOLECULE
61107_out_ligand_01.pdbqt
 29 32 0 0 0
SMALL
GASTEIGER

@<TRIPOS>ATOM
      1  N         20.0120  -23.2260  -10.2480 N.3     1  UNL1       -0.1980
      2  C         18.5240  -23.2010  -10.3100 C.3     1  UNL1        0.1080
      3  C         18.1500  -21.7330  -10.4310 C.3     1  UNL1        0.0170
      4  C         19.2950  -21.1680  -11.2450 C.3     1  UNL1        0.0270
      5  C         20.5150  -21.8690  -10.6340 C.3     1  UNL1        0.1070
      6  S         20.7010  -23.8410   -8.8210 S.O2    1  UNL1        0.2440
      7  O         20.7100  -25.2850   -8.8870 O.2     1  UNL1       -0.2060
      8  O         21.9160  -23.0950   -8.5700 O.2     1  UNL1       -0.2060
      9  C         19.4910  -23.3840   -7.6040 C.2     1  UNL1        0.0740
     10  C         19.5760  -22.1180   -7.0140 C.2     1  UNL1        0.0260
     11  C         18.6320  -21.7370   -6.0580 C.2     1  UNL1        0.0180
     12  C         17.6020  -22.6180   -5.7010 C.2     1  UNL1        0.0310
     13  C         17.5320  -23.8870   -6.2960 C.2     1  UNL1        0.0180
     14  C         18.4710  -24.2710   -7.2550 C.2     1  UNL1        0.0260
     15  C         16.5770  -22.2610   -4.6830 C.2     1  UNL1        0.2490
     16  N         17.0220  -21.8720   -3.4510 N.am    1  UNL1       -0.3660
     17  H         16.3140  -21.5070   -2.8260 H       1  UNL1        0.1590
     18  H         17.9720  -21.5600   -3.2980 H       1  UNL1        0.1590
     19  O         15.3820  -22.2820   -4.9430 O.2     1  UNL1       -0.2680
     20  C         21.6680  -21.9090  -11.6140 C.2     1  UNL1       -0.0360
     21  C         21.6110  -21.2310  -12.8440 C.2     1  UNL1        0.0120
     22  C         22.6880  -21.2690  -13.7320 C.2     1  UNL1        0.0400
     23  C         23.8350  -21.9840  -13.4010 C.2     1  UNL1        0.1020
     24  C         23.9190  -22.6350  -12.1670 C.2     1  UNL1        0.1020
     25  O         24.8440  -21.9980  -14.3300 O.2     1  UNL1       -0.3460
     26  C         22.8390  -22.6100  -11.2850 C.2     1  UNL1        0.0480
     27  O         25.0320  -23.3260  -11.7560 O.2     1  UNL1       -0.3460
     28  C         26.1690  -23.0200  -12.5710 C.3     1  UNL1        0.2020
     29  C         25.7950  -23.0300  -14.0440 C.3     1  UNL1        0.2020
@<TRIPOS>BOND
     1    25    29    1
     2    25    23    1
     3    29    28    1
     4    22    23    2
     5    22    21    1
     6    23    24    1
     7    21    20    2
     8    28    27    1
     9    24    27    1
    10    24    26    2
    11    20    26    1
    12    20     5    1
    13     4     5    1
    14     4     3    1
    15     5     1    1
    16     3     2    1
    17     2     1    1
    18     1     6    1
    19     7     6    2
    20     6     8    2
    21     6     9    1
    22     9    14    2
    23     9    10    1
    24    14    13    1
    25    10    11    2
    26    13    12    2
    27    11    12    1
    28    12    15    1
    29    19    15    2
    30    15    16   am
    31    16    18    1
    32    16    17    1
