@<TRIPOS>MOLECULE
61106_out_ligand_01.pdbqt
 30 33 0 0 0
SMALL
GASTEIGER

@<TRIPOS>ATOM
      1  C         20.5460  -22.4560   -7.6110 C.2     1  UNL1        0.0320
      2  C         20.4380  -23.6130   -8.3840 C.2     1  UNL1        0.0190
      3  C         21.4780  -23.9740   -9.2510 C.2     1  UNL1        0.0240
      4  C         22.6310  -23.1880   -9.3820 C.2     1  UNL1        0.0080
      5  C         22.7490  -22.0650   -8.5560 C.2     1  UNL1        0.0240
      6  C         21.7150  -21.6950   -7.6870 C.2     1  UNL1        0.0190
      7  N         23.6560  -23.6480  -10.2140 N.pl3   1  UNL1       -0.2870
      8  H         23.2940  -24.0740  -11.0680 H       1  UNL1        0.1280
      9  C         24.7730  -22.7640  -10.5370 C.3     1  UNL1        0.1520
     10  C         24.7070  -22.4600  -12.0250 C.2     1  UNL1        0.0550
     11  C         23.6970  -21.7460  -12.5350 C.3     1  UNL1        0.1030
     12  C         23.6750  -21.4630  -13.9770 C.2     1  UNL1        0.2550
     13  O         22.7330  -20.8160  -14.4360 O.2     1  UNL1       -0.2680
     14  N         24.7410  -21.9670  -14.7040 N.am    1  UNL1       -0.2740
     15  C         24.7970  -21.7380  -16.0750 C.3     1  UNL1        0.1020
     16  C         25.7320  -22.6950  -14.0580 C.2     1  UNL1        0.1370
     17  C         25.8020  -22.2050  -16.8260 C.2     1  UNL1        0.0180
     18  C         26.8600  -22.9660  -16.2170 C.2     1  UNL1        0.0050
     19  C         26.8470  -23.2120  -14.9010 C.2     1  UNL1        0.0510
     20  N         25.7460  -22.9490  -12.7850 N.2     1  UNL1       -0.2340
     21  C         19.4770  -22.0210   -6.6700 C.2     1  UNL1        0.2520
     22  O         19.6500  -21.0380   -5.9580 O.2     1  UNL1       -0.2680
     23  N         18.3090  -22.7570   -6.6810 N.am    1  UNL1       -0.3520
     24  H         18.2200  -23.5450   -7.3070 H       1  UNL1        0.1630
     25  C         17.2240  -22.4860   -5.7490 C.3     1  UNL1        0.0840
     26  C         17.2070  -23.5110   -4.6120 C.3     1  UNL1        0.0250
     27  C         16.1400  -23.1850   -3.5650 C.3     1  UNL1        0.0020
     28  C         14.9430  -22.4170   -4.1290 C.3     1  UNL1        0.0000
     29  C         14.6770  -22.7750   -5.5840 C.3     1  UNL1        0.0020
     30  C         15.8740  -22.4540   -6.4830 C.3     1  UNL1        0.0250
@<TRIPOS>BOND
     1    17    18    2
     2    17    15    1
     3    18    19    1
     4    15    14    1
     5    19    16    2
     6    14    16    1
     7    14    12   am
     8    13    12    2
     9    16    20    1
    10    12    11    1
    11    20    10    2
    12    11    10    1
    13    10     9    1
    14     8     7    1
    15     9     7    1
    16     7     4    1
    17     4     3    2
    18     4     5    1
    19     3     2    1
    20     5     6    2
    21     2     1    2
    22     6     1    1
    23     1    21    1
    24    24    23    1
    25    23    21   am
    26    23    25    1
    27    21    22    2
    28    30    25    1
    29    30    29    1
    30    25    26    1
    31    29    28    1
    32    26    27    1
    33    28    27    1
