@<TRIPOS>MOLECULE
61121_out_ligand_01.pdbqt
 32 35 0 0 0
SMALL
GASTEIGER

@<TRIPOS>ATOM
      1  C         21.1750  -22.3520   -9.9060 C.2     1  UNL1        0.0790
      2  C         20.3710  -22.1110  -11.0270 C.2     1  UNL1        0.0260
      3  C         20.9680  -21.7720  -12.2390 C.2     1  UNL1        0.0180
      4  C         22.3610  -21.6850  -12.3190 C.2     1  UNL1        0.0320
      5  C         23.1620  -21.8680  -11.1850 C.2     1  UNL1        0.0180
      6  C         22.5650  -22.2020   -9.9690 C.2     1  UNL1        0.0260
      7  S         20.4240  -22.8850   -8.3820 S.O2    1  UNL1        0.2630
      8  O         21.0500  -22.1660   -7.2930 O.2     1  UNL1       -0.2000
      9  O         20.3800  -24.3320   -8.4010 O.2     1  UNL1       -0.2000
     10  N         18.8230  -22.3620   -8.5480 N.pl3   1  UNL1       -0.2810
     11  H         18.7760  -21.3960   -8.8670 H       1  UNL1        0.1790
     12  C         17.8510  -22.7980   -7.6020 C.2     1  UNL1        0.0430
     13  C         16.8530  -23.6720   -8.0240 C.2     1  UNL1        0.0300
     14  C         15.8510  -24.0650   -7.1360 C.2     1  UNL1        0.0090
     15  C         15.8380  -23.5920   -5.8140 C.2     1  UNL1       -0.0560
     16  C         14.7340  -24.0290   -4.8890 C.3     1  UNL1        0.0490
     17  C         16.8470  -22.7050   -5.3890 C.2     1  UNL1       -0.0540
     18  C         17.8540  -22.3250   -6.2910 C.2     1  UNL1        0.0370
     19  C         16.8870  -22.1740   -3.9810 C.3     1  UNL1        0.0490
     20  C         23.0210  -21.3920  -13.6060 C.2     1  UNL1        0.2540
     21  O         22.5400  -20.5200  -14.3200 O.2     1  UNL1       -0.2670
     22  N         24.1730  -22.0950  -13.9100 N.am    1  UNL1       -0.3390
     23  C         24.7580  -23.2000  -13.1570 C.3     1  UNL1        0.1270
     24  C         24.8910  -21.8540  -15.1590 C.3     1  UNL1        0.1220
     25  C         26.0710  -23.5010  -13.8620 C.3     1  UNL1        0.0220
     26  C         25.7850  -23.0930  -15.3050 C.3     1  UNL1        0.0320
     27  C         25.7040  -20.5740  -15.1690 C.2     1  UNL1       -0.0180
     28  C         26.1450  -20.0140  -13.9640 C.2     1  UNL1        0.0120
     29  C         26.8670  -18.8230  -13.9720 C.2     1  UNL1        0.0200
     30  C         27.1200  -18.2170  -15.1890 C.2     1  UNL1        0.1160
     31  N         26.7080  -18.7140  -16.3730 N.2     1  UNL1       -0.2730
     32  C         26.0210  -19.8810  -16.3340 C.2     1  UNL1        0.1250
@<TRIPOS>BOND
     1    31    32    1
     2    31    30    2
     3    32    27    2
     4    26    24    1
     5    26    25    1
     6    30    29    1
     7    27    24    1
     8    27    28    1
     9    24    22    1
    10    21    20    2
    11    29    28    2
    12    22    20   am
    13    22    23    1
    14    25    23    1
    15    20     4    1
    16     4     3    2
    17     4     5    1
    18     3     2    1
    19     5     6    2
    20     2     1    2
    21     6     1    1
    22     1     7    1
    23    11    10    1
    24    10     7    1
    25    10    12    1
    26     9     7    2
    27     7     8    2
    28    13    12    2
    29    13    14    1
    30    12    18    1
    31    14    15    2
    32    18    17    2
    33    15    17    1
    34    15    16    1
    35    17    19    1
