@<TRIPOS>MOLECULE
61128_out_ligand_01.pdbqt
 26 28 0 0 0
SMALL
GASTEIGER

@<TRIPOS>ATOM
      1  C         22.0130  -21.5190  -12.3930 C.2     1  UNL1        0.0340
      2  C         20.6370  -21.4480  -12.6270 C.2     1  UNL1        0.0190
      3  C         19.7340  -21.8260  -11.6230 C.2     1  UNL1        0.0330
      4  C         20.1590  -22.2850  -10.3600 C.2     1  UNL1        0.0630
      5  C         21.5480  -22.3700  -10.1760 C.2     1  UNL1        0.1300
      6  C         22.4730  -21.9970  -11.1640 C.2     1  UNL1        0.0550
      7  N         19.1430  -22.5960   -9.4540 N.pl3   1  UNL1       -0.3740
      8  C         17.7770  -22.4800  -10.0130 C.3     1  UNL1        0.1490
      9  C         16.7560  -22.4630   -8.8640 C.3     1  UNL1        0.1880
     10  O         16.8730  -23.6150   -8.0130 O.3     1  UNL1       -0.3780
     11  C         18.1980  -23.7330   -7.4390 C.3     1  UNL1        0.1720
     12  C         19.2720  -23.7760   -8.5640 C.3     1  UNL1        0.1600
     13  C         18.3760  -22.7340   -6.3030 C.2     1  UNL1       -0.0280
     14  C         17.6380  -22.9260   -5.1200 C.2     1  UNL1        0.0100
     15  C         17.7660  -22.0500   -4.0400 C.2     1  UNL1        0.0010
     16  C         18.6350  -20.9660   -4.1250 C.2     1  UNL1        0.0000
     17  C         19.3720  -20.7590   -5.2880 C.2     1  UNL1        0.0010
     18  C         19.2440  -21.6350   -6.3690 C.2     1  UNL1        0.0100
     19  N         22.1130  -22.9110   -8.9630 N.pl3   1  UNL1       -0.1130
     20  O         22.2270  -22.1360   -8.0040 O.2     1  UNL1       -0.5320
     21  O         22.4530  -24.1020   -8.9780 O.2     1  UNL1       -0.5320
     22  C         23.0150  -21.1380  -13.4210 C.2     1  UNL1        0.2490
     23  N         22.6050  -20.3230  -14.4390 N.am    1  UNL1       -0.3660
     24  H         21.7570  -19.7780  -14.3920 H       1  UNL1        0.1590
     25  H         23.3360  -19.9850  -15.0530 H       1  UNL1        0.1590
     26  O         24.1780  -21.5140  -13.3450 O.2     1  UNL1       -0.2680
@<TRIPOS>BOND
     1    25    23    1
     2    23    24    1
     3    23    22   am
     4    22    26    2
     5    22     1    1
     6     2     1    2
     7     2     3    1
     8     1     6    1
     9     3     4    2
    10     6     5    2
    11     4     5    1
    12     4     7    1
    13     5    19    1
    14     8     7    1
    15     8     9    1
    16     7    12    1
    17    21    19    2
    18    19    20    2
    19     9    10    1
    20    12    11    1
    21    10    11    1
    22    11    13    1
    23    18    13    2
    24    18    17    1
    25    13    14    1
    26    17    16    2
    27    14    15    2
    28    16    15    1
