@<TRIPOS>MOLECULE
61133_out_ligand_01.pdbqt
 34 37 0 0 0
SMALL
GASTEIGER

@<TRIPOS>ATOM
      1  C         23.9600  -21.7860  -12.4990 C.2     1  UNL1        0.0420
      2  C         22.5940  -21.6390  -12.7860 C.2     1  UNL1        0.0270
      3  C         21.5930  -22.1490  -11.9440 C.2     1  UNL1        0.0190
      4  C         21.9340  -22.8030  -10.7580 C.2     1  UNL1        0.0340
      5  C         23.2800  -22.9550  -10.4260 C.2     1  UNL1        0.0550
      6  C         24.2690  -22.4390  -11.2810 C.2     1  UNL1        0.1250
      7  C         20.9140  -23.3690   -9.8370 C.2     1  UNL1        0.2520
      8  O         21.2140  -24.3050   -9.1060 O.2     1  UNL1       -0.2680
      9  N         19.6710  -22.7790   -9.8520 N.am    1  UNL1       -0.3480
     10  H         19.4610  -22.0390  -10.5050 H       1  UNL1        0.1630
     11  C         18.5640  -23.3160   -9.0710 C.3     1  UNL1        0.1180
     12  C         17.2670  -23.1770   -9.8920 C.3     1  UNL1        0.0300
     13  C         15.9660  -23.4010   -9.1120 C.3     1  UNL1        0.0070
     14  C         16.1540  -23.7190   -7.6330 C.3     1  UNL1        0.0390
     15  C         17.2100  -22.8380   -7.0150 C.2     1  UNL1       -0.0500
     16  C         17.0300  -22.2840   -5.7400 C.2     1  UNL1        0.0110
     17  C         18.4200  -22.6460   -7.7160 C.2     1  UNL1       -0.0260
     18  C         18.0500  -21.5360   -5.1560 C.2     1  UNL1        0.0430
     19  C         19.2500  -21.3690   -5.8350 C.2     1  UNL1        0.1170
     20  F         20.2380  -20.6700   -5.2630 F       1  UNL1       -0.2060
     21  C         19.4490  -21.9240   -7.0960 C.2     1  UNL1        0.0520
     22  N         25.6610  -22.6070  -10.8590 N.pl3   1  UNL1       -0.1140
     23  O         26.0290  -23.7450  -10.5240 O.2     1  UNL1       -0.5320
     24  O         26.3810  -21.5990  -10.8500 O.2     1  UNL1       -0.5320
     25  N         24.9570  -21.2000  -13.2920 N.pl3   1  UNL1       -0.2810
     26  H         25.7120  -21.8750  -13.4700 H       1  UNL1        0.1280
     27  C         24.6630  -20.4100  -14.5030 C.3     1  UNL1        0.1080
     28  C         25.6890  -19.2850  -14.6620 C.3     1  UNL1        0.0330
     29  C         24.6780  -21.3010  -15.7470 C.2     1  UNL1        0.0510
     30  C         24.6900  -22.6940  -15.6380 C.2     1  UNL1        0.0290
     31  C         24.7010  -23.4640  -16.7980 C.2     1  UNL1        0.0030
     32  C         24.7030  -22.8320  -18.0340 C.2     1  UNL1        0.0190
     33  C         24.6920  -21.4480  -18.0600 C.2     1  UNL1        0.1170
     34  N         24.6830  -20.6740  -16.9520 N.2     1  UNL1       -0.2640
@<TRIPOS>BOND
     1    33    32    2
     2    33    34    1
     3    32    31    1
     4    34    29    2
     5    31    30    2
     6    29    30    1
     7    29    27    1
     8    28    27    1
     9    27    25    1
    10    26    25    1
    11    25     1    1
    12     2     1    2
    13     2     3    1
    14     1     6    1
    15     3     4    2
    16     6    22    1
    17     6     5    2
    18    22    24    2
    19    22    23    2
    20     4     5    1
    21     4     7    1
    22    10     9    1
    23    12    13    1
    24    12    11    1
    25     9     7   am
    26     9    11    1
    27     7     8    2
    28    13    14    1
    29    11    17    1
    30    17    21    1
    31    17    15    2
    32    14    15    1
    33    21    19    2
    34    15    16    1
    35    19    20    1
    36    19    18    1
    37    16    18    2
