@<TRIPOS>MOLECULE
61141_out_ligand_01.pdbqt
 30 32 0 0 0
SMALL
GASTEIGER

@<TRIPOS>ATOM
      1  C         18.3370  -23.3490   -9.3480 C.2     1  UNL1        0.2400
      2  O         18.3760  -23.2750  -10.5720 O.2     1  UNL1       -0.2710
      3  N         19.3180  -23.9580   -8.5890 N.am    1  UNL1       -0.3590
      4  H         19.1260  -24.0100   -7.5900 H       1  UNL1        0.1620
      5  C         20.5440  -24.4880   -9.1410 C.3     1  UNL1        0.1270
      6  C         21.7210  -23.5210   -8.9620 C.3     1  UNL1        0.0580
      7  C         22.2700  -22.9320  -10.2450 C.2     1  UNL1       -0.0570
      8  C         21.3910  -22.3880  -11.1950 C.2     1  UNL1        0.0090
      9  C         21.8760  -21.8500  -12.3870 C.2     1  UNL1        0.0250
     10  C         23.2510  -21.8410  -12.6280 C.2     1  UNL1        0.0740
     11  C         24.1410  -22.3770  -11.6980 C.2     1  UNL1        0.0250
     12  C         23.6490  -22.9110  -10.5050 C.2     1  UNL1        0.0090
     13  S         23.8600  -21.1660  -14.1490 S.O2    1  UNL1        0.2390
     14  O         25.0550  -20.4030  -13.8730 O.2     1  UNL1       -0.2060
     15  O         23.8100  -22.1950  -15.1600 O.2     1  UNL1       -0.2060
     16  N         22.6690  -20.0270  -14.5090 N.3     1  UNL1       -0.2250
     17  H         23.1090  -19.2360  -14.9820 H       1  UNL1        0.1360
     18  H         22.1390  -19.7330  -13.6910 H       1  UNL1        0.1360
     19  C         17.2340  -22.6990   -8.4780 C.3     1  UNL1        0.1720
     20  C         15.8690  -22.7380   -9.1590 C.3     1  UNL1        0.0420
     21  N         17.2070  -23.3250   -7.1210 N.pl3   1  UNL1       -0.3670
     22  C         16.2670  -24.4300   -6.8890 C.3     1  UNL1        0.1240
     23  C         15.1440  -23.9990   -5.9620 C.3     1  UNL1        0.0250
     24  C         15.7330  -23.6000   -4.6190 C.3     1  UNL1        0.0420
     25  C         16.9180  -22.6780   -4.7770 C.2     1  UNL1       -0.0320
     26  C         17.3430  -21.9410   -3.6580 C.2     1  UNL1        0.0090
     27  C         17.6010  -22.5750   -6.0090 C.2     1  UNL1        0.0370
     28  C         18.4380  -21.0900   -3.7440 C.2     1  UNL1        0.0010
     29  C         19.1270  -20.9810   -4.9450 C.2     1  UNL1        0.0020
     30  C         18.7160  -21.7200   -6.0580 C.2     1  UNL1        0.0300
@<TRIPOS>BOND
     1    15    13    2
     2    17    16    1
     3    16    13    1
     4    16    18    1
     5    13    14    2
     6    13    10    1
     7    10     9    2
     8    10    11    1
     9     9     8    1
    10    11    12    2
    11     8     7    2
    12     2     1    2
    13    12     7    1
    14     7     6    1
    15     1     3   am
    16     1    19    1
    17    20    19    1
    18     5     6    1
    19     5     3    1
    20     3     4    1
    21    19    21    1
    22    21    22    1
    23    21    27    1
    24    22    23    1
    25    30    27    1
    26    30    29    2
    27    27    25    2
    28    23    24    1
    29    29    28    1
    30    25    24    1
    31    25    26    1
    32    28    26    2
