@<TRIPOS>MOLECULE
61153_out_ligand_01.pdbqt
 31 34 0 0 0
SMALL
GASTEIGER

@<TRIPOS>ATOM
      1  C         22.0180  -22.3430  -11.4070 C.2     1  UNL1        0.0360
      2  C         21.6790  -21.5400  -12.4990 C.2     1  UNL1        0.0290
      3  C         22.5810  -21.3490  -13.5530 C.2     1  UNL1        0.0040
      4  C         23.8320  -21.9570  -13.5250 C.2     1  UNL1        0.0250
      5  C         24.1830  -22.7430  -12.4280 C.2     1  UNL1        0.0820
      6  C         23.2790  -22.9520  -11.3790 C.2     1  UNL1        0.0540
      7  N         21.1540  -22.6060  -10.3230 N.am    1  UNL1       -0.3230
      8  C         21.4320  -22.4580   -8.9760 C.2     1  UNL1        0.2560
      9  O         22.5090  -22.1610   -8.4760 O.2     1  UNL1       -0.2670
     10  H         20.2550  -23.0020  -10.5630 H       1  UNL1        0.1690
     11  C         20.2870  -22.7450   -8.0660 C.2     1  UNL1        0.0320
     12  C         20.0160  -21.8500   -7.0280 C.2     1  UNL1        0.0190
     13  C         18.9500  -22.0830   -6.1500 C.2     1  UNL1        0.0310
     14  C         18.1320  -23.2130   -6.3070 C.2     1  UNL1        0.0380
     15  C         18.3970  -24.0970   -7.3650 C.2     1  UNL1        0.0310
     16  C         19.4660  -23.8620   -8.2410 C.2     1  UNL1        0.0190
     17  N         17.0420  -23.4550   -5.4100 N.pl3   1  UNL1       -0.3330
     18  C         15.7730  -23.8930   -5.7470 C.2     1  UNL1        0.0960
     19  C         15.0070  -24.0090   -4.6070 C.2     1  UNL1        0.0190
     20  C         15.8190  -23.6340   -3.5220 C.2     1  UNL1        0.0190
     21  C         17.0540  -23.3010   -4.0330 C.2     1  UNL1        0.0960
     22  S         25.7590  -23.5570  -12.3940 S.O2    1  UNL1        0.2640
     23  O         25.7330  -24.6970  -13.2820 O.2     1  UNL1       -0.2000
     24  O         26.1230  -23.7180  -11.0000 O.2     1  UNL1       -0.2000
     25  N         26.8080  -22.4050  -12.9780 N.3     1  UNL1       -0.2680
     26  H         27.5000  -22.8030  -13.6070 H       1  UNL1        0.1800
     27  C         26.7570  -21.0350  -12.7480 C.3     1  UNL1        0.1080
     28  N         26.9240  -20.1370  -13.6580 N.3     1  UNL1       -0.2760
     29  C         26.7550  -18.8450  -12.9640 C.3     1  UNL1        0.1510
     30  C         26.9620  -19.1440  -11.4870 C.3     1  UNL1        0.0290
     31  C         26.4520  -20.5600  -11.3640 C.3     1  UNL1        0.0800
@<TRIPOS>BOND
     1    28    29    1
     2    28    27    1
     3    26    25    1
     4     3     4    2
     5     3     2    1
     6     4     5    1
     7    23    22    2
     8    25    27    1
     9    25    22    1
    10    29    30    1
    11    27    31    1
    12     2     1    2
    13     5    22    1
    14     5     6    2
    15    22    24    2
    16    30    31    1
    17     1     6    1
    18     1     7    1
    19    10     7    1
    20     7     8   am
    21     8     9    2
    22     8    11    1
    23    16    11    2
    24    16    15    1
    25    11    12    1
    26    15    14    2
    27    12    13    2
    28    14    13    1
    29    14    17    1
    30    18    17    1
    31    18    19    2
    32    17    21    1
    33    19    20    1
    34    21    20    2
