@<TRIPOS>MOLECULE
61152_out_ligand_01.pdbqt
 31 34 0 0 0
SMALL
GASTEIGER

@<TRIPOS>ATOM
      1  C         19.1380  -22.6030  -10.3030 C.2     1  UNL1        0.0360
      2  C         18.8870  -21.7300  -11.3720 C.2     1  UNL1        0.0290
      3  C         19.9380  -21.1160  -12.0610 C.2     1  UNL1        0.0040
      4  C         21.2550  -21.3750  -11.6940 C.2     1  UNL1        0.0250
      5  C         21.5060  -22.2590  -10.6440 C.2     1  UNL1        0.0820
      6  C         20.4580  -22.8790   -9.9510 C.2     1  UNL1        0.0540
      7  N         18.0210  -23.1570   -9.6460 N.am    1  UNL1       -0.3270
      8  C         16.7390  -22.6450   -9.5890 C.2     1  UNL1        0.2230
      9  O         16.3240  -21.6390  -10.1550 O.2     1  UNL1       -0.2730
     10  H         18.1950  -24.0240   -9.1510 H       1  UNL1        0.1690
     11  C         15.8120  -23.4630   -8.7140 C.3     1  UNL1        0.1230
     12  C         16.5950  -24.2740   -7.6890 C.3     1  UNL1        0.1380
     13  N         16.6060  -23.6720   -6.3640 N.pl3   1  UNL1       -0.3560
     14  C         15.6670  -23.9240   -5.3960 C.2     1  UNL1        0.0920
     15  C         15.9500  -23.1280   -4.3150 C.2     1  UNL1        0.0310
     16  C         17.1110  -22.3700   -4.6270 C.2     1  UNL1       -0.0080
     17  C         17.8560  -21.4020   -3.9250 C.2     1  UNL1        0.0140
     18  C         17.5150  -22.7350   -5.9140 C.2     1  UNL1        0.0440
     19  C         18.9830  -20.8320   -4.5270 C.2     1  UNL1        0.0010
     20  C         19.3720  -21.2140   -5.8070 C.2     1  UNL1        0.0020
     21  C         18.6490  -22.1720   -6.5230 C.2     1  UNL1        0.0300
     22  S         23.1760  -22.5980  -10.1580 S.O2    1  UNL1        0.2640
     23  O         23.1750  -23.4840   -9.0150 O.2     1  UNL1       -0.2000
     24  O         23.8590  -21.3210  -10.1050 O.2     1  UNL1       -0.2000
     25  N         23.8340  -23.4050  -11.4580 N.3     1  UNL1       -0.2680
     26  H         23.5640  -24.3830  -11.4780 H       1  UNL1        0.1800
     27  C         24.7980  -22.9150  -12.3330 C.3     1  UNL1        0.1080
     28  N         26.0680  -23.0520  -12.1620 N.3     1  UNL1       -0.2760
     29  C         26.6790  -22.4090  -13.3410 C.3     1  UNL1        0.1510
     30  C         25.5880  -22.3730  -14.3970 C.3     1  UNL1        0.0290
     31  C         24.3430  -22.2000  -13.5640 C.3     1  UNL1        0.0800
@<TRIPOS>BOND
     1    30    31    1
     2    30    29    1
     3    31    27    1
     4    29    28    1
     5    27    28    1
     6    27    25    1
     7     3     4    2
     8     3     2    1
     9     4     5    1
    10    26    25    1
    11    25    22    1
    12     2     1    2
    13     5    22    1
    14     5     6    2
    15     1     6    1
    16     1     7    1
    17    22    24    2
    18    22    23    2
    19     9     8    2
    20     7     8   am
    21     7    10    1
    22     8    11    1
    23    11    12    1
    24    12    13    1
    25    21    18    1
    26    21    20    2
    27    13    18    1
    28    13    14    1
    29    18    16    2
    30    20    19    1
    31    14    15    2
    32    16    15    1
    33    16    17    1
    34    19    17    2
