@<TRIPOS>MOLECULE
61198_out_ligand_01.pdbqt
 35 38 0 0 0
SMALL
GASTEIGER

@<TRIPOS>ATOM
      1  C         19.5650  -22.3520  -10.5050 C.2     1  UNL1        0.0330
      2  C         18.9580  -21.5400  -11.4770 C.2     1  UNL1        0.0170
      3  C         17.5940  -21.2530  -11.3960 C.2     1  UNL1        0.0030
      4  C         16.8290  -21.7780  -10.3550 C.2     1  UNL1        0.0250
      5  C         17.4350  -22.6010   -9.4010 C.2     1  UNL1        0.0750
      6  C         18.8000  -22.8920   -9.4670 C.2     1  UNL1        0.0410
      7  C         21.0120  -22.6900  -10.5730 C.2     1  UNL1        0.2560
      8  O         21.4030  -23.6690   -9.9480 O.2     1  UNL1       -0.2670
      9  N         21.7790  -21.8110  -11.3140 N.am    1  UNL1       -0.3230
     10  H         21.3320  -20.9520  -11.6090 H       1  UNL1        0.1690
     11  C         23.1560  -21.9210  -11.6030 C.2     1  UNL1        0.0350
     12  C         24.0500  -21.5450  -10.5910 C.2     1  UNL1        0.0290
     13  C         25.4310  -21.6160  -10.7930 C.2     1  UNL1        0.0030
     14  C         25.9330  -22.0630  -12.0120 C.2     1  UNL1        0.0170
     15  C         25.0480  -22.4400  -13.0290 C.2     1  UNL1        0.0340
     16  C         23.6620  -22.3560  -12.8280 C.2     1  UNL1        0.0460
     17  C         25.5520  -22.8960  -14.3500 C.2     1  UNL1        0.2520
     18  O         26.6970  -23.3200  -14.4600 O.2     1  UNL1       -0.2680
     19  N         24.6570  -22.7830  -15.3980 N.am    1  UNL1       -0.3520
     20  H         23.8050  -22.2570  -15.2560 H       1  UNL1        0.1630
     21  C         25.0160  -23.1320  -16.7360 C.3     1  UNL1        0.0840
     22  C         23.9500  -23.4130  -17.7590 C.3     1  UNL1        0.0270
     23  C         24.7820  -22.1690  -17.8680 C.3     1  UNL1        0.0270
     24  S         16.4720  -23.2810   -8.0730 S.O2    1  UNL1        0.2460
     25  O         15.7450  -22.1770   -7.4840 O.2     1  UNL1       -0.2060
     26  O         15.7880  -24.4590   -8.5600 O.2     1  UNL1       -0.2060
     27  N         17.6600  -23.7330   -6.9540 N.pl3   1  UNL1       -0.1780
     28  H         18.4830  -24.0670   -7.4600 H       1  UNL1        0.1460
     29  C         17.9280  -22.8090   -5.8970 C.2     1  UNL1        0.0610
     30  C         18.7970  -21.7380   -6.0990 C.2     1  UNL1        0.0270
     31  C         19.0970  -20.8810   -5.0370 C.2     1  UNL1        0.0020
     32  C         18.5400  -21.0980   -3.7750 C.2     1  UNL1        0.0030
     33  C         17.6770  -22.1760   -3.5690 C.2     1  UNL1        0.0440
     34  C         17.3810  -23.0260   -4.6290 C.2     1  UNL1        0.1380
     35  F         16.5470  -24.0580   -4.4290 F       1  UNL1       -0.2040
@<TRIPOS>BOND
     1    23    22    1
     2    23    21    1
     3    22    21    1
     4    21    19    1
     5    19    20    1
     6    19    17   am
     7    18    17    2
     8    17    15    1
     9    15    16    1
    10    15    14    2
    11    16    11    2
    12    14    13    1
    13    10     9    1
    14    11     9    1
    15    11    12    1
    16     2     3    1
    17     2     1    2
    18     3     4    2
    19     9     7   am
    20    13    12    2
    21     7     1    1
    22     7     8    2
    23     1     6    1
    24     4     5    1
    25     6     5    2
    26     5    24    1
    27    26    24    2
    28    24    25    2
    29    24    27    1
    30    28    27    1
    31    27    29    1
    32    30    29    2
    33    30    31    1
    34    29    34    1
    35    31    32    2
    36    34    35    1
    37    34    33    2
    38    32    33    1
