@<TRIPOS>MOLECULE
61229_out_ligand_01.pdbqt
 31 36 0 0 0
SMALL
GASTEIGER

@<TRIPOS>ATOM
      1  C         21.0550  -22.5070  -10.7700 C.2     1  UNL1        0.0320
      2  C         22.2570  -22.9440  -10.2010 C.2     1  UNL1        0.0170
      3  C         23.4750  -22.6510  -10.8180 C.2     1  UNL1        0.0100
      4  C         23.5070  -21.9250  -12.0170 C.2     1  UNL1       -0.0300
      5  C         22.2970  -21.5080  -12.5930 C.2     1  UNL1        0.0100
      6  C         21.0760  -21.7990  -11.9780 C.2     1  UNL1        0.0170
      7  C         19.7790  -22.8340  -10.0730 C.2     1  UNL1        0.2520
      8  O         18.8810  -23.3960  -10.6860 O.2     1  UNL1       -0.2680
      9  N         19.7270  -22.5010   -8.7340 N.am    1  UNL1       -0.3480
     10  H         20.6060  -22.2720   -8.2880 H       1  UNL1        0.1630
     11  C         18.6080  -22.8280   -7.8420 C.3     1  UNL1        0.0340
     12  C         18.7770  -22.0150   -6.5290 C.3     1  UNL1        0.0350
     13  C         17.6400  -22.3160   -5.5420 C.3     1  UNL1       -0.0120
     14  C         16.2970  -21.9420   -6.1900 C.3     1  UNL1        0.0090
     15  C         17.6430  -23.8170   -5.2100 C.3     1  UNL1        0.0090
     16  C         16.0950  -22.7520   -7.4800 C.3     1  UNL1       -0.0120
     17  C         16.1090  -24.2530   -7.1450 C.3     1  UNL1        0.0090
     18  C         17.2410  -22.4420   -8.4610 C.3     1  UNL1        0.0350
     19  C         17.4480  -24.6390   -6.4940 C.3     1  UNL1       -0.0120
     20  C         18.5940  -24.3320   -7.4740 C.3     1  UNL1        0.0350
     21  C         24.8270  -21.6100  -12.6920 C.3     1  UNL1        0.3110
     22  N         25.6320  -22.8130  -12.9610 N.3     1  UNL1        0.0970
     23  C         27.0070  -22.4790  -13.3620 C.3     1  UNL1        0.2770
     24  C         27.1190  -21.7300  -14.6990 C.3     1  UNL1        0.0690
     25  C         26.2100  -22.2950  -15.7630 C.2     1  UNL1       -0.0490
     26  C         26.3540  -21.8830  -17.0950 C.2     1  UNL1        0.0070
     27  C         25.1780  -23.1840  -15.4140 C.2     1  UNL1       -0.0240
     28  C         25.4910  -22.3670  -18.0780 C.2     1  UNL1        0.0010
     29  C         24.4780  -23.2600  -17.7380 C.2     1  UNL1        0.0010
     30  C         24.3240  -23.6700  -16.4140 C.2     1  UNL1        0.0090
     31  C         25.0260  -23.6790  -13.9900 C.3     1  UNL1        0.3110
@<TRIPOS>BOND
     1    28    29    2
     2    28    26    1
     3    29    30    1
     4    26    25    2
     5    30    27    2
     6    25    27    1
     7    25    24    1
     8    27    31    1
     9    24    23    1
    10    31    22    1
    11    23    22    1
    12    22    21    1
    13    21     4    1
    14     5     4    2
    15     5     6    1
    16     4     3    1
    17     6     1    2
    18     3     2    2
    19     1     2    1
    20     1     7    1
    21     8     7    2
    22     7     9   am
    23     9    10    1
    24     9    11    1
    25    18    11    1
    26    18    16    1
    27    11    20    1
    28    11    12    1
    29    16    17    1
    30    16    14    1
    31    20    19    1
    32    17    19    1
    33    12    13    1
    34    19    15    1
    35    14    13    1
    36    13    15    1
