@<TRIPOS>MOLECULE
61238_out_ligand_01.pdbqt
 38 41 0 0 0
SMALL
GASTEIGER

@<TRIPOS>ATOM
      1  C         19.8690  -22.0220  -11.0730 C.2     1  UNL1        0.0340
      2  C         18.6460  -21.3770  -11.3120 C.2     1  UNL1        0.0310
      3  C         17.4840  -21.7810  -10.6510 C.2     1  UNL1        0.0270
      4  C         17.5450  -22.8340   -9.7380 C.2     1  UNL1        0.0800
      5  C         18.7500  -23.4990   -9.5040 C.2     1  UNL1        0.0270
      6  C         19.9110  -23.0860  -10.1680 C.2     1  UNL1        0.0310
      7  N         20.9880  -21.5440  -11.7770 N.am    1  UNL1       -0.3260
      8  C         22.2960  -21.9850  -11.7140 C.2     1  UNL1        0.2410
      9  O         22.7240  -22.8860  -10.9940 O.2     1  UNL1       -0.2710
     10  H         20.8180  -20.7850  -12.4330 H       1  UNL1        0.1690
     11  C         23.2580  -21.2250  -12.6210 C.3     1  UNL1        0.2440
     12  N         24.5870  -21.8620  -12.7400 N.pl3   1  UNL1       -0.2640
     13  S         25.9070  -21.1390  -11.9760 S.O2    1  UNL1        0.2290
     14  C         26.1970  -19.6960  -12.9820 C.3     1  UNL1        0.1860
     15  O         25.4460  -20.6830  -10.6810 O.2     1  UNL1       -0.2060
     16  O         27.0590  -22.0040  -12.0940 O.2     1  UNL1       -0.2060
     17  C         24.8440  -22.7580  -13.8290 C.2     1  UNL1        0.0840
     18  C         25.1700  -24.0970  -13.5970 C.2     1  UNL1        0.0330
     19  C         25.3810  -24.9570  -14.6790 C.2     1  UNL1        0.0020
     20  C         25.2630  -24.4860  -15.9890 C.2     1  UNL1        0.0030
     21  C         24.9340  -23.1500  -16.2230 C.2     1  UNL1        0.0440
     22  C         24.7250  -22.2970  -15.1450 C.2     1  UNL1        0.1430
     23  F         24.4340  -21.0080  -15.3780 F       1  UNL1       -0.2040
     24  S         16.0700  -23.3550   -8.9010 S.O2    1  UNL1        0.2630
     25  O         15.4370  -22.1670   -8.3650 O.2     1  UNL1       -0.2000
     26  O         15.3390  -24.2620   -9.7570 O.2     1  UNL1       -0.2000
     27  N         16.6800  -24.1880   -7.5650 N.pl3   1  UNL1       -0.2800
     28  H         17.5890  -24.6000   -7.7690 H       1  UNL1        0.1790
     29  C         16.5010  -23.6100   -6.2700 C.2     1  UNL1        0.0530
     30  C         15.3760  -24.0040   -5.5400 C.2     1  UNL1        0.0310
     31  C         15.1380  -23.4670   -4.2800 C.2     1  UNL1        0.0030
     32  C         16.0260  -22.5340   -3.7450 C.2     1  UNL1        0.0120
     33  C         17.1590  -22.1200   -4.4630 C.2     1  UNL1       -0.0240
     34  C         18.0420  -21.1770   -3.9110 C.2     1  UNL1        0.0120
     35  C         17.4110  -22.6520   -5.7520 C.2     1  UNL1        0.0010
     36  C         19.1680  -20.7490   -4.6160 C.2     1  UNL1        0.0010
     37  C         19.4230  -21.2550   -5.8830 C.2     1  UNL1        0.0010
     38  C         18.5560  -22.1950   -6.4460 C.2     1  UNL1        0.0140
@<TRIPOS>BOND
     1    21    20    2
     2    21    22    1
     3    20    19    1
     4    23    22    1
     5    22    17    2
     6    19    18    2
     7    17    18    1
     8    17    12    1
     9    14    13    1
    10    12    11    1
    11    12    13    1
    12    11     8    1
    13    10     7    1
    14    16    13    2
    15    13    15    2
    16     7     8   am
    17     7     1    1
    18     8     9    2
    19     2     1    2
    20     2     3    1
    21     1     6    1
    22     3     4    2
    23     6     5    2
    24    26    24    2
    25     4     5    1
    26     4    24    1
    27    24    25    2
    28    24    27    1
    29    28    27    1
    30    27    29    1
    31    38    37    2
    32    38    35    1
    33    29    35    2
    34    29    30    1
    35    37    36    1
    36    35    33    1
    37    30    31    2
    38    36    34    2
    39    33    34    1
    40    33    32    2
    41    31    32    1
