@<TRIPOS>MOLECULE
61237_out_ligand_01.pdbqt
 29 32 0 0 0
SMALL
GASTEIGER

@<TRIPOS>ATOM
      1  C         22.4480  -22.4110  -10.1990 C.2     1  UNL1        0.0320
      2  C         22.5850  -22.4090   -8.8050 C.2     1  UNL1        0.0170
      3  C         21.4500  -22.4410   -7.9890 C.2     1  UNL1        0.0100
      4  C         20.1650  -22.4660   -8.5510 C.2     1  UNL1       -0.0300
      5  C         20.0360  -22.4530   -9.9480 C.2     1  UNL1        0.0100
      6  C         21.1680  -22.4240  -10.7650 C.2     1  UNL1        0.0170
      7  C         23.6240  -22.3670  -11.1130 C.2     1  UNL1        0.2520
      8  O         24.7190  -22.7650  -10.7300 O.2     1  UNL1       -0.2680
      9  N         23.4080  -21.8360  -12.3710 N.am    1  UNL1       -0.3520
     10  H         22.5720  -21.2910  -12.5180 H       1  UNL1        0.1630
     11  C         24.5140  -21.6260  -13.2790 C.3     1  UNL1        0.0840
     12  C         24.9180  -22.8530  -14.0050 C.3     1  UNL1        0.0250
     13  C         25.3280  -24.2710  -13.9580 C.3     1  UNL1        0.0020
     14  C         25.7040  -24.4960  -15.4750 C.3     1  UNL1        0.0000
     15  C         24.8240  -23.7130  -16.5340 C.3     1  UNL1        0.0000
     16  C         24.9090  -22.1430  -16.8020 C.3     1  UNL1        0.0000
     17  C         24.9830  -20.8880  -15.8180 C.3     1  UNL1        0.0020
     18  C         24.1090  -20.7110  -14.5100 C.3     1  UNL1        0.0250
     19  C         18.9360  -22.4690   -7.6620 C.3     1  UNL1        0.3110
     20  N         18.1890  -23.7360   -7.7070 N.3     1  UNL1        0.0970
     21  C         16.9450  -23.6140   -8.4850 C.3     1  UNL1        0.2770
     22  C         15.9040  -22.6600   -7.8760 C.3     1  UNL1        0.0690
     23  C         15.7690  -22.8190   -6.3810 C.2     1  UNL1       -0.0490
     24  C         14.7130  -22.1960   -5.7030 C.2     1  UNL1        0.0070
     25  C         16.7370  -23.5380   -5.6550 C.2     1  UNL1       -0.0240
     26  C         14.6050  -22.3020   -4.3160 C.2     1  UNL1        0.0010
     27  C         15.5510  -23.0280   -3.5960 C.2     1  UNL1        0.0010
     28  C         16.6100  -23.6470   -4.2630 C.2     1  UNL1        0.0090
     29  C         17.8690  -24.2550   -6.3650 C.3     1  UNL1        0.3110
@<TRIPOS>BOND
     1    16    15    1
     2    16    17    1
     3    15    14    1
     4    17    18    1
     5    14    13    1
     6    18    11    1
     7    12    13    1
     8    12    11    1
     9    11     9    1
    10    10     9    1
    11     9     7   am
    12     7     8    2
    13     7     1    1
    14     6     1    2
    15     6     5    1
    16     1     2    1
    17     5     4    2
    18     2     3    2
    19     4     3    1
    20     4    19    1
    21    21    22    1
    22    21    20    1
    23    22    23    1
    24    20    19    1
    25    20    29    1
    26    23    24    2
    27    23    25    1
    28    29    25    1
    29    24    26    1
    30    25    28    2
    31    26    27    2
    32    28    27    1
