@<TRIPOS>MOLECULE
61246_out_ligand_01.pdbqt
 29 31 0 0 0
SMALL
GASTEIGER

@<TRIPOS>ATOM
      1  N         20.4870  -22.9350  -10.0680 N.am    1  UNL1       -0.3270
      2  C         20.5120  -23.9330   -9.1090 C.2     1  UNL1        0.2260
      3  O         21.4370  -24.7190   -8.9140 O.2     1  UNL1       -0.2730
      4  H         19.6640  -22.3440  -10.0850 H       1  UNL1        0.1690
      5  C         21.5070  -22.5820  -10.9750 C.2     1  UNL1        0.0340
      6  C         22.8410  -22.9760  -10.8460 C.2     1  UNL1        0.0310
      7  C         23.7940  -22.5810  -11.7930 C.2     1  UNL1        0.0270
      8  C         23.4060  -21.7990  -12.8800 C.2     1  UNL1        0.0790
      9  C         22.0800  -21.3860  -13.0180 C.2     1  UNL1        0.0270
     10  C         21.1360  -21.7820  -12.0670 C.2     1  UNL1        0.0310
     11  S         24.6100  -21.2810  -14.0780 S.O2    1  UNL1        0.2590
     12  O         24.4170  -19.8660  -14.3090 O.2     1  UNL1       -0.2010
     13  O         25.8990  -21.8270  -13.7160 O.2     1  UNL1       -0.2010
     14  N         24.0720  -22.0570  -15.4600 N.3     1  UNL1       -0.3110
     15  H         23.2690  -21.6180  -15.9070 H       1  UNL1        0.1720
     16  C         24.9800  -22.8950  -16.2450 C.3     1  UNL1        0.0850
     17  C         24.9770  -24.2950  -15.6410 C.3     1  UNL1        0.0320
     18  C         24.5110  -22.9270  -17.6940 C.3     1  UNL1        0.0320
     19  C         19.2270  -24.0720   -8.2980 C.3     1  UNL1        0.1420
     20  C         19.0330  -23.0520   -7.1890 C.2     1  UNL1       -0.0380
     21  C         20.0220  -22.0650   -7.0230 C.2     1  UNL1        0.0080
     22  C         19.9200  -21.1230   -6.0060 C.2     1  UNL1        0.0010
     23  C         18.8300  -21.1510   -5.1420 C.2     1  UNL1        0.0120
     24  C         17.8230  -22.1160   -5.2830 C.2     1  UNL1       -0.0250
     25  C         16.7310  -22.1250   -4.4000 C.2     1  UNL1        0.0120
     26  C         17.9080  -23.0830   -6.3180 C.2     1  UNL1       -0.0190
     27  C         15.7170  -23.0740   -4.5210 C.2     1  UNL1        0.0010
     28  C         15.7820  -24.0240   -5.5290 C.2     1  UNL1        0.0010
     29  C         16.8610  -24.0280   -6.4170 C.2     1  UNL1        0.0130
@<TRIPOS>BOND
     1    18    16    1
     2    16    17    1
     3    16    14    1
     4    15    14    1
     5    14    11    1
     6    12    11    2
     7    11    13    2
     8    11     8    1
     9     9     8    2
    10     9    10    1
    11     8     7    1
    12    10     5    2
    13     7     6    2
    14     5     6    1
    15     5     1    1
    16     4     1    1
    17     1     2   am
    18     2     3    2
    19     2    19    1
    20    19    20    1
    21    20    21    2
    22    20    26    1
    23    21    22    1
    24    29    26    1
    25    29    28    2
    26    26    24    2
    27    22    23    2
    28    28    27    1
    29    24    23    1
    30    24    25    1
    31    27    25    2
