@<TRIPOS>MOLECULE
61269_out_ligand_01.pdbqt
 32 34 0 0 0
SMALL
GASTEIGER

@<TRIPOS>ATOM
      1  C         21.1780  -23.0440   -9.9530 C.2     1  UNL1        0.0340
      2  C         20.1360  -22.2370  -10.4330 C.2     1  UNL1        0.0310
      3  C         18.8420  -22.3610   -9.9200 C.2     1  UNL1        0.0270
      4  C         18.5890  -23.2940   -8.9130 C.2     1  UNL1        0.0800
      5  C         19.6110  -24.1210   -8.4420 C.2     1  UNL1        0.0270
      6  C         20.9040  -23.9880   -8.9600 C.2     1  UNL1        0.0310
      7  N         22.4500  -22.8470  -10.5180 N.am    1  UNL1       -0.3250
      8  C         23.3950  -21.8940  -10.1830 C.2     1  UNL1        0.2460
      9  O         23.2960  -21.0370   -9.3100 O.2     1  UNL1       -0.2710
     10  H         22.6930  -23.4300  -11.3140 H       1  UNL1        0.1690
     11  C         24.6750  -22.0120  -11.0220 C.3     1  UNL1        0.2780
     12  O         24.7680  -23.1970  -11.8060 O.2     1  UNL1       -0.3420
     13  C         24.7520  -23.0650  -13.1680 C.2     1  UNL1        0.0690
     14  C         25.2740  -24.1600  -13.8620 C.2     1  UNL1        0.0370
     15  C         25.3030  -24.1720  -15.2580 C.2     1  UNL1        0.0090
     16  C         24.8120  -23.0820  -15.9820 C.2     1  UNL1       -0.0620
     17  C         24.8100  -23.1040  -17.4820 C.3     1  UNL1        0.0480
     18  C         24.2710  -21.9960  -15.2870 C.2     1  UNL1        0.0090
     19  C         24.2440  -21.9850  -13.8880 C.2     1  UNL1        0.0370
     20  S         16.9440  -23.4760   -8.2740 S.O2    1  UNL1        0.2630
     21  O         16.9740  -24.5550   -7.3090 O.2     1  UNL1       -0.2000
     22  O         16.0270  -23.5130   -9.3930 O.2     1  UNL1       -0.2000
     23  N         16.7230  -22.0650   -7.3790 N.pl3   1  UNL1       -0.2800
     24  H         17.0590  -21.2350   -7.8620 H       1  UNL1        0.1790
     25  C         16.8350  -22.1000   -5.9590 C.2     1  UNL1        0.0540
     26  C         18.0540  -21.7850   -5.3280 C.2     1  UNL1       -0.0340
     27  C         19.2960  -21.3850   -6.0800 C.3     1  UNL1        0.0500
     28  C         18.1400  -21.8760   -3.9300 C.2     1  UNL1        0.0090
     29  C         17.0310  -22.2330   -3.1680 C.2     1  UNL1        0.0010
     30  C         15.8140  -22.4880   -3.7940 C.2     1  UNL1        0.0090
     31  C         15.6940  -22.4040   -5.1900 C.2     1  UNL1       -0.0340
     32  C         14.3400  -22.6590   -5.7920 C.3     1  UNL1        0.0500
@<TRIPOS>BOND
     1    17    16    1
     2    16    18    2
     3    16    15    1
     4    18    19    1
     5    15    14    2
     6    19    13    2
     7    14    13    1
     8    13    12    1
     9    12    11    1
    10    10     7    1
    11    11     8    1
    12     7     8   am
    13     7     1    1
    14     2     1    2
    15     2     3    1
    16     8     9    2
    17     1     6    1
    18     3     4    2
    19    22    20    2
    20     6     5    2
    21     4     5    1
    22     4    20    1
    23    20    23    1
    24    20    21    2
    25    24    23    1
    26    23    25    1
    27    27    26    1
    28    25    26    2
    29    25    31    1
    30    32    31    1
    31    26    28    1
    32    31    30    2
    33    28    29    2
    34    30    29    1
