@<TRIPOS>MOLECULE
61286_out_ligand_01.pdbqt
 34 37 0 0 0
SMALL
GASTEIGER

@<TRIPOS>ATOM
      1  C         21.6240  -23.3160   -8.7970 C.2     1  UNL1        0.0340
      2  C         20.8170  -24.4630   -8.7880 C.2     1  UNL1        0.0310
      3  C         19.6490  -24.5110   -8.0210 C.2     1  UNL1        0.0270
      4  C         19.2820  -23.4010   -7.2600 C.2     1  UNL1        0.0790
      5  C         20.0810  -22.2570   -7.2460 C.2     1  UNL1        0.0270
      6  C         21.2470  -22.2170   -8.0200 C.2     1  UNL1        0.0310
      7  N         22.7810  -23.3570   -9.6010 N.am    1  UNL1       -0.3270
      8  C         23.0720  -22.5820  -10.7100 C.2     1  UNL1        0.2260
      9  O         22.3310  -21.7400  -11.2120 O.2     1  UNL1       -0.2730
     10  H         23.5080  -23.9870   -9.2850 H       1  UNL1        0.1690
     11  C         24.4130  -22.8890  -11.3710 C.3     1  UNL1        0.1420
     12  C         25.1760  -21.6920  -11.9090 C.2     1  UNL1       -0.0380
     13  C         25.8870  -20.8980  -10.9890 C.2     1  UNL1        0.0080
     14  C         26.5800  -19.7690  -11.4130 C.2     1  UNL1        0.0010
     15  C         26.5710  -19.4160  -12.7590 C.2     1  UNL1        0.0120
     16  C         25.8780  -20.1880  -13.7040 C.2     1  UNL1       -0.0250
     17  C         25.8850  -19.8130  -15.0570 C.2     1  UNL1        0.0120
     18  C         25.1710  -21.3460  -13.2900 C.2     1  UNL1       -0.0190
     19  C         25.2040  -20.5650  -16.0130 C.2     1  UNL1        0.0010
     20  C         24.5110  -21.7030  -15.6280 C.2     1  UNL1        0.0010
     21  C         24.4950  -22.0900  -14.2840 C.2     1  UNL1        0.0130
     22  S         17.8110  -23.4700   -6.2720 S.O2    1  UNL1        0.2580
     23  O         17.9470  -22.5600   -5.1560 O.2     1  UNL1       -0.2010
     24  O         17.4760  -24.8640   -6.0840 O.2     1  UNL1       -0.2010
     25  N         16.6650  -22.8450   -7.3260 N.3     1  UNL1       -0.3150
     26  H         16.9030  -21.9010   -7.6380 H       1  UNL1        0.1720
     27  C         16.0690  -23.7470   -8.3240 C.3     1  UNL1        0.1370
     28  C         15.6350  -22.9590   -9.5630 C.3     1  UNL1        0.0580
     29  C         16.7880  -22.3010  -10.2870 C.2     1  UNL1       -0.0570
     30  C         17.9460  -23.0320  -10.5890 C.2     1  UNL1        0.0070
     31  C         19.0010  -22.4320  -11.2780 C.2     1  UNL1        0.0010
     32  C         18.9100  -21.0980  -11.6700 C.2     1  UNL1        0.0000
     33  C         17.7640  -20.3620  -11.3730 C.2     1  UNL1        0.0010
     34  C         16.7080  -20.9600  -10.6850 C.2     1  UNL1        0.0070
@<TRIPOS>BOND
     1    19    20    1
     2    19    17    2
     3    20    21    2
     4    17    16    1
     5    21    18    1
     6    16    18    1
     7    16    15    2
     8    18    12    2
     9    15    14    1
    10    12    11    1
    11    12    13    1
    12    32    33    2
    13    32    31    1
    14    14    13    2
    15    33    34    1
    16    11     8    1
    17    31    30    2
    18     9     8    2
    19     8     7   am
    20    34    29    2
    21    30    29    1
    22    29    28    1
    23     7    10    1
    24     7     1    1
    25    28    27    1
    26     1     2    2
    27     1     6    1
    28     2     3    1
    29    27    25    1
    30     3     4    2
    31     6     5    2
    32    26    25    1
    33    25    22    1
    34     4     5    1
    35     4    22    1
    36    22    24    2
    37    22    23    2
