@<TRIPOS>MOLECULE
61290_out_ligand_01.pdbqt
 34 37 0 0 0
SMALL
GASTEIGER

@<TRIPOS>ATOM
      1  C         21.5570  -22.2770   -9.6910 C.2     1  UNL1        0.0340
      2  C         21.5000  -22.3880  -11.0880 C.2     1  UNL1        0.0310
      3  C         22.6370  -22.1680  -11.8710 C.2     1  UNL1        0.0270
      4  C         23.8440  -21.8400  -11.2520 C.2     1  UNL1        0.0800
      5  C         23.9110  -21.7020   -9.8650 C.2     1  UNL1        0.0270
      6  C         22.7690  -21.9290   -9.0870 C.2     1  UNL1        0.0310
      7  N         20.3620  -22.5140   -8.9840 N.am    1  UNL1       -0.3260
      8  C         19.9530  -23.6880   -8.3650 C.2     1  UNL1        0.2350
      9  O         20.5910  -24.7400   -8.3560 O.2     1  UNL1       -0.2720
     10  H         19.7070  -21.7400   -8.9590 H       1  UNL1        0.1690
     11  C         18.6060  -23.5920   -7.6090 C.3     1  UNL1        0.1440
     12  C         18.6630  -22.6760   -6.3840 C.2     1  UNL1       -0.0410
     13  C         17.8800  -22.9950   -5.2590 C.2     1  UNL1        0.0080
     14  C         17.8800  -22.1760   -4.1280 C.2     1  UNL1        0.0010
     15  C         18.6610  -21.0230   -4.1050 C.2     1  UNL1        0.0000
     16  C         19.4390  -20.6890   -5.2100 C.2     1  UNL1        0.0010
     17  C         19.4400  -21.5060   -6.3440 C.2     1  UNL1        0.0080
     18  C         17.4090  -23.3480   -8.5350 C.2     1  UNL1       -0.0410
     19  C         17.4350  -22.2400   -9.4020 C.2     1  UNL1        0.0080
     20  C         16.3480  -21.9570  -10.2310 C.2     1  UNL1        0.0010
     21  C         15.2200  -22.7700  -10.2060 C.2     1  UNL1        0.0000
     22  C         15.1750  -23.8700   -9.3510 C.2     1  UNL1        0.0010
     23  C         16.2590  -24.1570   -8.5190 C.2     1  UNL1        0.0080
     24  S         25.2890  -21.5400  -12.2450 S.O2    1  UNL1        0.2630
     25  O         25.9980  -20.4260  -11.6480 O.2     1  UNL1       -0.2000
     26  O         25.9480  -22.8070  -12.4780 O.2     1  UNL1       -0.2000
     27  N         24.6460  -20.9560  -13.6930 N.pl3   1  UNL1       -0.2810
     28  H         23.6550  -20.7340  -13.6090 H       1  UNL1        0.1790
     29  C         25.1060  -21.4880  -14.9290 C.2     1  UNL1        0.0420
     30  C         24.3910  -22.4870  -15.5890 C.2     1  UNL1        0.0300
     31  C         24.8410  -22.9690  -16.8190 C.2     1  UNL1        0.0020
     32  C         26.0050  -22.4530  -17.3870 C.2     1  UNL1        0.0000
     33  C         26.7230  -21.4580  -16.7240 C.2     1  UNL1        0.0020
     34  C         26.2750  -20.9750  -15.4940 C.2     1  UNL1        0.0300
@<TRIPOS>BOND
     1    32    31    2
     2    32    33    1
     3    31    30    1
     4    33    34    2
     5    30    29    2
     6    34    29    1
     7    29    27    1
     8    27    28    1
     9    27    24    1
    10    26    24    2
    11    24    25    2
    12    24     4    1
    13     3     4    2
    14     3     2    1
    15     4     5    1
    16     2     1    2
    17    20    21    2
    18    20    19    1
    19    21    22    1
    20     5     6    2
    21     1     6    1
    22     1     7    1
    23    19    18    2
    24    22    23    2
    25     7    10    1
    26     7     8   am
    27    18    23    1
    28    18    11    1
    29     8     9    2
    30     8    11    1
    31    11    12    1
    32    12    17    2
    33    12    13    1
    34    17    16    1
    35    13    14    2
    36    16    15    2
    37    14    15    1
