@<TRIPOS>MOLECULE
61299_out_ligand_01.pdbqt
 33 36 0 0 0
SMALL
GASTEIGER

@<TRIPOS>ATOM
      1  C         24.5720  -22.2980  -10.3920 C.2     1  UNL1        0.0310
      2  C         25.9050  -21.8820  -10.5150 C.2     1  UNL1        0.0310
      3  C         26.3580  -21.2330  -11.6700 C.2     1  UNL1        0.0270
      4  C         25.4710  -20.9940  -12.7210 C.2     1  UNL1        0.0750
      5  C         24.1350  -21.3750  -12.6150 C.2     1  UNL1        0.0270
      6  C         23.6950  -22.0240  -11.4570 C.2     1  UNL1        0.0310
      7  N         24.0540  -22.9270   -9.2460 N.pl3   1  UNL1       -0.3660
      8  H         24.5040  -22.6670   -8.3730 H       1  UNL1        0.1650
      9  C         22.9710  -23.7620   -9.1340 C.2     1  UNL1        0.0920
     10  C         21.7200  -23.3900   -8.8330 C.2     1  UNL1        0.0720
     11  C         20.5570  -24.3070   -8.7010 C.2     1  UNL1        0.1840
     12  O         20.7250  -25.5230   -8.7120 O.2     1  UNL1       -0.2880
     13  C         19.1930  -23.7550   -8.5980 C.2     1  UNL1        0.0250
     14  C         18.4510  -24.1450   -7.4750 C.2     1  UNL1        0.0160
     15  C         17.1450  -23.6970   -7.3240 C.2     1  UNL1        0.0020
     16  C         16.5850  -22.8570   -8.2890 C.2     1  UNL1        0.0120
     17  C         17.3240  -22.4400   -9.4090 C.2     1  UNL1       -0.0250
     18  C         16.7460  -21.5850  -10.3620 C.2     1  UNL1        0.0120
     19  C         18.6600  -22.8790   -9.5770 C.2     1  UNL1       -0.0120
     20  C         17.4710  -21.1500  -11.4700 C.2     1  UNL1        0.0010
     21  C         18.7860  -21.5610  -11.6410 C.2     1  UNL1        0.0010
     22  C         19.3770  -22.4120  -10.7040 C.2     1  UNL1        0.0130
     23  S         26.0430  -20.1340  -14.1660 S.O2    1  UNL1        0.2480
     24  O         27.0090  -21.0080  -14.8030 O.2     1  UNL1       -0.2050
     25  O         26.4170  -18.7830  -13.8040 O.2     1  UNL1       -0.2050
     26  N         24.7190  -20.1160  -15.1670 N.pl3   1  UNL1       -0.1480
     27  H         23.8390  -20.0150  -14.6770 H       1  UNL1        0.1490
     28  C         24.6740  -21.0620  -16.1840 C.cat   1  UNL1        0.2150
     29  N         25.4870  -20.7750  -17.2060 N.2     1  UNL1       -0.2300
     30  C         25.5830  -21.7280  -18.1510 C.2     1  UNL1        0.1210
     31  C         24.9360  -22.9400  -18.0750 C.2     1  UNL1        0.0390
     32  C         24.1740  -23.1350  -16.9480 C.2     1  UNL1        0.1210
     33  N         24.0430  -22.2180  -15.9730 N.2     1  UNL1       -0.2300
@<TRIPOS>BOND
     1    30    31    2
     2    30    29    1
     3    31    32    1
     4    29    28    2
     5    32    33    2
     6    28    33    1
     7    28    26    1
     8    26    27    1
     9    26    23    1
    10    24    23    2
    11    23    25    2
    12    23     4    1
    13     4     5    2
    14     4     3    1
    15     5     6    1
    16     3     2    2
    17    21    20    1
    18    21    22    2
    19    20    18    2
    20     6     1    2
    21    22    19    1
    22     2     1    1
    23     1     7    1
    24    18    17    1
    25    19    17    1
    26    19    13    2
    27    17    16    2
    28     7     9    1
    29     7     8    1
    30     9    10    2
    31    10    11    1
    32    12    11    2
    33    11    13    1
    34    13    14    1
    35    16    15    1
    36    14    15    2
