@<TRIPOS>MOLECULE
612_out_ligand_01.pdbqt
 33 35 0 0 0
SMALL
GASTEIGER

@<TRIPOS>ATOM
      1  C         22.8130  -23.0910  -10.7820 C.2     1  UNL1        0.0220
      2  C         21.7660  -22.3490  -11.3260 C.2     1  UNL1        0.0250
      3  C         20.5900  -22.1590  -10.5950 C.2     1  UNL1        0.0190
      4  C         20.4730  -22.6960   -9.3040 C.2     1  UNL1        0.0320
      5  C         21.5310  -23.4440   -8.7670 C.2     1  UNL1        0.0190
      6  C         22.7040  -23.6330   -9.5000 C.2     1  UNL1        0.0250
      7  C         19.2450  -22.5160   -8.4730 C.2     1  UNL1        0.2560
      8  O         18.1790  -22.3480   -9.0570 O.2     1  UNL1       -0.2670
      9  N         19.4420  -22.5820   -7.1040 N.am    1  UNL1       -0.3230
     10  H         20.3740  -22.8060   -6.7820 H       1  UNL1        0.1690
     11  C         18.4720  -22.4150   -6.0890 C.2     1  UNL1        0.0350
     12  C         18.6680  -21.6480   -4.9400 C.2     1  UNL1        0.0290
     13  C         17.6600  -21.5400   -3.9770 C.2     1  UNL1        0.0030
     14  C         16.4500  -22.2040   -4.1450 C.2     1  UNL1        0.0160
     15  C         16.2320  -22.9890   -5.2860 C.2     1  UNL1        0.0500
     16  C         17.2450  -23.0740   -6.2580 C.2     1  UNL1        0.0450
     17  C         14.9260  -23.7070   -5.4780 C.3     1  UNL1        0.4170
     18  F         14.9180  -24.5040   -6.5840 F       1  UNL1       -0.1660
     19  F         14.6010  -24.5190   -4.4350 F       1  UNL1       -0.1660
     20  F         13.8800  -22.8520   -5.6290 F       1  UNL1       -0.1660
     21  N         24.0370  -23.2090  -11.5180 N.pl3   1  UNL1       -0.1810
     22  H         24.4790  -24.1110  -11.3310 H       1  UNL1        0.1460
     23  S         25.2100  -22.0340  -11.1020 S.O2    1  UNL1        0.2460
     24  O         26.3860  -22.7620  -10.6910 O.2     1  UNL1       -0.2060
     25  O         24.6120  -21.0350  -10.2420 O.2     1  UNL1       -0.2060
     26  C         25.5160  -21.2800  -12.6930 C.2     1  UNL1        0.0810
     27  C         26.2000  -20.0570  -12.8350 C.2     1  UNL1       -0.0390
     28  C         26.3500  -19.5330  -14.1320 C.2     1  UNL1        0.0090
     29  C         26.7510  -19.2660  -11.6830 C.3     1  UNL1        0.0500
     30  C         25.8390  -20.1990  -15.2530 C.2     1  UNL1        0.0070
     31  C         25.1620  -21.4130  -15.1110 C.2     1  UNL1       -0.0600
     32  C         24.6420  -22.1510  -16.3110 C.3     1  UNL1        0.0480
     33  C         25.0100  -21.9550  -13.8280 C.2     1  UNL1        0.0320
@<TRIPOS>BOND
     1    32    31    1
     2    30    31    2
     3    30    28    1
     4    31    33    1
     5    28    27    2
     6    33    26    2
     7    27    26    1
     8    27    29    1
     9    26    23    1
    10    21    22    1
    11    21    23    1
    12    21     1    1
    13     2     1    2
    14     2     3    1
    15    23    24    2
    16    23    25    2
    17     1     6    1
    18     3     4    2
    19     6     5    2
    20     4     5    1
    21     4     7    1
    22     8     7    2
    23     7     9   am
    24     9    10    1
    25     9    11    1
    26    18    17    1
    27    16    11    2
    28    16    15    1
    29    11    12    1
    30    20    17    1
    31    17    15    1
    32    17    19    1
    33    15    14    2
    34    12    13    2
    35    14    13    1
