@<TRIPOS>MOLECULE
61337_out_ligand_01.pdbqt
 31 35 0 0 0
SMALL
GASTEIGER

@<TRIPOS>ATOM
      1  C         24.7870  -23.1310  -12.3650 C.2     1  UNL1        0.0350
      2  C         25.8490  -24.0300  -12.2900 C.2     1  UNL1        0.0290
      3  C         27.0100  -23.8130  -13.0340 C.2     1  UNL1        0.0030
      4  C         27.1200  -22.6930  -13.8630 C.2     1  UNL1        0.0150
      5  C         26.0670  -21.7750  -13.9570 C.2     1  UNL1        0.0120
      6  C         24.9080  -22.0100  -13.1980 C.2     1  UNL1        0.0440
      7  N         23.5830  -23.2700  -11.6460 N.am    1  UNL1       -0.3230
      8  C         23.1510  -22.5110  -10.5750 C.2     1  UNL1        0.2570
      9  O         23.7350  -21.5870  -10.0270 O.2     1  UNL1       -0.2670
     10  H         22.9830  -24.0360  -11.9350 H       1  UNL1        0.1690
     11  C         21.8140  -22.9150  -10.0690 C.2     1  UNL1        0.0430
     12  C         21.7850  -23.9430   -9.1170 C.2     1  UNL1        0.0180
     13  C         20.5700  -24.3610   -8.5990 C.2     1  UNL1        0.0020
     14  C         19.3900  -23.7550   -9.0310 C.2     1  UNL1        0.0130
     15  C         19.3820  -22.7160   -9.9970 C.2     1  UNL1       -0.0070
     16  C         18.1970  -22.0800  -10.4580 C.2     1  UNL1        0.0220
     17  C         20.6270  -22.2890  -10.5320 C.2     1  UNL1       -0.0090
     18 BR         16.4620  -22.5580   -9.8230 Br      1  UNL1       -0.0500
     19  C         18.2370  -21.0560  -11.4090 C.2     1  UNL1        0.0200
     20  C         19.4560  -20.6410  -11.9250 C.2     1  UNL1        0.0020
     21  C         20.6320  -21.2480  -11.4910 C.2     1  UNL1        0.0130
     22  C         26.1260  -20.5800  -14.8090 C.ar    1  UNL1        0.1390
     23  N         25.8410  -20.5410  -16.1000 N.ar    1  UNL1       -0.2280
     24  C         26.0280  -19.2410  -16.4980 C.ar    1  UNL1        0.0860
     25  C         25.8650  -18.6560  -17.7610 C.2     1  UNL1        0.0340
     26  C         26.4420  -18.4540  -15.4330 C.ar    1  UNL1        0.0620
     27  C         26.1260  -17.2870  -17.9050 C.2     1  UNL1        0.0020
     28  C         26.5410  -16.5200  -16.8130 C.2     1  UNL1        0.0020
     29  C         26.7090  -17.0880  -15.5460 C.2     1  UNL1        0.0320
     30  N         26.4970  -19.3250  -14.3770 N.ar    1  UNL1       -0.3380
     31  H         26.7710  -19.0820  -13.4380 H       1  UNL1        0.1670
@<TRIPOS>BOND
     1    27    25    1
     2    27    28    2
     3    25    24    2
     4    28    29    1
     5    24    23   ar
     6    24    26   ar
     7    23    22   ar
     8    29    26    2
     9    26    30   ar
    10    22    30   ar
    11    22     5    1
    12    30    31    1
    13     5     4    2
    14     5     6    1
    15     4     3    1
    16     6     1    2
    17     3     2    2
    18     1     2    1
    19     1     7    1
    20    10     7    1
    21    20    21    2
    22    20    19    1
    23     7     8   am
    24    21    17    1
    25    19    16    2
    26     8    11    1
    27     8     9    2
    28    17    11    2
    29    17    15    1
    30    16    15    1
    31    16    18    1
    32    11    12    1
    33    15    14    2
    34    12    13    2
    35    14    13    1
