@<TRIPOS>MOLECULE
61345_out_ligand_01.pdbqt
 37 42 0 0 0
SMALL
GASTEIGER

@<TRIPOS>ATOM
      1  C         24.5970  -22.5390  -10.6560 C.2     1  UNL1        0.2310
      2  O         23.9180  -21.8220  -11.3910 O.2     1  UNL1       -0.2720
      3  N         24.1190  -23.2580   -9.5790 N.am    1  UNL1       -0.3270
      4  H         24.8040  -23.8300   -9.1010 H       1  UNL1        0.1690
      5  C         26.1050  -22.6180  -10.8900 C.3     1  UNL1        0.1850
      6  S         26.6180  -22.9120  -12.6130 S.3     1  UNL1       -0.0810
      7  C         26.6800  -21.2970  -13.2300 C.ar    1  UNL1        0.1920
      8  N         26.3270  -20.9420  -14.5050 N.ar    1  UNL1       -0.3070
      9  C         26.5490  -19.5810  -14.5820 C.ar    1  UNL1        0.1670
     10  N         27.0150  -19.1710  -13.4150 N.ar    1  UNL1       -0.1280
     11  N         27.0690  -20.2410  -12.5630 N.ar    1  UNL1       -0.1220
     12  C         25.9460  -21.8320  -15.5850 C.3     1  UNL1        0.1280
     13  C         24.4620  -22.1670  -15.5800 C.3     1  UNL1        0.0270
     14  C         26.4440  -18.7250  -15.7620 C.2     1  UNL1        0.0450
     15  C         26.0780  -19.2390  -17.0150 C.2     1  UNL1        0.0180
     16  C         26.0100  -18.4050  -18.1360 C.2     1  UNL1        0.0010
     17  C         26.2970  -17.0460  -18.0160 C.2     1  UNL1        0.0030
     18  C         26.6320  -16.5140  -16.7720 C.2     1  UNL1        0.0370
     19  C         26.6880  -17.3460  -15.6550 C.2     1  UNL1        0.0790
     20  O         26.9910  -16.7450  -14.4610 O.2     1  UNL1       -0.3600
     21  H         27.8760  -16.3350  -14.5470 H       1  UNL1        0.2170
     22  C         22.8050  -23.3130   -9.0750 C.2     1  UNL1        0.0340
     23  C         22.3590  -22.2140   -8.3370 C.2     1  UNL1        0.0300
     24  C         21.0570  -22.1700   -7.8210 C.2     1  UNL1        0.0100
     25  C         20.1570  -23.2250   -8.0250 C.2     1  UNL1       -0.0490
     26  C         20.6270  -24.3270   -8.7640 C.2     1  UNL1        0.0100
     27  C         21.9290  -24.3710   -9.2810 C.2     1  UNL1        0.0300
     28  C         18.7160  -23.2090   -7.4890 C.3     1  UNL1       -0.0120
     29  C         17.6490  -22.8400   -8.5660 C.3     1  UNL1        0.0190
     30  C         16.2280  -22.8420   -7.9790 C.3     1  UNL1       -0.0130
     31  C         15.9090  -24.2410   -7.4320 C.3     1  UNL1        0.0090
     32  C         16.1500  -21.8170   -6.8390 C.3     1  UNL1        0.0090
     33  C         16.9190  -24.6140   -6.3390 C.3     1  UNL1       -0.0130
     34  C         16.8440  -23.5820   -5.2030 C.3     1  UNL1        0.0090
     35  C         18.3390  -24.6150   -6.9320 C.3     1  UNL1        0.0190
     36  C         17.1610  -22.1780   -5.7430 C.3     1  UNL1       -0.0130
     37  C         18.5830  -22.1710   -6.3360 C.3     1  UNL1        0.0190
@<TRIPOS>BOND
     1    16    17    2
     2    16    15    1
     3    17    18    1
     4    15    14    2
     5    18    19    2
     6    14    19    1
     7    14     9    1
     8    19    20    1
     9    12    13    1
    10    12     8    1
    11     9     8   ar
    12     9    10   ar
    13    21    20    1
    14     8     7   ar
    15    10    11   ar
    16     7     6    1
    17     7    11   ar
    18     6     5    1
    19     2     1    2
    20     5     1    1
    21     1     3   am
    22     3     4    1
    23     3    22    1
    24    27    22    2
    25    27    26    1
    26    22    23    1
    27    26    25    2
    28    29    30    1
    29    29    28    1
    30    23    24    2
    31    25    24    1
    32    25    28    1
    33    30    31    1
    34    30    32    1
    35    28    35    1
    36    28    37    1
    37    31    33    1
    38    35    33    1
    39    32    36    1
    40    33    34    1
    41    37    36    1
    42    36    34    1
