@<TRIPOS>MOLECULE
61365_out_ligand_01.pdbqt
 30 33 0 0 0
SMALL
GASTEIGER

@<TRIPOS>ATOM
      1  C         18.2750  -22.1840   -8.0630 C.3     1  UNL1        0.1690
      2  C         19.5160  -22.9350   -8.5500 C.3     1  UNL1        0.0770
      3  C         19.9430  -22.3400   -9.8610 C.2     1  UNL1       -0.0380
      4  C         21.2890  -22.3270  -10.2540 C.2     1  UNL1        0.0250
      5  C         21.6600  -21.7880  -11.4940 C.2     1  UNL1        0.0320
      6  C         20.6810  -21.2460  -12.3380 C.2     1  UNL1        0.0180
      7  C         19.3370  -21.2730  -11.9560 C.2     1  UNL1        0.0190
      8  C         18.9670  -21.8230  -10.7220 C.2     1  UNL1        0.0450
      9  C         17.5280  -21.8800  -10.3500 C.2     1  UNL1        0.2940
     10  O         16.6530  -21.6310  -11.1690 O.2     1  UNL1       -0.2590
     11  O         17.2450  -22.2530   -9.0770 O.3     1  UNL1       -0.3070
     12  C         23.1040  -21.7830  -11.8620 C.2     1  UNL1        0.2560
     13  O         23.9200  -21.9530  -10.9640 O.2     1  UNL1       -0.2670
     14  N         23.3570  -21.6230  -13.2120 N.am    1  UNL1       -0.3220
     15  H         22.5560  -21.6430  -13.8240 H       1  UNL1        0.1690
     16  C         24.6150  -21.5310  -13.8550 C.2     1  UNL1        0.0410
     17  C         25.1280  -20.3160  -14.3280 C.2     1  UNL1        0.0370
     18  C         26.3710  -20.2470  -14.9770 C.2     1  UNL1       -0.0600
     19  C         26.9060  -18.9230  -15.4390 C.3     1  UNL1        0.0480
     20  C         27.1210  -21.4110  -15.1350 C.2     1  UNL1        0.0070
     21  C         26.6240  -22.6300  -14.6770 C.2     1  UNL1        0.0090
     22  C         25.3730  -22.7080  -14.0410 C.2     1  UNL1       -0.0350
     23  C         24.9000  -24.0580  -13.5710 C.3     1  UNL1        0.0500
     24  C         17.6660  -22.6770   -6.7590 C.2     1  UNL1       -0.0290
     25  C         18.1400  -22.3070   -5.4930 C.2     1  UNL1        0.0100
     26  C         17.5220  -22.7780   -4.3290 C.2     1  UNL1        0.0070
     27  C         16.4210  -23.6350   -4.4020 C.2     1  UNL1       -0.0620
     28  C         15.7410  -24.1140   -3.1530 C.3     1  UNL1        0.0480
     29  C         15.9300  -23.9970   -5.6580 C.2     1  UNL1        0.0070
     30  C         16.5480  -23.5260   -6.8200 C.2     1  UNL1        0.0100
@<TRIPOS>BOND
     1    19    18    1
     2    20    18    2
     3    20    21    1
     4    18    17    1
     5    21    22    2
     6    17    16    2
     7    22    16    1
     8    22    23    1
     9    16    14    1
    10    15    14    1
    11    14    12   am
    12     6     7    2
    13     6     5    1
    14     7     8    1
    15    12     5    1
    16    12    13    2
    17     5     4    2
    18    10     9    2
    19     8     9    1
    20     8     3    2
    21     9    11    1
    22     4     3    1
    23     3     2    1
    24    11     1    1
    25     2     1    1
    26     1    24    1
    27    30    24    2
    28    30    29    1
    29    24    25    1
    30    29    27    2
    31    25    26    2
    32    27    26    1
    33    27    28    1
