@<TRIPOS>MOLECULE
61361_out_ligand_01.pdbqt
 28 31 0 0 0
SMALL
GASTEIGER

@<TRIPOS>ATOM
      1  C         18.2700  -22.2990   -8.1190 C.3     1  UNL1        0.1690
      2  C         19.3880  -23.2020   -8.6470 C.3     1  UNL1        0.0770
      3  C         19.9330  -22.5960   -9.9090 C.2     1  UNL1       -0.0380
      4  C         21.2730  -22.7680  -10.2840 C.2     1  UNL1        0.0250
      5  C         21.7470  -22.1960  -11.4740 C.2     1  UNL1        0.0320
      6  C         20.8840  -21.4430  -12.2800 C.2     1  UNL1        0.0180
      7  C         19.5430  -21.2890  -11.9190 C.2     1  UNL1        0.0190
      8  C         19.0660  -21.8670  -10.7360 C.2     1  UNL1        0.0450
      9  C         17.6260  -21.7280  -10.3850 C.2     1  UNL1        0.2940
     10  O         16.8150  -21.2910  -11.1910 O.2     1  UNL1       -0.2590
     11  O         17.2630  -22.1420   -9.1460 O.3     1  UNL1       -0.3070
     12  C         23.1670  -22.3400  -11.8950 C.2     1  UNL1        0.2560
     13  O         23.9430  -22.8880  -11.1220 O.2     1  UNL1       -0.2670
     14  N         23.4600  -21.7950  -13.1310 N.am    1  UNL1       -0.3230
     15  H         22.7330  -21.2540  -13.5800 H       1  UNL1        0.1690
     16  C         24.7000  -21.8210  -13.8050 C.2     1  UNL1        0.0350
     17  C         25.7070  -20.8720  -13.6220 C.2     1  UNL1        0.0290
     18  C         26.9120  -20.9730  -14.3250 C.2     1  UNL1        0.0020
     19  C         27.1210  -22.0250  -15.2150 C.2     1  UNL1        0.0000
     20  C         26.1240  -22.9780  -15.4020 C.2     1  UNL1        0.0020
     21  C         24.9200  -22.8770  -14.7000 C.2     1  UNL1        0.0290
     22  C         17.5680  -22.7740   -6.8590 C.2     1  UNL1       -0.0290
     23  C         16.4030  -23.5570   -6.8640 C.2     1  UNL1        0.0100
     24  C         15.8150  -23.9780   -5.6670 C.2     1  UNL1        0.0070
     25  C         16.3690  -23.6200   -4.4340 C.2     1  UNL1       -0.0620
     26  C         15.7540  -24.0980   -3.1530 C.3     1  UNL1        0.0480
     27  C         17.5370  -22.8540   -4.4160 C.2     1  UNL1        0.0070
     28  C         18.1240  -22.4330   -5.6130 C.2     1  UNL1        0.0100
@<TRIPOS>BOND
     1    20    19    2
     2    20    21    1
     3    19    18    1
     4    21    16    2
     5    18    17    2
     6    16    17    1
     7    16    14    1
     8    15    14    1
     9    14    12   am
    10     6     7    2
    11     6     5    1
    12     7     8    1
    13    12     5    1
    14    12    13    2
    15     5     4    2
    16    10     9    2
    17     8     9    1
    18     8     3    2
    19     9    11    1
    20     4     3    1
    21     3     2    1
    22    11     1    1
    23     2     1    1
    24     1    22    1
    25    23    22    2
    26    23    24    1
    27    22    28    1
    28    24    25    2
    29    28    27    2
    30    25    27    1
    31    25    26    1
