@<TRIPOS>MOLECULE
61364_out_ligand_01.pdbqt
 29 32 0 0 0
SMALL
GASTEIGER

@<TRIPOS>ATOM
      1  C         21.5220  -22.0750  -11.6960 C.2     1  UNL1        0.0320
      2  C         20.5920  -21.3790  -12.4780 C.2     1  UNL1        0.0180
      3  C         19.2710  -21.2450  -12.0390 C.2     1  UNL1        0.0190
      4  C         18.8730  -21.8060  -10.8200 C.2     1  UNL1        0.0450
      5  C         19.7950  -22.5120  -10.0380 C.2     1  UNL1       -0.0380
      6  C         21.1160  -22.6570  -10.4850 C.2     1  UNL1        0.0250
      7  C         19.3280  -23.1480   -8.7590 C.3     1  UNL1        0.0770
      8  C         18.2200  -22.2760   -8.1660 C.3     1  UNL1        0.1690
      9  O         17.1600  -22.1180   -9.1370 O.3     1  UNL1       -0.3070
     10  C         17.4530  -21.6880  -10.3900 C.2     1  UNL1        0.2940
     11  O         16.5980  -21.2450  -11.1440 O.2     1  UNL1       -0.2590
     12  C         22.9390  -22.2590  -12.1260 C.2     1  UNL1        0.2560
     13  O         23.6630  -22.9610  -11.4320 O.2     1  UNL1       -0.2670
     14  N         23.3020  -21.5670  -13.2680 N.am    1  UNL1       -0.3230
     15  H         22.6240  -20.9200  -13.6510 H       1  UNL1        0.1690
     16  C         24.5550  -21.5880  -13.9170 C.2     1  UNL1        0.0360
     17  C         25.6520  -21.0860  -13.2010 C.2     1  UNL1        0.0290
     18  C         26.9280  -21.0630  -13.7680 C.2     1  UNL1        0.0040
     19  C         27.1200  -21.5410  -15.0610 C.2     1  UNL1        0.0240
     20  C         26.0340  -22.0360  -15.7790 C.2     1  UNL1        0.0360
     21 CL         26.2750  -22.6220  -17.3800 Cl      1  UNL1       -0.0840
     22  C         24.7560  -22.0610  -15.2150 C.2     1  UNL1        0.0530
     23  C         17.5840  -22.7830   -6.8800 C.2     1  UNL1       -0.0280
     24  C         16.2990  -23.3580   -6.9490 C.2     1  UNL1        0.0110
     25  C         15.6560  -23.8290   -5.8030 C.2     1  UNL1        0.0240
     26  C         16.2870  -23.7300   -4.5680 C.2     1  UNL1        0.0340
     27 CL         15.4980  -24.3070   -3.1530 Cl      1  UNL1       -0.0840
     28  C         17.5550  -23.1650   -4.4730 C.2     1  UNL1        0.0240
     29  C         18.2000  -22.6940   -5.6220 C.2     1  UNL1        0.0110
@<TRIPOS>BOND
     1    21    20    1
     2    20    22    1
     3    20    19    2
     4    22    16    2
     5    19    18    1
     6    16    14    1
     7    16    17    1
     8    18    17    2
     9    15    14    1
    10    14    12   am
    11     2     3    1
    12     2     1    2
    13    12     1    1
    14    12    13    2
    15     3     4    2
    16     1     6    1
    17    11    10    2
    18     4    10    1
    19     4     5    1
    20     6     5    2
    21    10     9    1
    22     5     7    1
    23     9     8    1
    24     7     8    1
    25     8    23    1
    26    24    23    2
    27    24    25    1
    28    23    29    1
    29    25    26    2
    30    29    28    2
    31    26    28    1
    32    26    27    1
