@<TRIPOS>MOLECULE
61370_out_ligand_01.pdbqt
 32 35 0 0 0
SMALL
GASTEIGER

@<TRIPOS>ATOM
      1  C         25.0230  -21.0640  -12.9050 C.3     1  UNL1        0.1690
      2  C         23.7880  -21.9610  -12.9630 C.3     1  UNL1        0.0770
      3  C         23.5600  -22.5300  -11.5920 C.2     1  UNL1       -0.0380
      4  C         22.2740  -22.8420  -11.1350 C.2     1  UNL1        0.0250
      5  C         22.0910  -23.3980   -9.8600 C.2     1  UNL1        0.0320
      6  C         23.2010  -23.6280   -9.0350 C.2     1  UNL1        0.0180
      7  C         24.4870  -23.3330   -9.4970 C.2     1  UNL1        0.0190
      8  C         24.6680  -22.7880  -10.7750 C.2     1  UNL1        0.0450
      9  C         26.0480  -22.5180  -11.2630 C.2     1  UNL1        0.2940
     10  O         27.0240  -22.9520  -10.6660 O.2     1  UNL1       -0.2590
     11  O         26.1600  -21.8050  -12.4110 O.3     1  UNL1       -0.3070
     12  C         20.7020  -23.6980   -9.4110 C.2     1  UNL1        0.2560
     13  O         20.4330  -24.8550   -9.1130 O.2     1  UNL1       -0.2670
     14  N         19.8600  -22.6040   -9.3420 N.am    1  UNL1       -0.3230
     15  H         20.2760  -21.6930   -9.4910 H       1  UNL1        0.1690
     16  C         18.4950  -22.5990   -8.9880 C.2     1  UNL1        0.0350
     17  C         17.5640  -22.5720  -10.0350 C.2     1  UNL1        0.0290
     18  C         16.1930  -22.5660   -9.7700 C.2     1  UNL1        0.0030
     19  C         15.7370  -22.5920   -8.4540 C.2     1  UNL1        0.0160
     20  C         16.6490  -22.6280   -7.3910 C.2     1  UNL1        0.0500
     21  C         18.0290  -22.6280   -7.6720 C.2     1  UNL1        0.0450
     22  C         16.1800  -22.6530   -5.9580 C.3     1  UNL1        0.4170
     23  F         14.9620  -22.0660   -5.7790 F       1  UNL1       -0.1660
     24  F         16.0550  -23.9170   -5.4660 F       1  UNL1       -0.1660
     25  F         17.0300  -22.0030   -5.1170 F       1  UNL1       -0.1660
     26  C         25.3400  -20.4980  -14.2750 C.2     1  UNL1       -0.0290
     27  C         26.1050  -19.3280  -14.3870 C.2     1  UNL1        0.0100
     28  C         26.3830  -18.7740  -15.6400 C.2     1  UNL1        0.0070
     29  C         25.8870  -19.3700  -16.8050 C.2     1  UNL1       -0.0620
     30  C         26.2150  -18.7970  -18.1520 C.3     1  UNL1        0.0480
     31  C         25.1320  -20.5420  -16.6990 C.2     1  UNL1        0.0070
     32  C         24.8540  -21.0960  -15.4460 C.2     1  UNL1        0.0100
@<TRIPOS>BOND
     1    30    29    1
     2    29    31    2
     3    29    28    1
     4    31    32    1
     5    28    27    2
     6    32    26    2
     7    27    26    1
     8    26     1    1
     9     2     1    1
    10     2     3    1
    11     1    11    1
    12    11     9    1
    13     3     4    2
    14     3     8    1
    15     9     8    1
    16     9    10    2
    17     4     5    1
    18     8     7    2
    19    17    18    1
    20    17    16    2
    21     5    12    1
    22     5     6    2
    23    18    19    2
    24     7     6    1
    25    15    14    1
    26    12    14   am
    27    12    13    2
    28    14    16    1
    29    16    21    1
    30    19    20    1
    31    21    20    2
    32    20    22    1
    33    22    23    1
    34    22    24    1
    35    22    25    1
