@<TRIPOS>MOLECULE
61388_out_ligand_01.pdbqt
 29 32 0 0 0
SMALL
GASTEIGER

@<TRIPOS>ATOM
      1  C         19.5520  -22.0610  -10.5970 C.2     1  UNL1        0.0320
      2  C         20.6870  -22.8040  -10.2630 C.2     1  UNL1        0.0190
      3  C         21.8540  -22.6860  -11.0240 C.2     1  UNL1        0.0300
      4  C         21.9070  -21.8210  -12.1240 C.2     1  UNL1        0.0350
      5  C         20.7770  -21.0600  -12.4370 C.2     1  UNL1        0.0300
      6  C         19.6060  -21.1740  -11.6780 C.2     1  UNL1        0.0190
      7  C         18.3240  -22.2150   -9.7630 C.2     1  UNL1        0.2560
      8  O         17.2600  -21.8430  -10.2400 O.2     1  UNL1       -0.2670
      9  N         18.5460  -22.7290   -8.4980 N.am    1  UNL1       -0.3220
     10  H         19.5120  -22.8330   -8.2300 H       1  UNL1        0.1690
     11  C         17.5870  -23.0410   -7.4980 C.2     1  UNL1        0.0460
     12  C         16.5170  -23.9050   -7.7680 C.2     1  UNL1        0.0300
     13  C         15.5840  -24.2220   -6.7840 C.2     1  UNL1        0.0030
     14  C         15.7080  -23.6840   -5.5090 C.2     1  UNL1        0.0120
     15  C         16.7650  -22.8210   -5.1970 C.2     1  UNL1       -0.0240
     16  C         16.8600  -22.2980   -3.8960 C.2     1  UNL1        0.0120
     17  C         17.7290  -22.4810   -6.1850 C.2     1  UNL1        0.0010
     18  C         17.8930  -21.4360   -3.5390 C.2     1  UNL1        0.0010
     19  C         18.8460  -21.0840   -4.4830 C.2     1  UNL1        0.0010
     20  C         18.7650  -21.5960   -5.7820 C.2     1  UNL1        0.0140
     21  N         23.1240  -21.7620  -12.8340 N.am    1  UNL1       -0.3230
     22  C         23.4310  -20.9750  -13.9380 C.2     1  UNL1        0.2630
     23  O         22.6210  -20.2440  -14.5010 O.2     1  UNL1       -0.2670
     24  H         23.8320  -22.4190  -12.5400 H       1  UNL1        0.1690
     25  C         24.8160  -21.1170  -14.3930 C.2     1  UNL1        0.0720
     26  C         25.5650  -22.2530  -14.6540 C.2     1  UNL1        0.0250
     27  C         26.8900  -21.9510  -15.0880 C.2     1  UNL1        0.0090
     28  C         27.1210  -20.5960  -15.1370 C.2     1  UNL1        0.0500
     29  S         25.7510  -19.6970  -14.6550 S.3     1  UNL1       -0.0970
@<TRIPOS>BOND
     1    28    27    2
     2    28    29    1
     3    27    26    1
     4    29    25    1
     5    26    25    2
     6    23    22    2
     7    25    22    1
     8    22    21   am
     9    21    24    1
    10    21     4    1
    11     5     4    2
    12     5     6    1
    13     4     3    1
    14     6     1    2
    15     3     2    2
    16     1     2    1
    17     1     7    1
    18     8     7    2
    19     7     9   am
    20     9    10    1
    21     9    11    1
    22    12    11    2
    23    12    13    1
    24    11    17    1
    25    13    14    2
    26    17    20    1
    27    17    15    2
    28    20    19    2
    29    14    15    1
    30    15    16    1
    31    19    18    1
    32    16    18    2
