@<TRIPOS>MOLECULE
61391_out_ligand_01.pdbqt
 34 36 0 0 0
SMALL
GASTEIGER

@<TRIPOS>ATOM
      1  N         21.9030  -23.2880  -10.1490 N.pl3   1  UNL1       -0.2630
      2  S         23.3730  -22.5860   -9.6590 S.O2    1  UNL1        0.2650
      3  O         24.0510  -23.5540   -8.8170 O.2     1  UNL1       -0.2000
      4  O         23.1460  -21.2300   -9.2050 O.2     1  UNL1       -0.2000
      5  C         24.2790  -22.4700  -11.1840 C.2     1  UNL1        0.0800
      6  C         24.1790  -23.4840  -12.1390 C.2     1  UNL1        0.0260
      7  C         24.8840  -23.3690  -13.3380 C.2     1  UNL1        0.0080
      8  C         25.6950  -22.2510  -13.5810 C.2     1  UNL1       -0.0620
      9  C         26.4270  -22.1140  -14.8850 C.3     1  UNL1        0.0480
     10  C         25.7760  -21.2370  -12.6170 C.2     1  UNL1        0.0080
     11  C         25.0780  -21.3470  -11.4150 C.2     1  UNL1        0.0260
     12  C         21.2820  -24.2330   -9.1860 C.3     1  UNL1        0.2450
     13  C         20.4430  -23.5010   -8.1360 C.2     1  UNL1        0.2410
     14  O         20.8810  -22.5700   -7.4680 O.2     1  UNL1       -0.2710
     15  N         19.1560  -24.0250   -8.0510 N.am    1  UNL1       -0.3260
     16  H         18.9310  -24.7960   -8.6680 H       1  UNL1        0.1690
     17  C         18.1170  -23.6120   -7.1920 C.2     1  UNL1        0.0340
     18  C         17.8900  -24.1450   -5.9210 C.2     1  UNL1        0.0300
     19  C         16.8290  -23.6840   -5.1300 C.2     1  UNL1        0.0190
     20  C         15.9860  -22.6740   -5.6010 C.2     1  UNL1        0.0320
     21  C         16.2020  -22.1440   -6.8770 C.2     1  UNL1        0.0190
     22  C         17.2620  -22.6080   -7.6640 C.2     1  UNL1        0.0300
     23  C         14.8420  -22.1540   -4.8060 C.2     1  UNL1        0.2490
     24  N         13.7660  -21.6620   -5.4900 N.am    1  UNL1       -0.3660
     25  H         12.9560  -21.4310   -4.9270 H       1  UNL1        0.1590
     26  H         13.6080  -21.8640   -6.4660 H       1  UNL1        0.1590
     27  O         14.8420  -22.1920   -3.5820 O.2     1  UNL1       -0.2680
     28  C         20.9760  -22.4090  -10.8120 C.2     1  UNL1        0.0460
     29  C         21.3900  -21.2440  -11.4640 C.2     1  UNL1        0.0300
     30  C         20.4430  -20.3740  -12.0050 C.2     1  UNL1        0.0030
     31  C         19.0810  -20.6490  -11.8690 C.2     1  UNL1        0.0070
     32  C         18.6530  -21.7860  -11.1750 C.2     1  UNL1       -0.0600
     33  C         17.1920  -22.0990  -11.0490 C.3     1  UNL1        0.0480
     34  C         19.6110  -22.6630  -10.6490 C.2     1  UNL1        0.0370
@<TRIPOS>BOND
     1     9     8    1
     2     8     7    2
     3     8    10    1
     4     7     6    1
     5    10    11    2
     6     6     5    2
     7    30    31    2
     8    30    29    1
     9    31    32    1
    10    29    28    2
    11    11     5    1
    12     5     2    1
    13    32    33    1
    14    32    34    2
    15    28    34    1
    16    28     1    1
    17     1     2    1
    18     1    12    1
    19     2     4    2
    20     2     3    2
    21    12    13    1
    22    16    15    1
    23    13    15   am
    24    13    14    2
    25    15    17    1
    26    22    17    2
    27    22    21    1
    28    17    18    1
    29    21    20    2
    30    26    24    1
    31    18    19    2
    32    20    19    1
    33    20    23    1
    34    24    25    1
    35    24    23   am
    36    23    27    2
