@<TRIPOS>MOLECULE
61400_out_ligand_01.pdbqt
 33 36 0 0 0
SMALL
GASTEIGER

@<TRIPOS>ATOM
      1  C         19.7430  -22.5930  -10.1640 C.2     1  UNL1        0.0540
      2  C         18.7640  -21.6960  -10.6180 C.2     1  UNL1        0.0190
      3  C         19.0410  -20.8370  -11.6850 C.2     1  UNL1        0.0010
      4  C         20.2930  -20.8640  -12.2950 C.2     1  UNL1        0.0020
      5  C         21.2770  -21.7430  -11.8380 C.2     1  UNL1        0.0250
      6  C         21.0120  -22.6010  -10.7670 C.2     1  UNL1        0.0380
      7  N         22.0290  -23.5330  -10.3640 N.pl3   1  UNL1       -0.1800
      8  H         22.3740  -24.1190  -11.1400 H       1  UNL1        0.1460
      9  S         23.3790  -22.8810   -9.5670 S.O2    1  UNL1        0.2450
     10  O         24.0290  -23.9240   -8.8010 O.2     1  UNL1       -0.2060
     11  O         22.9480  -21.6470   -8.9470 O.2     1  UNL1       -0.2060
     12  C         24.4300  -22.4300  -10.9250 C.2     1  UNL1        0.0750
     13  C         25.1970  -21.2660  -10.8320 C.2     1  UNL1        0.0260
     14  C         25.9960  -20.8850  -11.9110 C.2     1  UNL1        0.0140
     15  C         26.0390  -21.6600  -13.0820 C.2     1  UNL1       -0.0260
     16  C         26.8320  -21.2830  -14.1770 C.2     1  UNL1        0.0120
     17  C         25.2670  -22.8470  -13.1620 C.2     1  UNL1       -0.0250
     18  C         26.8630  -22.0580  -15.3370 C.2     1  UNL1        0.0010
     19  C         26.1040  -23.2230  -15.4160 C.2     1  UNL1        0.0010
     20  C         25.3120  -23.6170  -14.3350 C.2     1  UNL1        0.0120
     21  C         24.4690  -23.2260  -12.0740 C.2     1  UNL1        0.0370
     22  C         19.4610  -23.4980   -9.0180 C.2     1  UNL1        0.2540
     23  N         18.4940  -23.0790   -8.1350 N.am    1  UNL1       -0.3490
     24  H         17.8860  -22.3170   -8.4010 H       1  UNL1        0.1630
     25  O         20.0630  -24.5620   -8.9180 O.2     1  UNL1       -0.2680
     26  C         18.0470  -23.9090   -7.0280 C.3     1  UNL1        0.1140
     27  C         16.6510  -24.4760   -7.3010 C.3     1  UNL1        0.0370
     28  C         18.1570  -23.0980   -5.7480 C.2     1  UNL1       -0.0360
     29  C         18.7110  -21.8080   -5.8070 C.2     1  UNL1        0.0090
     30  C         18.7890  -21.0100   -4.6640 C.2     1  UNL1        0.0010
     31  C         18.3070  -21.4850   -3.4480 C.2     1  UNL1        0.0000
     32  C         17.7460  -22.7570   -3.3730 C.2     1  UNL1        0.0010
     33  C         17.6660  -23.5550   -4.5160 C.2     1  UNL1        0.0090
@<TRIPOS>BOND
     1    19    18    2
     2    19    20    1
     3    18    16    1
     4    20    17    2
     5    16    15    2
     6    17    15    1
     7    17    21    1
     8    15    14    1
     9     4     5    2
    10     4     3    1
    11    21    12    2
    12    14    13    2
    13     5     6    1
    14     3     2    2
    15     8     7    1
    16    12    13    1
    17    12     9    1
    18     6     7    1
    19     6     1    2
    20     2     1    1
    21     7     9    1
    22     1    22    1
    23     9    11    2
    24     9    10    2
    25    22    25    2
    26    22    23   am
    27    24    23    1
    28    23    26    1
    29    27    26    1
    30    26    28    1
    31    29    28    2
    32    29    30    1
    33    28    33    1
    34    30    31    2
    35    33    32    2
    36    31    32    1
