@<TRIPOS>MOLECULE
61405_out_ligand_01.pdbqt
 35 38 0 0 0
SMALL
GASTEIGER

@<TRIPOS>ATOM
      1  C         21.2900  -22.0940  -11.1210 C.2     1  UNL1        0.0340
      2  C         20.1970  -21.3270  -11.5310 C.2     1  UNL1        0.0310
      3  C         18.9140  -21.6030  -11.0460 C.2     1  UNL1        0.0270
      4  C         18.7290  -22.6460  -10.1370 C.2     1  UNL1        0.0800
      5  C         19.8050  -23.4480   -9.7510 C.2     1  UNL1        0.0270
      6  C         21.0810  -23.1650  -10.2390 C.2     1  UNL1        0.0310
      7  S         17.1070  -22.9740   -9.4850 S.O2    1  UNL1        0.2630
      8  O         16.5800  -21.7260   -8.9770 O.2     1  UNL1       -0.2000
      9  O         16.3790  -23.7460  -10.4660 O.2     1  UNL1       -0.2000
     10  N         17.4140  -23.9310   -8.1300 N.pl3   1  UNL1       -0.2800
     11  H         17.3960  -24.9270   -8.3420 H       1  UNL1        0.1790
     12  C         16.9250  -23.5090   -6.8550 C.2     1  UNL1        0.0530
     13  C         15.7410  -24.0850   -6.3850 C.2     1  UNL1        0.0310
     14  C         15.2490  -23.7470   -5.1300 C.2     1  UNL1        0.0030
     15  C         15.9390  -22.8340   -4.3390 C.2     1  UNL1        0.0120
     16  C         17.1330  -22.2460   -4.7840 C.2     1  UNL1       -0.0240
     17  C         17.8190  -21.3330   -3.9670 C.2     1  UNL1        0.0120
     18  C         17.6480  -22.5790   -6.0620 C.2     1  UNL1        0.0010
     19  C         19.0130  -20.7490   -4.3870 C.2     1  UNL1        0.0010
     20  C         19.5370  -21.0680   -5.6320 C.2     1  UNL1        0.0010
     21  C         18.8620  -21.9690   -6.4600 C.2     1  UNL1        0.0140
     22  N         22.6140  -21.8670  -11.5420 N.am    1  UNL1       -0.3270
     23  C         23.7050  -21.5320  -10.7640 C.2     1  UNL1        0.2260
     24  O         23.7160  -21.3790   -9.5450 O.2     1  UNL1       -0.2730
     25  H         22.8000  -22.0600  -12.5270 H       1  UNL1        0.1690
     26  C         24.9900  -21.3860  -11.5700 C.3     1  UNL1        0.1440
     27  C         24.9960  -22.2510  -12.8130 C.2     1  UNL1       -0.0160
     28  C         25.4610  -23.5730  -12.6900 C.2     1  UNL1        0.0100
     29  C         25.5130  -24.4290  -13.7940 C.2     1  UNL1        0.0010
     30  C         25.1000  -23.9850  -15.0490 C.2     1  UNL1        0.0020
     31  C         24.6250  -22.6840  -15.2010 C.2     1  UNL1        0.0370
     32  C         24.5680  -21.8300  -14.0870 C.2     1  UNL1        0.1090
     33  N         24.0320  -20.4900  -14.3120 N.pl3   1  UNL1       -0.1150
     34  O         24.8440  -19.5690  -14.4580 O.2     1  UNL1       -0.5320
     35  O         22.7990  -20.3670  -14.3530 O.2     1  UNL1       -0.5320
@<TRIPOS>BOND
     1    31    30    2
     2    31    32    1
     3    30    29    1
     4    34    33    2
     5    35    33    2
     6    33    32    1
     7    32    27    2
     8    29    28    2
     9    27    28    1
    10    27    26    1
    11    25    22    1
    12    26    23    1
    13    22     1    1
    14    22    23   am
    15     2     1    2
    16     2     3    1
    17     1     6    1
    18     3     4    2
    19    23    24    2
    20     9     7    2
    21     6     5    2
    22     4     5    1
    23     4     7    1
    24     7     8    2
    25     7    10    1
    26    11    10    1
    27    10    12    1
    28    12    13    2
    29    12    18    1
    30    21    18    1
    31    21    20    2
    32    13    14    1
    33    18    16    2
    34    20    19    1
    35    14    15    2
    36    16    15    1
    37    16    17    1
    38    19    17    2
