@<TRIPOS>MOLECULE
61442_out_ligand_01.pdbqt
 33 35 0 0 0
SMALL
GASTEIGER

@<TRIPOS>ATOM
      1  C         22.2890  -21.7650  -12.2440 C.2     1  UNL1        0.0330
      2  C         21.1650  -21.1280  -12.7720 C.2     1  UNL1        0.0170
      3  C         19.9250  -21.2730  -12.1440 C.2     1  UNL1        0.0090
      4  C         19.7730  -22.0690  -10.9920 C.2     1  UNL1       -0.0390
      5  C         18.4060  -22.1510  -10.3730 C.3     1  UNL1        0.0500
      6  C         20.9080  -22.7340  -10.4900 C.2     1  UNL1        0.0860
      7  C         22.1600  -22.5650  -11.1060 C.2     1  UNL1        0.0420
      8  C         23.6280  -21.6590  -12.8850 C.2     1  UNL1        0.2560
      9  N         23.6680  -20.8750  -14.0170 N.am    1  UNL1       -0.3210
     10  H         22.8340  -20.3610  -14.2830 H       1  UNL1        0.1690
     11  O         24.5660  -22.2420  -12.3530 O.2     1  UNL1       -0.2670
     12  C         24.7750  -20.5980  -14.8500 C.2     1  UNL1        0.0680
     13  C         25.7460  -19.6390  -14.5500 C.2     1  UNL1        0.0320
     14  C         26.8150  -19.4270  -15.4220 C.2     1  UNL1        0.0020
     15  C         26.9210  -20.1720  -16.5930 C.2     1  UNL1        0.0030
     16  C         25.9580  -21.1330  -16.9040 C.2     1  UNL1        0.0390
     17  C         24.8790  -21.3490  -16.0420 C.2     1  UNL1        0.0950
     18  O         23.8790  -22.2740  -16.2400 O.2     1  UNL1       -0.3490
     19  C         24.1810  -23.4640  -16.9700 C.3     1  UNL1        0.1710
     20  C         23.2400  -23.6180  -18.1510 C.3     1  UNL1        0.0340
     21  S         20.8930  -23.8030   -9.0540 S.O2    1  UNL1        0.2630
     22  O         22.2230  -24.3040   -8.7900 O.2     1  UNL1       -0.2000
     23  O         19.7880  -24.7240   -9.2340 O.2     1  UNL1       -0.2000
     24  N         20.4310  -22.7650   -7.8060 N.pl3   1  UNL1       -0.2800
     25  H         21.2310  -22.3590   -7.3270 H       1  UNL1        0.1790
     26  C         19.2370  -23.0020   -7.0640 C.2     1  UNL1        0.0480
     27  C         18.4700  -24.1370   -7.3360 C.2     1  UNL1        0.0310
     28  C         17.3100  -24.4060   -6.6060 C.2     1  UNL1        0.0090
     29  C         16.9030  -23.5420   -5.5880 C.2     1  UNL1       -0.0610
     30  C         15.6460  -23.8110   -4.8140 C.3     1  UNL1        0.0480
     31  C         17.6510  -22.3820   -5.3430 C.2     1  UNL1        0.0150
     32  C         18.8120  -22.0910   -6.0820 C.2     1  UNL1       -0.0340
     33  C         19.5670  -20.8310   -5.7580 C.3     1  UNL1        0.0500
@<TRIPOS>BOND
     1    20    19    1
     2    19    18    1
     3    16    15    2
     4    16    17    1
     5    15    14    1
     6    18    17    1
     7    17    12    2
     8    14    13    2
     9    12    13    1
    10    12     9    1
    11    10     9    1
    12     9     8   am
    13     8    11    2
    14     8     1    1
    15     2     1    2
    16     2     3    1
    17     1     7    1
    18     3     4    2
    19     7     6    2
    20     4     6    1
    21     4     5    1
    22     6    21    1
    23    23    21    2
    24    21    22    2
    25    21    24    1
    26    24    25    1
    27    24    26    1
    28    27    26    2
    29    27    28    1
    30    26    32    1
    31    28    29    2
    32    32    33    1
    33    32    31    2
    34    29    31    1
    35    29    30    1
