@<TRIPOS>MOLECULE
61446_out_ligand_01.pdbqt
 34 37 0 0 0
SMALL
GASTEIGER

@<TRIPOS>ATOM
      1  N         20.4100  -22.7190  -10.0950 N.ar    1  UNL1       -0.3050
      2  C         21.5970  -22.5070  -10.7570 C.ar    1  UNL1        0.1920
      3  N         21.3750  -21.9100  -11.9030 N.ar    1  UNL1       -0.1220
      4  N         20.0300  -21.7140  -12.0170 N.ar    1  UNL1       -0.1320
      5  C         19.4430  -22.1940  -10.9330 C.ar    1  UNL1        0.1530
      6  S         23.1590  -22.9480  -10.1590 S.3     1  UNL1       -0.0830
      7  C         24.1810  -21.6680  -10.9510 C.3     1  UNL1        0.1610
      8  C         24.4890  -22.0980  -12.3690 C.ar    1  UNL1        0.1170
      9  N         24.4910  -21.2390  -13.3390 N.ar    1  UNL1       -0.2340
     10  C         24.7920  -21.7030  -14.6300 C.ar    1  UNL1        0.0740
     11  C         24.8260  -20.7880  -15.6850 C.2     1  UNL1        0.0320
     12  C         25.0580  -23.0480  -14.9050 C.ar    1  UNL1        0.0610
     13  C         25.1160  -21.2130  -16.9860 C.2     1  UNL1        0.0020
     14  C         25.3720  -22.5620  -17.2440 C.2     1  UNL1        0.0010
     15  C         25.3460  -23.4870  -16.2010 C.2     1  UNL1        0.0190
     16  C         25.0270  -23.9890  -13.7720 C.ar    1  UNL1        0.2590
     17  O         25.2090  -25.1930  -13.9120 O.2     1  UNL1       -0.2670
     18  N         24.7710  -23.4310  -12.5470 N.ar    1  UNL1       -0.3100
     19  H         24.7140  -24.0790  -11.7720 H       1  UNL1        0.1700
     20  C         20.2430  -23.3460   -8.7890 C.3     1  UNL1        0.0850
     21  C         20.6360  -24.8240   -8.7930 C.3     1  UNL1        0.0320
     22  C         20.9030  -22.5700   -7.6470 C.3     1  UNL1        0.0320
     23  C         17.9660  -22.1370  -10.6870 C.3     1  UNL1        0.1520
     24  C         17.3610  -20.8760  -11.3040 C.3     1  UNL1        0.0400
     25  N         17.7760  -22.1390   -9.2460 N.am    1  UNL1       -0.3460
     26  C         16.6440  -22.6570   -8.6640 C.2     1  UNL1        0.2520
     27  O         15.7720  -23.2300   -9.3080 O.2     1  UNL1       -0.2680
     28  H         18.5030  -21.6980   -8.6950 H       1  UNL1        0.1630
     29  C         16.5230  -22.5240   -7.1840 C.2     1  UNL1        0.0320
     30  C         17.6330  -22.3180   -6.3530 C.2     1  UNL1        0.0170
     31  C         17.4590  -22.2000   -4.9710 C.2     1  UNL1        0.0010
     32  C         16.1820  -22.2760   -4.4150 C.2     1  UNL1        0.0000
     33  C         15.0730  -22.4650   -5.2380 C.2     1  UNL1        0.0010
     34  C         15.2410  -22.5840   -6.6190 C.2     1  UNL1        0.0170
@<TRIPOS>BOND
     1    14    13    2
     2    14    15    1
     3    13    11    1
     4    15    12    2
     5    11    10    2
     6    12    10   ar
     7    12    16   ar
     8    10     9   ar
     9    17    16    2
    10    16    18   ar
    11     9     8   ar
    12    18     8   ar
    13    18    19    1
    14     8     7    1
    15     4     3   ar
    16     4     5   ar
    17     3     2   ar
    18    24    23    1
    19     7     6    1
    20     5    23    1
    21     5     1   ar
    22     2     6    1
    23     2     1   ar
    24    23    25    1
    25     1    20    1
    26    27    26    2
    27    25    28    1
    28    25    26   am
    29    21    20    1
    30    20    22    1
    31    26    29    1
    32    29    34    2
    33    29    30    1
    34    34    33    1
    35    30    31    2
    36    33    32    2
    37    31    32    1
