@<TRIPOS>MOLECULE
61462_out_ligand_01.pdbqt
 31 35 0 0 0
SMALL
GASTEIGER

@<TRIPOS>ATOM
      1  N         20.2800  -22.6760   -9.2920 N.am    1  UNL1       -0.2440
      2  C         19.8940  -21.9250  -10.3870 C.2     1  UNL1        0.2660
      3  O         18.8590  -21.3420  -10.6530 O.2     1  UNL1       -0.2670
      4  C         21.0170  -21.9020  -11.3180 C.2     1  UNL1        0.0480
      5  C         21.1460  -21.2850  -12.5490 C.2     1  UNL1        0.0210
      6  C         22.3650  -21.4370  -13.2180 C.2     1  UNL1        0.0380
      7  C         23.4040  -22.2090  -12.6510 C.2     1  UNL1        0.0770
      8  C         23.2530  -22.8050  -11.3970 C.2     1  UNL1        0.0550
      9  C         22.0380  -22.6350  -10.7600 C.2     1  UNL1        0.0510
     10  C         21.5730  -23.1320   -9.4690 C.2     1  UNL1        0.2660
     11  O         22.2990  -23.8200   -8.7750 O.2     1  UNL1       -0.2670
     12  C         19.4570  -22.9420   -8.1470 C.2     1  UNL1        0.0470
     13  C         19.4130  -22.0520   -7.0560 C.2     1  UNL1        0.0480
     14  C         18.6000  -22.3610   -5.9760 C.2     1  UNL1        0.0500
     15  C         18.3620  -21.6300   -4.7300 C.2     1  UNL1        0.2590
     16  C         17.8340  -23.5070   -5.9320 C.2     1  UNL1        0.0480
     17  N         17.4760  -22.3730   -4.0120 N.am    1  UNL1       -0.2890
     18  O         18.8700  -20.5720   -4.4220 O.2     1  UNL1       -0.2670
     19  C         17.1090  -23.5110   -4.6630 C.2     1  UNL1        0.2590
     20  H         17.1290  -22.1090   -3.1040 H       1  UNL1        0.1720
     21  O         16.3400  -24.3740   -4.2920 O.2     1  UNL1       -0.2670
     22  C         17.8390  -24.4100   -6.9680 C.2     1  UNL1        0.0200
     23  C         18.6560  -24.1160   -8.0730 C.2     1  UNL1        0.0310
     24  O         24.6330  -22.3510  -13.2570 O.2     1  UNL1       -0.3110
     25  C         25.2400  -21.2080  -13.7250 C.2     1  UNL1        0.0760
     26  C         25.8960  -20.3080  -12.8810 C.2     1  UNL1        0.0380
     27  C         26.4620  -19.1470  -13.4120 C.2     1  UNL1        0.0220
     28  C         26.3540  -18.8880  -14.7780 C.2     1  UNL1        0.0110
     29 BR         27.1200  -17.3150  -15.4970 Br      1  UNL1       -0.0510
     30  C         25.6790  -19.7730  -15.6180 C.2     1  UNL1        0.0220
     31  C         25.1130  -20.9330  -15.0880 C.2     1  UNL1        0.0380
@<TRIPOS>BOND
     1    30    31    1
     2    30    28    2
     3    29    28    1
     4    31    25    2
     5    28    27    1
     6    25    24    1
     7    25    26    1
     8    27    26    2
     9    24     7    1
    10     6     7    2
    11     6     5    1
    12     7     8    1
    13     5     4    2
    14     8     9    2
    15     4     9    1
    16     4     2    1
    17     9    10    1
    18     3     2    2
    19     2     1   am
    20    10     1   am
    21    10    11    2
    22     1    12    1
    23    12    23    2
    24    12    13    1
    25    23    22    1
    26    13    14    2
    27    22    16    2
    28    14    16    1
    29    14    15    1
    30    16    19    1
    31    15    18    2
    32    15    17   am
    33    19    21    2
    34    19    17   am
    35    17    20    1
