@<TRIPOS>MOLECULE
61467_out_ligand_01.pdbqt
 32 34 0 0 0
SMALL
GASTEIGER

@<TRIPOS>ATOM
      1  C         20.4770  -23.1080   -9.9720 C.2     1  UNL1        0.0330
      2  C         20.9910  -24.0300   -9.0570 C.2     1  UNL1        0.0170
      3  C         20.1460  -24.6180   -8.1110 C.2     1  UNL1        0.0090
      4  C         18.7780  -24.2920   -8.0500 C.2     1  UNL1       -0.0390
      5  C         17.9420  -24.9700   -6.9990 C.3     1  UNL1        0.0500
      6  C         18.2740  -23.3520   -8.9690 C.2     1  UNL1        0.0860
      7  C         19.1230  -22.7640   -9.9230 C.2     1  UNL1        0.0420
      8  S         16.5610  -22.8450   -9.0280 S.O2    1  UNL1        0.2630
      9  O         15.6920  -23.9500   -8.6930 O.2     1  UNL1       -0.2000
     10  O         16.3780  -22.1340  -10.2780 O.2     1  UNL1       -0.2000
     11  N         16.4850  -21.6740   -7.8170 N.pl3   1  UNL1       -0.2800
     12  H         15.9860  -20.8370   -8.1140 H       1  UNL1        0.1790
     13  C         16.3590  -22.0910   -6.4640 C.2     1  UNL1        0.0490
     14  C         15.1250  -22.6130   -6.0710 C.2     1  UNL1        0.0310
     15  C         14.9190  -23.0100   -4.7540 C.2     1  UNL1        0.0030
     16  C         15.9470  -22.8780   -3.8240 C.2     1  UNL1        0.0070
     17  C         17.1940  -22.3500   -4.2000 C.2     1  UNL1       -0.0540
     18  C         18.2690  -22.2230   -3.1530 C.3     1  UNL1        0.0490
     19  C         17.4180  -21.9690   -5.5440 C.2     1  UNL1       -0.0290
     20  C         18.7510  -21.3930   -5.9490 C.3     1  UNL1        0.0510
     21  C         21.3460  -22.4450  -10.9810 C.2     1  UNL1        0.2560
     22  N         22.7020  -22.6290  -10.7840 N.am    1  UNL1       -0.3230
     23  H         22.9760  -23.2740  -10.0550 H       1  UNL1        0.1690
     24  O         20.8010  -21.8310  -11.8900 O.2     1  UNL1       -0.2670
     25  C         23.7590  -22.0910  -11.5470 C.2     1  UNL1        0.0350
     26  C         24.7800  -21.4370  -10.8500 C.2     1  UNL1        0.0300
     27  C         25.8580  -20.8700  -11.5320 C.2     1  UNL1        0.0090
     28  C         25.9400  -20.9410  -12.9290 C.2     1  UNL1       -0.0560
     29  C         27.1170  -20.3220  -13.6330 C.3     1  UNL1        0.0490
     30  C         24.9180  -21.5970  -13.6400 C.2     1  UNL1       -0.0540
     31  C         23.8360  -22.1620  -12.9390 C.2     1  UNL1        0.0370
     32  C         24.9520  -21.7040  -15.1410 C.3     1  UNL1        0.0490
@<TRIPOS>BOND
     1    32    30    1
     2    30    31    1
     3    30    28    2
     4    29    28    1
     5    31    25    2
     6    28    27    1
     7    24    21    2
     8    25    26    1
     9    25    22    1
    10    27    26    2
    11    21    22   am
    12    21     1    1
    13    22    23    1
    14    10     8    2
    15     1     7    2
    16     1     2    1
    17     7     6    1
    18     2     3    2
    19     8     6    1
    20     8     9    2
    21     8    11    1
    22     6     4    2
    23    12    11    1
    24     3     4    1
    25     4     5    1
    26    11    13    1
    27    13    14    2
    28    13    19    1
    29    14    15    1
    30    20    19    1
    31    19    17    2
    32    15    16    2
    33    17    16    1
    34    17    18    1
