@<TRIPOS>MOLECULE
61479_out_ligand_01.pdbqt
 35 39 0 0 0
SMALL
GASTEIGER

@<TRIPOS>ATOM
      1  O         19.4580  -21.0630  -11.0940 O.2     1  UNL1       -0.2670
      2  C         19.7420  -22.1350  -10.5730 C.2     1  UNL1        0.2560
      3  N         20.8920  -22.8790  -10.7730 N.am    1  UNL1       -0.3230
      4  H         20.8940  -23.8170  -10.3950 H       1  UNL1        0.1690
      5  C         18.7450  -22.7720   -9.6700 C.2     1  UNL1        0.0320
      6  C         17.3710  -22.6990   -9.9300 C.2     1  UNL1        0.0170
      7  C         16.4640  -23.2890   -9.0470 C.2     1  UNL1        0.0100
      8  C         16.9180  -23.9590   -7.9000 C.2     1  UNL1       -0.0300
      9  C         18.2980  -24.0490   -7.6630 C.2     1  UNL1        0.0100
     10  C         19.2080  -23.4640   -8.5460 C.2     1  UNL1        0.0170
     11  C         15.9280  -24.5750   -6.9290 C.3     1  UNL1        0.3110
     12  N         15.0640  -23.5750   -6.2820 N.3     1  UNL1        0.0970
     13  C         14.7040  -23.9630   -4.9090 C.3     1  UNL1        0.2770
     14  C         15.8820  -24.0100   -3.9230 C.3     1  UNL1        0.0690
     15  C         16.8480  -22.8640   -4.0980 C.2     1  UNL1       -0.0490
     16  C         17.8600  -22.6490   -3.1530 C.2     1  UNL1        0.0070
     17  C         16.7860  -22.0550   -5.2460 C.2     1  UNL1       -0.0240
     18  C         18.7970  -21.6360   -3.3410 C.2     1  UNL1        0.0010
     19  C         18.7340  -20.8290   -4.4750 C.2     1  UNL1        0.0010
     20  C         17.7300  -21.0350   -5.4210 C.2     1  UNL1        0.0090
     21  C         15.6700  -22.2310   -6.2560 C.3     1  UNL1        0.3110
     22  C         22.0190  -22.5170  -11.5400 C.2     1  UNL1        0.0350
     23  C         23.3290  -22.8870  -11.2180 C.2     1  UNL1        0.0310
     24  C         24.4000  -22.4990  -12.0310 C.2     1  UNL1        0.0270
     25  C         24.1650  -21.7120  -13.1590 C.2     1  UNL1        0.0790
     26  C         22.8600  -21.3600  -13.5100 C.2     1  UNL1        0.0270
     27  C         21.7930  -21.7610  -12.6990 C.2     1  UNL1        0.0310
     28  S         25.5210  -21.2410  -14.2150 S.O2    1  UNL1        0.2600
     29  O         25.7810  -19.8360  -13.9860 O.2     1  UNL1       -0.2000
     30  O         26.5610  -22.2340  -14.0430 O.2     1  UNL1       -0.2000
     31  N         24.8980  -21.4110  -15.7680 N.3     1  UNL1       -0.3070
     32  C         25.2670  -20.4390  -16.8140 C.3     1  UNL1        0.1350
     33  C         24.8630  -21.1330  -18.1080 C.3     1  UNL1        0.0220
     34  C         25.1950  -22.5850  -17.8120 C.3     1  UNL1        0.0220
     35  C         24.7500  -22.7550  -16.3640 C.3     1  UNL1        0.1350
@<TRIPOS>BOND
     1    33    34    1
     2    33    32    1
     3    34    35    1
     4    32    31    1
     5    35    31    1
     6    31    28    1
     7    28    30    2
     8    28    29    2
     9    28    25    1
    10    26    25    2
    11    26    27    1
    12    25    24    1
    13    27    22    2
    14    24    23    2
    15    22    23    1
    16    22     3    1
    17     1     2    2
    18     3     2   am
    19     3     4    1
    20     2     5    1
    21     6     5    2
    22     6     7    1
    23     5    10    1
    24     7     8    2
    25    10     9    2
    26     8     9    1
    27     8    11    1
    28    11    12    1
    29    12    21    1
    30    12    13    1
    31    21    17    1
    32    20    17    1
    33    20    19    2
    34    17    15    2
    35    13    14    1
    36    19    18    1
    37    15    14    1
    38    15    16    1
    39    18    16    2
