@<TRIPOS>MOLECULE
61474_out_ligand_01.pdbqt
 34 36 0 0 0
SMALL
GASTEIGER

@<TRIPOS>ATOM
      1  C         17.5560  -23.3990   -8.8290 C.2     1  UNL1        0.0810
      2  C         18.9490  -23.5620   -8.8970 C.2     1  UNL1        0.0420
      3  C         19.6750  -22.9540   -9.9240 C.2     1  UNL1        0.0330
      4  C         19.0170  -22.1780  -10.8810 C.2     1  UNL1        0.0170
      5  C         17.6310  -22.0180  -10.8130 C.2     1  UNL1        0.0090
      6  C         16.8790  -22.6160   -9.7860 C.2     1  UNL1       -0.0390
      7  C         15.3920  -22.3950   -9.7730 C.3     1  UNL1        0.0500
      8  C         21.1540  -23.1050   -9.9380 C.2     1  UNL1        0.2560
      9  O         21.6730  -23.7480   -9.0350 O.2     1  UNL1       -0.2670
     10  N         21.7880  -22.5120  -11.0130 N.am    1  UNL1       -0.3230
     11  H         21.1960  -22.1640  -11.7580 H       1  UNL1        0.1690
     12  C         23.1770  -22.4260  -11.2410 C.2     1  UNL1        0.0350
     13  C         23.9010  -21.5260  -10.4500 C.2     1  UNL1        0.0290
     14  C         25.2820  -21.3890  -10.6080 C.2     1  UNL1        0.0030
     15  C         25.9550  -22.1600  -11.5540 C.2     1  UNL1        0.0160
     16  C         25.2530  -23.0810  -12.3460 C.2     1  UNL1        0.0500
     17  C         23.8600  -23.1980  -12.1850 C.2     1  UNL1        0.0450
     18  C         25.9680  -23.9160  -13.3800 C.3     1  UNL1        0.4170
     19  F         26.9790  -24.6640  -12.8560 F       1  UNL1       -0.1660
     20  F         26.5400  -23.1690  -14.3680 F       1  UNL1       -0.1660
     21  F         25.1370  -24.7900  -14.0110 F       1  UNL1       -0.1660
     22  S         16.6970  -24.2260   -7.4920 S.O2    1  UNL1        0.2460
     23  O         15.6210  -25.0020   -8.0650 O.2     1  UNL1       -0.2060
     24  O         17.6970  -24.8380   -6.6440 O.2     1  UNL1       -0.2060
     25  N         16.0860  -22.8740   -6.6510 N.pl3   1  UNL1       -0.1810
     26  H         15.8930  -22.1410   -7.3340 H       1  UNL1        0.1460
     27  C         16.9260  -22.4020   -5.5840 C.2     1  UNL1        0.0290
     28  C         16.6490  -22.6960   -4.2390 C.2     1  UNL1       -0.0400
     29  C         17.4860  -22.1540   -3.2500 C.2     1  UNL1        0.0090
     30  C         15.4660  -23.5200   -3.8070 C.3     1  UNL1        0.0500
     31  C         18.5790  -21.3520   -3.5920 C.2     1  UNL1        0.0070
     32  C         18.8590  -21.0690   -4.9330 C.2     1  UNL1       -0.0600
     33  C         20.0020  -20.1700   -5.3020 C.3     1  UNL1        0.0480
     34  C         18.0140  -21.5870   -5.9220 C.2     1  UNL1        0.0310
@<TRIPOS>BOND
     1    20    18    1
     2    21    18    1
     3    18    19    1
     4    18    16    1
     5    16    17    1
     6    16    15    2
     7    17    12    2
     8    11    10    1
     9    15    14    1
    10    12    10    1
    11    12    13    1
    12    10     8   am
    13     4     5    2
    14     4     3    1
    15     5     6    1
    16    14    13    2
    17     8     3    1
    18     8     9    2
    19     3     2    2
    20     6     7    1
    21     6     1    2
    22     2     1    1
    23     1    22    1
    24    23    22    2
    25    22    25    1
    26    22    24    2
    27    26    25    1
    28    25    27    1
    29    34    27    2
    30    34    32    1
    31    27    28    1
    32    33    32    1
    33    32    31    2
    34    28    30    1
    35    28    29    2
    36    31    29    1
