@<TRIPOS>MOLECULE
61470_out_ligand_01.pdbqt
 29 31 0 0 0
SMALL
GASTEIGER

@<TRIPOS>ATOM
      1  N         23.2540  -23.3320  -11.1880 N.pl3   1  UNL1       -0.1800
      2  H         23.1140  -24.3540  -11.1700 H       1  UNL1        0.1460
      3  C         24.2600  -22.9160  -12.1240 C.2     1  UNL1        0.0380
      4  C         25.5290  -23.4950  -12.0420 C.2     1  UNL1        0.0250
      5  C         26.5060  -23.1810  -12.9880 C.2     1  UNL1        0.0020
      6  C         26.2200  -22.2900  -14.0230 C.2     1  UNL1        0.0010
      7  C         24.9530  -21.7120  -14.1180 C.2     1  UNL1        0.0190
      8  C         23.9650  -22.0320  -13.1770 C.2     1  UNL1        0.0540
      9  C         22.6210  -21.4060  -13.2580 C.2     1  UNL1        0.2530
     10  N         21.7400  -21.7240  -12.2440 N.am    1  UNL1       -0.3570
     11  H         22.1480  -22.0700  -11.3850 H       1  UNL1        0.1620
     12  O         22.3670  -20.6300  -14.1750 O.2     1  UNL1       -0.2680
     13  C         20.4790  -21.0160  -12.1310 C.3     1  UNL1        0.1230
     14  C         19.4990  -21.7360  -11.2090 C.3     1  UNL1        0.0190
     15  C         18.0570  -21.2680  -11.4120 C.3     1  UNL1       -0.0030
     16  C         17.1350  -21.8280  -10.3390 C.3     1  UNL1        0.0050
     17  S         23.4710  -22.8130   -9.5830 S.O2    1  UNL1        0.2450
     18  O         24.4140  -23.7230   -8.9680 O.2     1  UNL1       -0.2060
     19  O         23.6910  -21.3810   -9.5700 O.2     1  UNL1       -0.2060
     20  C         21.8840  -23.1520   -8.8650 C.2     1  UNL1        0.0750
     21  C         21.2150  -24.3250   -9.2160 C.2     1  UNL1        0.0260
     22  C         19.9650  -24.5950   -8.6590 C.2     1  UNL1        0.0140
     23  C         19.3790  -23.7020   -7.7450 C.2     1  UNL1       -0.0260
     24  C         18.1200  -23.9590   -7.1790 C.2     1  UNL1        0.0120
     25  C         20.0700  -22.5200   -7.3850 C.2     1  UNL1       -0.0250
     26  C         17.5500  -23.0650   -6.2720 C.2     1  UNL1        0.0010
     27  C         18.2300  -21.9040   -5.9170 C.2     1  UNL1        0.0010
     28  C         19.4830  -21.6320   -6.4690 C.2     1  UNL1        0.0120
     29  C         21.3280  -22.2560   -7.9470 C.2     1  UNL1        0.0370
@<TRIPOS>BOND
     1    12     9    2
     2     7     6    2
     3     7     8    1
     4     6     5    1
     5     9     8    1
     6     9    10   am
     7     8     3    2
     8     5     4    2
     9    10    13    1
    10    10    11    1
    11    13    14    1
    12     3     4    1
    13     3     1    1
    14    15    14    1
    15    15    16    1
    16     1     2    1
    17     1    17    1
    18    17    19    2
    19    17    18    2
    20    17    20    1
    21    21    20    2
    22    21    22    1
    23    20    29    1
    24    22    23    2
    25    29    25    2
    26    23    25    1
    27    23    24    1
    28    25    28    1
    29    24    26    2
    30    28    27    2
    31    26    27    1
