@<TRIPOS>MOLECULE
61471_out_ligand_01.pdbqt
 32 34 0 0 0
SMALL
GASTEIGER

@<TRIPOS>ATOM
      1  C         17.5360  -22.9720   -9.0920 C.2     1  UNL1        0.0860
      2  C         18.9270  -22.9620   -9.2930 C.2     1  UNL1        0.0420
      3  C         19.4820  -22.2210  -10.3390 C.2     1  UNL1        0.0330
      4  C         18.6460  -21.5310  -11.2200 C.2     1  UNL1        0.0170
      5  C         17.2610  -21.5600  -11.0340 C.2     1  UNL1        0.0090
      6  C         16.6830  -22.2660   -9.9640 C.2     1  UNL1       -0.0390
      7  C         15.1850  -22.2590   -9.8440 C.3     1  UNL1        0.0500
      8  C         20.9620  -22.2100  -10.5010 C.2     1  UNL1        0.2560
      9  O         21.6530  -22.1820   -9.4920 O.2     1  UNL1       -0.2670
     10  N         21.3940  -22.1950  -11.8140 N.am    1  UNL1       -0.3230
     11  H         20.6880  -22.0880  -12.5300 H       1  UNL1        0.1690
     12  C         22.7270  -22.2140  -12.2760 C.2     1  UNL1        0.0350
     13  C         23.0230  -21.4500  -13.4100 C.2     1  UNL1        0.0300
     14  C         24.3210  -21.4180  -13.9340 C.2     1  UNL1        0.0100
     15  C         25.3510  -22.1540  -13.3370 C.2     1  UNL1       -0.0550
     16  C         25.0470  -22.9200  -12.2030 C.2     1  UNL1        0.0100
     17  C         23.7490  -22.9500  -11.6790 C.2     1  UNL1        0.0300
     18  C         26.7680  -22.1370  -13.8800 C.3     1  UNL1        0.0100
     19  C         27.0750  -20.8220  -14.6000 C.3     1  UNL1        0.0150
     20  C         27.0390  -23.3350  -14.7940 C.3     1  UNL1        0.0150
     21  S         16.9230  -23.9260   -7.7050 S.O2    1  UNL1        0.2630
     22  O         18.0480  -24.5830   -7.0740 O.2     1  UNL1       -0.2000
     23  O         15.7830  -24.7000   -8.1470 O.2     1  UNL1       -0.2000
     24  N         16.3170  -22.7400   -6.6690 N.pl3   1  UNL1       -0.2800
     25  H         15.7130  -22.0750   -7.1430 H       1  UNL1        0.1790
     26  C         17.0770  -22.3020   -5.5440 C.2     1  UNL1        0.0480
     27  C         18.1890  -21.4740   -5.7330 C.2     1  UNL1        0.0300
     28  C         18.9210  -21.0080   -4.6410 C.2     1  UNL1        0.0020
     29  C         18.5530  -21.3760   -3.3520 C.2     1  UNL1        0.0010
     30  C         17.4600  -22.2190   -3.1540 C.2     1  UNL1        0.0090
     31  C         16.7140  -22.6990   -4.2440 C.2     1  UNL1       -0.0350
     32  C         15.5440  -23.6040   -3.9770 C.3     1  UNL1        0.0500
@<TRIPOS>BOND
     1    20    18    1
     2    19    18    1
     3    14    13    1
     4    14    15    2
     5    18    15    1
     6    13    12    2
     7    15    16    1
     8    11    10    1
     9    12    10    1
    10    12    17    1
    11    16    17    2
    12    10     8   am
    13     4     5    2
    14     4     3    1
    15     5     6    1
    16     8     3    1
    17     8     9    2
    18     3     2    2
    19     6     7    1
    20     6     1    2
    21     2     1    1
    22     1    21    1
    23    23    21    2
    24    21    22    2
    25    21    24    1
    26    25    24    1
    27    24    26    1
    28    27    26    2
    29    27    28    1
    30    26    31    1
    31    28    29    2
    32    31    32    1
    33    31    30    2
    34    29    30    1
