@<TRIPOS>MOLECULE
61476_out_ligand_01.pdbqt
 32 34 0 0 0
SMALL
GASTEIGER

@<TRIPOS>ATOM
      1  C         18.6120  -23.3080   -9.0580 C.2     1  UNL1        0.0800
      2  C         18.9380  -22.4960  -10.1430 C.2     1  UNL1        0.0270
      3  C         20.2660  -22.4160  -10.5730 C.2     1  UNL1        0.0310
      4  C         21.2630  -23.1600   -9.9390 C.2     1  UNL1        0.0340
      5  C         20.9140  -23.9920   -8.8650 C.2     1  UNL1        0.0310
      6  C         19.5920  -24.0690   -8.4200 C.2     1  UNL1        0.0270
      7  N         22.6220  -23.1520  -10.3200 N.am    1  UNL1       -0.3270
      8  C         23.5540  -22.1500  -10.1060 C.2     1  UNL1        0.2260
      9  O         23.3680  -21.1060   -9.4870 O.2     1  UNL1       -0.2730
     10  H         22.9360  -23.9980  -10.7850 H       1  UNL1        0.1690
     11  C         24.9100  -22.4370  -10.7430 C.3     1  UNL1        0.1440
     12  C         25.4290  -21.2920  -11.5860 C.2     1  UNL1       -0.0160
     13  C         26.3690  -20.4050  -11.0390 C.2     1  UNL1        0.0100
     14  C         26.9020  -19.3610  -11.8060 C.2     1  UNL1        0.0010
     15  C         26.5170  -19.1870  -13.1350 C.2     1  UNL1        0.0020
     16  C         25.5780  -20.0430  -13.7050 C.2     1  UNL1        0.0370
     17  C         25.0460  -21.0760  -12.9220 C.2     1  UNL1        0.1090
     18  N         24.1010  -21.9700  -13.5520 N.pl3   1  UNL1       -0.1150
     19  O         22.8990  -21.7130  -13.3770 O.2     1  UNL1       -0.5320
     20  O         24.5580  -22.8600  -14.2840 O.2     1  UNL1       -0.5320
     21  S         16.9290  -23.4100   -8.5040 S.O2    1  UNL1        0.2630
     22  O         16.0540  -23.3730   -9.6530 O.2     1  UNL1       -0.2000
     23  O         16.8560  -24.5020   -7.5560 O.2     1  UNL1       -0.2000
     24  N         16.7430  -21.9970   -7.5920 N.pl3   1  UNL1       -0.2800
     25  H         17.3590  -21.2640   -7.9330 H       1  UNL1        0.1790
     26  C         16.5830  -22.1180   -6.1820 C.2     1  UNL1        0.0480
     27  C         15.3270  -22.4860   -5.6830 C.2     1  UNL1        0.0300
     28  C         15.1400  -22.6770   -4.3160 C.2     1  UNL1        0.0020
     29  C         16.2100  -22.5050   -3.4410 C.2     1  UNL1        0.0010
     30  C         17.4650  -22.1360   -3.9370 C.2     1  UNL1        0.0090
     31  C         17.6680  -21.9340   -5.3120 C.2     1  UNL1       -0.0350
     32  C         19.0410  -21.5650   -5.8080 C.3     1  UNL1        0.0500
@<TRIPOS>BOND
     1    20    18    2
     2    16    15    2
     3    16    17    1
     4    18    19    2
     5    18    17    1
     6    15    14    1
     7    17    12    2
     8    14    13    2
     9    12    13    1
    10    12    11    1
    11    10     7    1
    12    11     8    1
    13     3     2    1
    14     3     4    2
    15     7     8   am
    16     7     4    1
    17     2     1    2
    18     8     9    2
    19     4     5    1
    20    22    21    2
    21     1    21    1
    22     1     6    1
    23     5     6    2
    24    21    24    1
    25    21    23    2
    26    25    24    1
    27    24    26    1
    28    26    27    2
    29    26    31    1
    30    32    31    1
    31    27    28    1
    32    31    30    2
    33    28    29    2
    34    30    29    1
