@<TRIPOS>MOLECULE
61472_out_ligand_01.pdbqt
 35 37 0 0 0
SMALL
GASTEIGER

@<TRIPOS>ATOM
      1  C         21.1170  -23.3340   -8.8450 C.2     1  UNL1        0.0340
      2  C         20.1940  -24.3850   -8.7290 C.2     1  UNL1        0.0310
      3  C         19.1880  -24.3480   -7.7580 C.2     1  UNL1        0.0270
      4  C         19.1110  -23.2570   -6.8920 C.2     1  UNL1        0.0750
      5  C         20.0390  -22.2170   -6.9770 C.2     1  UNL1        0.0270
      6  C         21.0320  -22.2540   -7.9610 C.2     1  UNL1        0.0310
      7  S         17.8390  -23.1990   -5.6490 S.O2    1  UNL1        0.2450
      8  O         18.3600  -22.4650   -4.5160 O.2     1  UNL1       -0.2060
      9  O         17.2880  -24.5310   -5.5180 O.2     1  UNL1       -0.2060
     10  N         16.7060  -22.1850   -6.4240 N.pl3   1  UNL1       -0.1810
     11  H         15.8260  -22.2430   -5.9070 H       1  UNL1        0.1460
     12  C         16.5160  -22.4740   -7.8160 C.2     1  UNL1        0.0230
     13  C         15.7250  -23.5640   -8.1910 C.2     1  UNL1        0.0240
     14  C         15.5350  -23.8530   -9.5430 C.2     1  UNL1        0.0030
     15  C         16.1340  -23.0500  -10.5160 C.2     1  UNL1        0.0160
     16  C         16.9130  -21.9370  -10.1470 C.2     1  UNL1        0.0490
     17  C         17.0920  -21.6500   -8.7850 C.2     1  UNL1        0.0400
     18  C         17.5260  -21.0620  -11.2140 C.3     1  UNL1        0.4170
     19  F         16.9300  -19.8380  -11.2900 F       1  UNL1       -0.1660
     20  F         18.8480  -20.8190  -10.9880 F       1  UNL1       -0.1660
     21  F         17.4470  -21.5920  -12.4690 F       1  UNL1       -0.1660
     22  N         22.0940  -23.4530   -9.8540 N.am    1  UNL1       -0.3270
     23  C         22.3680  -22.5470  -10.8680 C.2     1  UNL1        0.2260
     24  O         21.7750  -21.4950  -11.0900 O.2     1  UNL1       -0.2730
     25  H         22.6270  -24.3150   -9.8500 H       1  UNL1        0.1690
     26  C         23.5130  -22.9940  -11.7680 C.3     1  UNL1        0.1440
     27  C         24.5360  -21.8970  -11.9840 C.2     1  UNL1       -0.0160
     28  C         25.3630  -21.5110  -10.9140 C.2     1  UNL1        0.0100
     29  C         26.2820  -20.4650  -11.0510 C.2     1  UNL1        0.0010
     30  C         26.4160  -19.7980  -12.2690 C.2     1  UNL1        0.0020
     31  C         25.6280  -20.1730  -13.3560 C.2     1  UNL1        0.0370
     32  C         24.7060  -21.2170  -13.2030 C.2     1  UNL1        0.1090
     33  N         23.9120  -21.5730  -14.3620 N.pl3   1  UNL1       -0.1150
     34  O         24.3850  -22.4330  -15.1230 O.2     1  UNL1       -0.5320
     35  O         22.8280  -20.9930  -14.5040 O.2     1  UNL1       -0.5320
@<TRIPOS>BOND
     1    34    33    2
     2    35    33    2
     3    33    32    1
     4    31    32    1
     5    31    30    2
     6    32    27    2
     7    21    18    1
     8    30    29    1
     9    27    26    1
    10    27    28    1
    11    26    23    1
    12    19    18    1
    13    18    20    1
    14    18    16    1
    15    24    23    2
    16    29    28    2
    17    23    22   am
    18    15    16    2
    19    15    14    1
    20    16    17    1
    21    22    25    1
    22    22     1    1
    23    14    13    2
    24     1     2    2
    25     1     6    1
    26    17    12    2
    27     2     3    1
    28    13    12    1
    29     6     5    2
    30    12    10    1
    31     3     4    2
    32     5     4    1
    33     4     7    1
    34    10    11    1
    35    10     7    1
    36     7     9    2
    37     7     8    2
