@<TRIPOS>MOLECULE
61478_out_ligand_01.pdbqt
 30 32 0 0 0
SMALL
GASTEIGER

@<TRIPOS>ATOM
      1  C         17.5500  -23.4520   -8.6990 C.2     1  UNL1        0.0860
      2  C         18.9440  -23.6080   -8.7690 C.2     1  UNL1        0.0420
      3  C         19.6670  -22.9930   -9.7940 C.2     1  UNL1        0.0330
      4  C         19.0030  -22.2100  -10.7420 C.2     1  UNL1        0.0170
      5  C         17.6160  -22.0570  -10.6730 C.2     1  UNL1        0.0090
      6  C         16.8670  -22.6680   -9.6520 C.2     1  UNL1       -0.0390
      7  C         15.3770  -22.4670   -9.6460 C.3     1  UNL1        0.0500
      8  S         16.6970  -24.3040   -7.3800 S.O2    1  UNL1        0.2630
      9  O         15.5490  -24.9730   -7.9550 O.2     1  UNL1       -0.2000
     10  O         17.6600  -25.0560   -6.6040 O.2     1  UNL1       -0.2000
     11  N         16.0890  -23.0350   -6.4410 N.pl3   1  UNL1       -0.2810
     12  H         15.1340  -23.2390   -6.1490 H       1  UNL1        0.1790
     13  C         16.9530  -22.4650   -5.4640 C.2     1  UNL1        0.0430
     14  C         16.6870  -22.6570   -4.1110 C.2     1  UNL1        0.0300
     15  C         17.5090  -22.0640   -3.1530 C.2     1  UNL1        0.0030
     16  C         18.5870  -21.2720   -3.5510 C.2     1  UNL1        0.0070
     17  C         18.8450  -21.0540   -4.9100 C.2     1  UNL1       -0.0600
     18  C         20.0110  -20.2140   -5.3370 C.3     1  UNL1        0.0480
     19  C         18.0240  -21.6650   -5.8670 C.2     1  UNL1        0.0370
     20  C         21.1450  -23.1590   -9.8270 C.2     1  UNL1        0.2560
     21  O         21.6560  -23.9250   -9.0210 O.2     1  UNL1       -0.2670
     22  N         21.7830  -22.4240  -10.8090 N.am    1  UNL1       -0.3230
     23  H         21.1930  -21.9310  -11.4680 H       1  UNL1        0.1690
     24  C         23.1710  -22.3520  -11.0560 C.2     1  UNL1        0.0360
     25  C         24.0530  -21.5550  -10.3230 C.2     1  UNL1        0.0290
     26  C         25.4180  -21.5330  -10.6320 C.2     1  UNL1        0.0040
     27  C         25.9130  -22.3080  -11.6790 C.2     1  UNL1        0.0190
     28  C         25.0370  -23.1010  -12.4130 C.2     1  UNL1        0.0130
     29 BR         25.6990  -24.1550  -13.8380 Br      1  UNL1       -0.0510
     30  C         23.6750  -23.1270  -12.1090 C.2     1  UNL1        0.0480
@<TRIPOS>BOND
     1    29    28    1
     2    28    30    1
     3    28    27    2
     4    30    24    2
     5    27    26    1
     6    23    22    1
     7    24    22    1
     8    24    25    1
     9    22    20   am
    10     4     5    2
    11     4     3    1
    12     5     6    1
    13    26    25    2
    14    20     3    1
    15    20    21    2
    16     3     2    2
    17     6     7    1
    18     6     1    2
    19     2     1    1
    20     1     8    1
    21     9     8    2
    22     8    10    2
    23     8    11    1
    24    11    12    1
    25    11    13    1
    26    19    13    2
    27    19    17    1
    28    13    14    1
    29    18    17    1
    30    17    16    2
    31    14    15    2
    32    16    15    1
