@<TRIPOS>MOLECULE
61473_out_ligand_01.pdbqt
 37 41 0 0 0
SMALL
GASTEIGER

@<TRIPOS>ATOM
      1  C         19.8010  -23.2910   -9.2260 C.2     1  UNL1        0.0800
      2  C         20.0130  -22.5340  -10.3810 C.2     1  UNL1        0.0270
      3  C         21.2860  -22.4880  -10.9590 C.2     1  UNL1        0.0310
      4  C         22.3560  -23.1650  -10.3700 C.2     1  UNL1        0.0340
      5  C         22.1400  -23.8780   -9.1820 C.2     1  UNL1        0.0310
      6  C         20.8670  -23.9440   -8.6080 C.2     1  UNL1        0.0270
      7  N         23.6570  -23.1970  -10.9070 N.am    1  UNL1       -0.3260
      8  C         24.6130  -22.1920  -10.8780 C.2     1  UNL1        0.2400
      9  O         24.5410  -21.1400  -10.2470 O.2     1  UNL1       -0.2710
     10  H         23.9290  -24.0540  -11.3760 H       1  UNL1        0.1690
     11  C         25.8910  -22.5510  -11.6410 C.3     1  UNL1        0.2350
     12  N         25.7010  -22.5080  -13.0770 N.am    1  UNL1       -0.3040
     13  C         25.2920  -23.5770  -13.8690 C.2     1  UNL1        0.2590
     14  O         24.9840  -24.6970  -13.5130 O.2     1  UNL1       -0.2670
     15  C         25.2150  -23.0420  -15.2450 C.2     1  UNL1        0.0450
     16  C         24.8900  -23.6270  -16.4500 C.2     1  UNL1        0.0180
     17  C         25.5250  -21.7080  -15.1690 C.2     1  UNL1        0.0170
     18  C         24.8900  -22.8010  -17.5890 C.2     1  UNL1        0.0020
     19  C         25.2050  -21.4220  -17.5000 C.2     1  UNL1        0.0120
     20  C         25.5340  -20.8400  -16.2550 C.2     1  UNL1       -0.0230
     21  C         25.8680  -19.4990  -15.9540 C.2     1  UNL1        0.0120
     22  C         26.1610  -19.1150  -14.6220 C.2     1  UNL1        0.0030
     23  C         26.1340  -20.0490  -13.5660 C.2     1  UNL1        0.0310
     24  C         25.8130  -21.3570  -13.8750 C.2     1  UNL1        0.0500
     25  S         18.1710  -23.3820   -8.5190 S.O2    1  UNL1        0.2630
     26  O         18.1330  -24.5230   -7.6320 O.2     1  UNL1       -0.2000
     27  O         17.2190  -23.2470   -9.6040 O.2     1  UNL1       -0.2000
     28  N         18.0470  -21.9520   -7.6290 N.pl3   1  UNL1       -0.2800
     29  H         18.6650  -21.2190   -7.9770 H       1  UNL1        0.1790
     30  C         17.7740  -21.9990   -6.2290 C.2     1  UNL1        0.0490
     31  C         18.6810  -21.4470   -5.3070 C.2     1  UNL1       -0.0350
     32  C         18.3890  -21.5410   -3.9360 C.2     1  UNL1        0.0090
     33  C         19.9470  -20.7610   -5.7420 C.3     1  UNL1        0.0500
     34  C         17.2290  -22.1830   -3.4910 C.2     1  UNL1        0.0070
     35  C         16.3320  -22.7380   -4.4080 C.2     1  UNL1       -0.0600
     36  C         15.0730  -23.4140   -3.9430 C.3     1  UNL1        0.0480
     37  C         16.6020  -22.6190   -5.7780 C.2     1  UNL1        0.0370
@<TRIPOS>BOND
     1    18    19    2
     2    18    16    1
     3    19    20    1
     4    16    15    2
     5    20    21    1
     6    20    17    2
     7    21    22    2
     8    15    17    1
     9    15    13    1
    10    17    24    1
    11    22    23    1
    12    24    23    2
    13    24    12    1
    14    13    14    2
    15    13    12   am
    16    12    11    1
    17    11     8    1
    18    10     7    1
    19     3     2    1
    20     3     4    2
    21     7     8   am
    22     7     4    1
    23     8     9    2
    24     2     1    2
    25     4     5    1
    26    27    25    2
    27     1     6    1
    28     1    25    1
    29     5     6    2
    30    25    26    2
    31    25    28    1
    32    29    28    1
    33    28    30    1
    34    30    37    2
    35    30    31    1
    36    37    35    1
    37    33    31    1
    38    31    32    2
    39    35    36    1
    40    35    34    2
    41    32    34    1
