@<TRIPOS>MOLECULE
61489_out_ligand_01.pdbqt
 32 34 0 0 0
SMALL
GASTEIGER

@<TRIPOS>ATOM
      1  C         18.0500  -22.4220   -9.6950 C.2     1  UNL1        0.0330
      2  C         17.7040  -21.8400  -10.9160 C.2     1  UNL1        0.0170
      3  C         18.7050  -21.4210  -11.7960 C.2     1  UNL1        0.0090
      4  C         20.0700  -21.5510  -11.4700 C.2     1  UNL1       -0.0390
      5  C         21.0800  -21.0680  -12.4710 C.3     1  UNL1        0.0500
      6  C         20.4040  -22.1110  -10.2220 C.2     1  UNL1        0.0860
      7  C         19.3960  -22.5570   -9.3500 C.2     1  UNL1        0.0420
      8  S         22.0820  -22.3050   -9.6240 S.O2    1  UNL1        0.2630
      9  O         22.7490  -21.0380   -9.8430 O.2     1  UNL1       -0.2000
     10  O         22.0790  -22.9180   -8.3140 O.2     1  UNL1       -0.2000
     11  N         22.7530  -23.3900  -10.7330 N.pl3   1  UNL1       -0.2810
     12  H         22.7820  -24.3410  -10.3690 H       1  UNL1        0.1790
     13  C         23.8300  -22.9620  -11.5590 C.2     1  UNL1        0.0430
     14  C         25.0560  -22.6630  -10.9690 C.2     1  UNL1        0.0300
     15  C         26.1130  -22.2070  -11.7590 C.2     1  UNL1        0.0090
     16  C         25.9590  -22.0460  -13.1450 C.2     1  UNL1       -0.0560
     17  C         27.1210  -21.5520  -13.9620 C.3     1  UNL1        0.0490
     18  C         24.7150  -22.3400  -13.7380 C.2     1  UNL1       -0.0540
     19  C         24.4920  -22.1970  -15.2190 C.3     1  UNL1        0.0490
     20  C         23.6630  -22.8090  -12.9330 C.2     1  UNL1        0.0370
     21  C         17.0210  -22.8580   -8.7130 C.2     1  UNL1        0.2560
     22  N         17.3460  -22.6140   -7.3930 N.am    1  UNL1       -0.3220
     23  H         18.1900  -22.0840   -7.2360 H       1  UNL1        0.1690
     24  O         15.9930  -23.3550   -9.1580 O.2     1  UNL1       -0.2670
     25  C         16.5860  -22.9210   -6.2390 C.2     1  UNL1        0.0410
     26  C         15.4580  -23.7500   -6.2900 C.2     1  UNL1        0.0300
     27  C         14.7150  -24.0320   -5.1410 C.2     1  UNL1        0.0020
     28  C         15.0880  -23.4890   -3.9200 C.2     1  UNL1        0.0010
     29  C         16.2110  -22.6690   -3.8460 C.2     1  UNL1        0.0090
     30  C         16.9760  -22.3790   -4.9910 C.2     1  UNL1       -0.0320
     31  C         18.1740  -21.4700   -4.8130 C.3     1  UNL1        0.0360
     32  C         18.6140  -21.3770   -3.3580 C.3     1  UNL1        0.0100
@<TRIPOS>BOND
     1    19    18    1
     2    17    16    1
     3    18    16    2
     4    18    20    1
     5    16    15    1
     6    20    13    2
     7     5     4    1
     8     3     4    2
     9     3     2    1
    10    15    14    2
    11    13    14    1
    12    13    11    1
    13     4     6    1
    14     2     1    2
    15    11    12    1
    16    11     8    1
    17     6     8    1
    18     6     7    2
    19     9     8    2
    20     1     7    1
    21     1    21    1
    22     8    10    2
    23    24    21    2
    24    21    22   am
    25    22    23    1
    26    22    25    1
    27    26    25    2
    28    26    27    1
    29    25    30    1
    30    27    28    2
    31    30    31    1
    32    30    29    2
    33    31    32    1
    34    28    29    1
