@<TRIPOS>MOLECULE
61486_out_ligand_01.pdbqt
 31 33 0 0 0
SMALL
GASTEIGER

@<TRIPOS>ATOM
      1  C         16.9150  -20.6090  -11.3050 C.3     1  UNL1        0.0500
      2  C         18.2710  -21.2350  -11.1230 C.2     1  UNL1       -0.0390
      3  C         19.3050  -20.8440  -11.9920 C.2     1  UNL1        0.0090
      4  C         20.5830  -21.4000  -11.8920 C.2     1  UNL1        0.0170
      5  C         20.8530  -22.3620  -10.9150 C.2     1  UNL1        0.0330
      6  C         19.8300  -22.7870  -10.0610 C.2     1  UNL1        0.0420
      7  C         18.5480  -22.2230  -10.1570 C.2     1  UNL1        0.0810
      8  S         17.2900  -22.8260   -9.0320 S.O2    1  UNL1        0.2460
      9  O         16.5940  -21.6790   -8.4910 O.2     1  UNL1       -0.2060
     10  O         16.5830  -23.8990   -9.6990 O.2     1  UNL1       -0.2060
     11  N         18.2670  -23.5550   -7.8360 N.pl3   1  UNL1       -0.1810
     12  H         17.9170  -24.4970   -7.6750 H       1  UNL1        0.1460
     13  C         18.3630  -22.7990   -6.6150 C.2     1  UNL1        0.0290
     14  C         19.3090  -21.7700   -6.5860 C.2     1  UNL1        0.0250
     15  C         19.4380  -20.9600   -5.4650 C.2     1  UNL1        0.0020
     16  C         18.6040  -21.1610   -4.3700 C.2     1  UNL1        0.0070
     17  C         17.6270  -22.1690   -4.3860 C.2     1  UNL1       -0.0540
     18  C         16.7340  -22.3190   -3.1810 C.3     1  UNL1        0.0490
     19  C         17.5070  -23.0180   -5.5150 C.2     1  UNL1       -0.0340
     20  C         16.4290  -24.0740   -5.5360 C.3     1  UNL1        0.0500
     21  C         22.2020  -22.9830  -10.7780 C.2     1  UNL1        0.2560
     22  O         22.4030  -23.7200   -9.8220 O.2     1  UNL1       -0.2670
     23  N         23.1160  -22.6170  -11.7490 N.am    1  UNL1       -0.3230
     24  H         22.8350  -21.8930  -12.3970 H       1  UNL1        0.1690
     25  C         24.4430  -23.0770  -11.8920 C.2     1  UNL1        0.0360
     26  C         25.3010  -22.8960  -10.7970 C.2     1  UNL1        0.0290
     27  C         26.6320  -23.3170  -10.8530 C.2     1  UNL1        0.0040
     28  C         27.1200  -23.9220  -12.0080 C.2     1  UNL1        0.0190
     29  C         26.2730  -24.1000  -13.0990 C.2     1  UNL1        0.0130
     30 BR         26.9410  -24.9180  -14.6690 Br      1  UNL1       -0.0510
     31  C         24.9410  -23.6810  -13.0480 C.2     1  UNL1        0.0480
@<TRIPOS>BOND
     1    30    29    1
     2    29    31    1
     3    29    28    2
     4    31    25    2
     5    24    23    1
     6    28    27    1
     7     3     4    1
     8     3     2    2
     9     4     5    2
    10    25    23    1
    11    25    26    1
    12    23    21   am
    13     1     2    1
    14     2     7    1
    15     5    21    1
    16     5     6    1
    17    27    26    2
    18    21    22    2
    19     7     6    2
    20     7     8    1
    21    10     8    2
    22     8     9    2
    23     8    11    1
    24    11    12    1
    25    11    13    1
    26    13    14    2
    27    13    19    1
    28    14    15    1
    29    20    19    1
    30    19    17    2
    31    15    16    2
    32    17    16    1
    33    17    18    1
