@<TRIPOS>MOLECULE
61492_out_ligand_01.pdbqt
 36 40 0 0 0
SMALL
GASTEIGER

@<TRIPOS>ATOM
      1  C         24.0680  -22.8670  -10.7740 C.2     1  UNL1        0.0800
      2  C         23.1040  -22.5760  -11.7400 C.2     1  UNL1        0.0270
      3  C         21.7690  -22.4310  -11.3540 C.2     1  UNL1        0.0310
      4  C         21.3880  -22.5790  -10.0110 C.2     1  UNL1        0.0340
      5  C         22.3670  -22.8630   -9.0540 C.2     1  UNL1        0.0310
      6  C         23.7080  -22.9990   -9.4300 C.2     1  UNL1        0.0270
      7  N         20.0170  -22.4420   -9.7200 N.am    1  UNL1       -0.3260
      8  C         19.1800  -23.3610   -9.1070 C.2     1  UNL1        0.2400
      9  O         19.5210  -24.4210   -8.5860 O.2     1  UNL1       -0.2710
     10  H         19.5860  -21.5650  -10.0030 H       1  UNL1        0.1690
     11  C         17.7240  -22.8910   -9.0310 C.3     1  UNL1        0.2350
     12  N         17.2210  -22.9370   -7.6750 N.am    1  UNL1       -0.3040
     13  C         16.2000  -23.7660   -7.2280 C.2     1  UNL1        0.2590
     14  O         15.5730  -24.5880   -7.8700 O.2     1  UNL1       -0.2670
     15  C         16.1000  -23.5200   -5.7740 C.2     1  UNL1        0.0450
     16  C         15.2720  -24.0400   -4.7990 C.2     1  UNL1        0.0180
     17  C         17.0870  -22.6240   -5.4550 C.2     1  UNL1        0.0170
     18  C         15.4800  -23.6080   -3.4770 C.2     1  UNL1        0.0020
     19  C         16.5070  -22.6840   -3.1560 C.2     1  UNL1        0.0120
     20  C         17.3500  -22.1700   -4.1680 C.2     1  UNL1       -0.0230
     21  C         18.4280  -21.2680   -4.0540 C.2     1  UNL1        0.0120
     22  C         19.1650  -20.8900   -5.2030 C.2     1  UNL1        0.0030
     23  C         18.8480  -21.3920   -6.4790 C.2     1  UNL1        0.0310
     24  C         17.7850  -22.2640   -6.5790 C.2     1  UNL1        0.0500
     25  S         25.7720  -23.0290  -11.2400 S.O2    1  UNL1        0.2630
     26  O         26.4370  -23.7490  -10.1740 O.2     1  UNL1       -0.2000
     27  O         26.2630  -21.7450  -11.6910 O.2     1  UNL1       -0.2000
     28  N         25.7050  -24.0990  -12.5490 N.pl3   1  UNL1       -0.2810
     29  H         26.2340  -24.9460  -12.3420 H       1  UNL1        0.1790
     30  C         25.8230  -23.5620  -13.8610 C.2     1  UNL1        0.0420
     31  C         24.7290  -22.9260  -14.4470 C.2     1  UNL1        0.0300
     32  C         24.8320  -22.4200  -15.7470 C.2     1  UNL1        0.0090
     33  C         26.0320  -22.5440  -16.4640 C.2     1  UNL1       -0.0620
     34  C         26.1380  -22.0350  -17.8770 C.3     1  UNL1        0.0480
     35  C         27.1150  -23.2070  -15.8720 C.2     1  UNL1        0.0090
     36  C         27.0100  -23.7190  -14.5740 C.2     1  UNL1        0.0300
@<TRIPOS>BOND
     1    34    33    1
     2    33    35    2
     3    33    32    1
     4    35    36    1
     5    32    31    2
     6    36    30    2
     7    31    30    1
     8    30    28    1
     9    28    29    1
    10    28    25    1
    11     2     3    1
    12     2     1    2
    13    27    25    2
    14     3     4    2
    15    25     1    1
    16    25    26    2
    17     1     6    1
    18     4     7    1
    19     4     5    1
    20    10     7    1
    21     7     8   am
    22     6     5    2
    23     8    11    1
    24     8     9    2
    25    11    12    1
    26    14    13    2
    27    12    13   am
    28    12    24    1
    29    13    15    1
    30    24    23    2
    31    24    17    1
    32    23    22    1
    33    15    17    2
    34    15    16    1
    35    17    20    1
    36    22    21    2
    37    16    18    2
    38    20    21    1
    39    20    19    2
    40    18    19    1
