@<TRIPOS>MOLECULE
61500_out_ligand_01.pdbqt
 39 44 0 0 0
SMALL
GASTEIGER

@<TRIPOS>ATOM
      1  C         21.2850  -22.8630  -10.5890 C.2     1  UNL1        0.0340
      2  C         20.9200  -23.8320   -9.6420 C.2     1  UNL1        0.0310
      3  C         19.6070  -23.9140   -9.1740 C.2     1  UNL1        0.0270
      4  C         18.6530  -23.0170   -9.6560 C.2     1  UNL1        0.0800
      5  C         18.9880  -22.0880  -10.6450 C.2     1  UNL1        0.0270
      6  C         20.3070  -22.0060  -11.0980 C.2     1  UNL1        0.0310
      7  N         22.6460  -22.7960  -10.9350 N.am    1  UNL1       -0.3260
      8  C         23.6260  -21.9860  -10.3880 C.2     1  UNL1        0.2400
      9  O         23.4400  -21.0250   -9.6450 O.2     1  UNL1       -0.2710
     10  H         22.9680  -23.4680  -11.6220 H       1  UNL1        0.1690
     11  C         25.0390  -22.3180  -10.8830 C.3     1  UNL1        0.2350
     12  N         25.4840  -21.4580  -11.9620 N.am    1  UNL1       -0.3040
     13  C         26.1130  -20.2260  -11.8130 C.2     1  UNL1        0.2590
     14  O         26.3990  -19.6390  -10.7890 O.2     1  UNL1       -0.2670
     15  C         26.3040  -19.7150  -13.1880 C.2     1  UNL1        0.0450
     16  C         26.8630  -18.5510  -13.6770 C.2     1  UNL1        0.0180
     17  C         25.7570  -20.6410  -14.0360 C.2     1  UNL1        0.0170
     18  C         26.8490  -18.3620  -15.0710 C.2     1  UNL1        0.0020
     19  C         26.2780  -19.3250  -15.9390 C.2     1  UNL1        0.0120
     20  C         25.7060  -20.5070  -15.4190 C.2     1  UNL1       -0.0230
     21  C         25.0840  -21.5720  -16.1050 C.2     1  UNL1        0.0120
     22  C         24.5600  -22.6750  -15.3880 C.2     1  UNL1        0.0030
     23  C         24.6400  -22.7450  -13.9840 C.2     1  UNL1        0.0310
     24  C         25.2560  -21.7010  -13.3260 C.2     1  UNL1        0.0500
     25  S         16.9960  -23.0590   -9.0110 S.O2    1  UNL1        0.2630
     26  O         16.6510  -21.7240   -8.5690 O.2     1  UNL1       -0.2000
     27  O         16.1720  -23.7660   -9.9710 O.2     1  UNL1       -0.2000
     28  N         17.1190  -24.0870   -7.6730 N.pl3   1  UNL1       -0.2800
     29  H         17.9110  -24.7200   -7.7420 H       1  UNL1        0.1790
     30  C         16.7670  -23.5860   -6.3800 C.2     1  UNL1        0.0530
     31  C         15.5730  -24.0380   -5.8100 C.2     1  UNL1        0.0310
     32  C         15.1480  -23.5350   -4.5850 C.2     1  UNL1        0.0030
     33  C         15.9150  -22.5760   -3.9260 C.2     1  UNL1        0.0120
     34  C         17.1190  -22.1070   -4.4780 C.2     1  UNL1       -0.0240
     35  C         17.8730  -21.1350   -3.8000 C.2     1  UNL1        0.0120
     36  C         17.5680  -22.6090   -5.7250 C.2     1  UNL1        0.0010
     37  C         19.0630  -20.6440   -4.3360 C.2     1  UNL1        0.0010
     38  C         19.5150  -21.1190   -5.5620 C.2     1  UNL1        0.0010
     39  C         18.7810  -22.0910   -6.2450 C.2     1  UNL1        0.0140
@<TRIPOS>BOND
     1    21    20    1
     2    21    22    2
     3    19    20    2
     4    19    18    1
     5    20    17    1
     6    22    23    1
     7    18    16    2
     8    17    24    1
     9    17    15    2
    10    23    24    2
    11    16    15    1
    12    24    12    1
    13    15    13    1
    14    12    13   am
    15    12    11    1
    16    13    14    2
    17    10     7    1
    18     6     5    1
    19     6     1    2
    20     7     1    1
    21     7     8   am
    22    11     8    1
    23     5     4    2
    24     1     2    1
    25     8     9    2
    26    27    25    2
    27     4     3    1
    28     4    25    1
    29     2     3    2
    30    25    26    2
    31    25    28    1
    32    29    28    1
    33    28    30    1
    34    30    31    2
    35    30    36    1
    36    39    36    1
    37    39    38    2
    38    31    32    1
    39    36    34    2
    40    38    37    1
    41    32    33    2
    42    34    33    1
    43    34    35    1
    44    37    35    2
