@<TRIPOS>MOLECULE
61503_out_ligand_01.pdbqt
 31 33 0 0 0
SMALL
GASTEIGER

@<TRIPOS>ATOM
      1  C         17.6040  -23.0320   -9.0400 C.2     1  UNL1        0.0810
      2  C         18.9970  -22.9420   -9.1940 C.2     1  UNL1        0.0420
      3  C         19.5420  -22.2350  -10.2690 C.2     1  UNL1        0.0330
      4  C         18.6980  -21.6260  -11.2000 C.2     1  UNL1        0.0170
      5  C         17.3130  -21.7120  -11.0450 C.2     1  UNL1        0.0090
      6  C         16.7430  -22.4170   -9.9690 C.2     1  UNL1       -0.0390
      7  C         15.2440  -22.4580   -9.8660 C.3     1  UNL1        0.0500
      8  S         16.9990  -23.9260   -7.6080 S.O2    1  UNL1        0.2460
      9  O         15.9200  -24.7800   -8.0610 O.2     1  UNL1       -0.2060
     10  O         18.1320  -24.4680   -6.8930 O.2     1  UNL1       -0.2060
     11  N         16.2890  -22.6510   -6.7180 N.pl3   1  UNL1       -0.1810
     12  H         15.3530  -22.9550   -6.4420 H       1  UNL1        0.1460
     13  C         17.0460  -22.2660   -5.5550 C.2     1  UNL1        0.0280
     14  C         18.1460  -21.4140   -5.7130 C.2     1  UNL1        0.0250
     15  C         18.8710  -20.9880   -4.6020 C.2     1  UNL1        0.0020
     16  C         18.4960  -21.4050   -3.3280 C.2     1  UNL1        0.0010
     17  C         17.3950  -22.2490   -3.1660 C.2     1  UNL1        0.0080
     18  C         16.6620  -22.6960   -4.2770 C.2     1  UNL1       -0.0400
     19  C         15.4770  -23.5910   -4.0580 C.3     1  UNL1        0.0500
     20  C         21.0220  -22.1850  -10.4100 C.2     1  UNL1        0.2560
     21  O         21.6940  -22.1470   -9.3880 O.2     1  UNL1       -0.2670
     22  N         21.4810  -22.1550  -11.7140 N.am    1  UNL1       -0.3230
     23  H         20.7820  -22.0620  -12.4420 H       1  UNL1        0.1690
     24  C         22.8260  -22.1440  -12.1440 C.2     1  UNL1        0.0380
     25  C         23.2700  -21.5090  -13.3070 C.2     1  UNL1        0.0530
     26  C         24.6220  -21.5450  -13.6530 C.2     1  UNL1        0.0370
     27 CL         25.1570  -20.7560  -15.0890 Cl      1  UNL1       -0.0840
     28  C         25.5490  -22.2060  -12.8530 C.2     1  UNL1        0.0480
     29  C         25.1090  -22.8350  -11.6950 C.2     1  UNL1        0.0370
     30 CL         26.2380  -23.6550  -10.6880 Cl      1  UNL1       -0.0840
     31  C         23.7590  -22.8060  -11.3370 C.2     1  UNL1        0.0530
@<TRIPOS>BOND
     1    27    26    1
     2    26    25    1
     3    26    28    2
     4    25    24    2
     5    28    29    1
     6    23    22    1
     7    24    22    1
     8    24    31    1
     9    22    20   am
    10    29    31    2
    11    29    30    1
    12     4     5    2
    13     4     3    1
    14     5     6    1
    15    20     3    1
    16    20    21    2
    17     3     2    2
    18     6     7    1
    19     6     1    2
    20     2     1    1
    21     1     8    1
    22     9     8    2
    23     8    10    2
    24     8    11    1
    25    11    12    1
    26    11    13    1
    27    14    13    2
    28    14    15    1
    29    13    18    1
    30    15    16    2
    31    18    19    1
    32    18    17    2
    33    16    17    1
