@<TRIPOS>MOLECULE
61501_out_ligand_01.pdbqt
 31 33 0 0 0
SMALL
GASTEIGER

@<TRIPOS>ATOM
      1  C         17.5760  -23.5200   -8.6900 C.2     1  UNL1        0.0860
      2  C         18.9740  -23.6510   -8.6320 C.2     1  UNL1        0.0420
      3  C         19.7870  -23.0660   -9.6050 C.2     1  UNL1        0.0330
      4  C         19.2030  -22.3370  -10.6410 C.2     1  UNL1        0.0170
      5  C         17.8150  -22.1790  -10.6870 C.2     1  UNL1        0.0090
      6  C         16.9780  -22.7590   -9.7140 C.2     1  UNL1       -0.0390
      7  C         15.4980  -22.5230   -9.8320 C.3     1  UNL1        0.0500
      8  S         16.6670  -24.3480   -7.3900 S.O2    1  UNL1        0.2630
      9  O         17.5600  -25.1700   -6.6040 O.2     1  UNL1       -0.2000
     10  O         15.4940  -24.9310   -8.0090 O.2     1  UNL1       -0.2000
     11  N         16.1030  -23.0720   -6.4380 N.pl3   1  UNL1       -0.2800
     12  H         15.4330  -22.4910   -6.9350 H       1  UNL1        0.1790
     13  C         16.9430  -22.4620   -5.4590 C.2     1  UNL1        0.0490
     14  C         16.6830  -22.6440   -4.0910 C.2     1  UNL1       -0.0350
     15  C         17.5100  -22.0040   -3.1540 C.2     1  UNL1        0.0090
     16  C         15.5500  -23.4960   -3.5910 C.3     1  UNL1        0.0500
     17  C         18.5880  -21.2190   -3.5670 C.2     1  UNL1        0.0070
     18  C         18.8770  -21.0770   -4.9250 C.2     1  UNL1       -0.0600
     19  C         20.0250  -20.2270   -5.3800 C.3     1  UNL1        0.0480
     20  C         18.0440  -21.6990   -5.8640 C.2     1  UNL1        0.0370
     21  C         21.2540  -23.2850   -9.5220 C.2     1  UNL1        0.2510
     22  O         21.6840  -24.3770   -9.1650 O.2     1  UNL1       -0.2680
     23  N         22.0490  -22.2060   -9.8380 N.am    1  UNL1       -0.3530
     24  H         21.6250  -21.2900   -9.8860 H       1  UNL1        0.1630
     25  C         23.4820  -22.2420   -9.6390 C.3     1  UNL1        0.1610
     26  C         24.2060  -21.8510  -10.9010 C.2     1  UNL1       -0.0410
     27  C         23.6740  -22.1600  -12.1600 C.2     1  UNL1        0.0090
     28  C         24.3430  -21.7740  -13.3240 C.2     1  UNL1        0.0010
     29  C         25.5430  -21.0700  -13.2400 C.2     1  UNL1        0.0000
     30  C         26.0760  -20.7500  -11.9930 C.2     1  UNL1        0.0010
     31  C         25.4110  -21.1360  -10.8280 C.2     1  UNL1        0.0090
@<TRIPOS>BOND
     1    28    29    2
     2    28    27    1
     3    29    30    1
     4    27    26    2
     5    30    31    2
     6    26    31    1
     7    26    25    1
     8     5     4    2
     9     5     6    1
    10     4     3    1
    11    24    23    1
    12    23    25    1
    13    23    21   am
    14     7     6    1
    15     6     1    2
    16     3    21    1
    17     3     2    2
    18    21    22    2
    19     1     2    1
    20     1     8    1
    21    10     8    2
    22     8     9    2
    23     8    11    1
    24    12    11    1
    25    11    13    1
    26    20    13    2
    27    20    18    1
    28    13    14    1
    29    19    18    1
    30    18    17    2
    31    14    16    1
    32    14    15    2
    33    17    15    1
