@<TRIPOS>MOLECULE
61513_out_ligand_01.pdbqt
 32 34 0 0 0
SMALL
GASTEIGER

@<TRIPOS>ATOM
      1  C         19.7240  -22.9540   -9.7710 C.2     1  UNL1        0.0330
      2  C         19.0760  -22.1650  -10.7250 C.2     1  UNL1        0.0170
      3  C         17.6880  -22.0080  -10.6740 C.2     1  UNL1        0.0090
      4  C         16.9170  -22.6480   -9.6860 C.2     1  UNL1       -0.0390
      5  C         15.4320  -22.4150   -9.6900 C.3     1  UNL1        0.0500
      6  C         17.5820  -23.4510   -8.7370 C.2     1  UNL1        0.0860
      7  C         18.9790  -23.5980   -8.7820 C.2     1  UNL1        0.0420
      8  S         16.7210  -24.2950   -7.4100 S.O2    1  UNL1        0.2630
      9  O         17.7000  -24.9880   -6.5990 O.2     1  UNL1       -0.2000
     10  O         15.6140  -25.0250   -7.9890 O.2     1  UNL1       -0.2000
     11  N         16.1300  -23.0300   -6.4630 N.pl3   1  UNL1       -0.2800
     12  H         15.1300  -23.1020   -6.2930 H       1  UNL1        0.1790
     13  C         16.9530  -22.4230   -5.4680 C.2     1  UNL1        0.0490
     14  C         18.0020  -21.5800   -5.8510 C.2     1  UNL1        0.0370
     15  C         18.8540  -21.0110   -4.8970 C.2     1  UNL1       -0.0600
     16  C         20.0190  -20.1680   -5.3240 C.3     1  UNL1        0.0480
     17  C         18.6440  -21.2950   -3.5460 C.2     1  UNL1        0.0070
     18  C         17.5810  -22.1090   -3.1540 C.2     1  UNL1        0.0090
     19  C         16.7180  -22.6770   -4.1050 C.2     1  UNL1       -0.0350
     20  C         15.5970  -23.5560   -3.6310 C.3     1  UNL1        0.0500
     21  C         21.1990  -23.1560   -9.8000 C.2     1  UNL1        0.2560
     22  N         21.8710  -22.3590  -10.7090 N.am    1  UNL1       -0.3230
     23  H         21.3300  -21.6470  -11.1790 H       1  UNL1        0.1690
     24  O         21.6840  -23.9660   -9.0210 O.2     1  UNL1       -0.2670
     25  C         23.2560  -22.3580  -10.9850 C.2     1  UNL1        0.0370
     26  C         24.1640  -21.4840  -10.3840 C.2     1  UNL1        0.0290
     27  C         25.5220  -21.5520  -10.7020 C.2     1  UNL1        0.0050
     28  C         25.9790  -22.4930  -11.6220 C.2     1  UNL1        0.0370
     29  C         25.0860  -23.3720  -12.2330 C.2     1  UNL1        0.0700
     30  C         23.7280  -23.3050  -11.9080 C.2     1  UNL1        0.0660
     31  O         25.6620  -24.2450  -13.1150 O.2     1  UNL1       -0.3560
     32  C         25.6280  -23.8910  -14.4920 C.3     1  UNL1        0.2100
@<TRIPOS>BOND
     1    32    31    1
     2    31    29    1
     3    29    30    1
     4    29    28    2
     5    30    25    2
     6    28    27    1
     7    23    22    1
     8    25    22    1
     9    25    26    1
    10     2     3    1
    11     2     1    2
    12    22    21   am
    13    27    26    2
    14     3     4    2
    15    21     1    1
    16    21    24    2
    17     1     7    1
    18     5     4    1
    19     4     6    1
    20     7     6    2
    21     6     8    1
    22    10     8    2
    23     8     9    2
    24     8    11    1
    25    11    12    1
    26    11    13    1
    27    14    13    2
    28    14    15    1
    29    13    19    1
    30    16    15    1
    31    15    17    2
    32    19    20    1
    33    19    18    2
    34    17    18    1
