@<TRIPOS>MOLECULE
61514_out_ligand_01.pdbqt
 29 31 0 0 0
SMALL
GASTEIGER

@<TRIPOS>ATOM
      1  C         17.5820  -23.5430   -8.6570 C.2     1  UNL1        0.0810
      2  C         18.9720  -23.7470   -8.6620 C.2     1  UNL1        0.0420
      3  C         19.7680  -23.1570   -9.6490 C.2     1  UNL1        0.0330
      4  C         19.1770  -22.3680  -10.6370 C.2     1  UNL1        0.0170
      5  C         17.7950  -22.1590  -10.6280 C.2     1  UNL1        0.0090
      6  C         16.9750  -22.7430   -9.6450 C.2     1  UNL1       -0.0390
      7  C         15.4990  -22.4670   -9.6990 C.3     1  UNL1        0.0500
      8  S         16.6500  -24.3200   -7.3380 S.O2    1  UNL1        0.2460
      9  O         15.5220  -24.9940   -7.9480 O.2     1  UNL1       -0.2060
     10  O         17.5720  -25.0310   -6.4810 O.2     1  UNL1       -0.2060
     11  N         16.0370  -22.9390   -6.5370 N.pl3   1  UNL1       -0.1810
     12  H         15.1320  -23.1940   -6.1400 H       1  UNL1        0.1460
     13  C         16.9100  -22.4320   -5.5100 C.2     1  UNL1        0.0290
     14  C         16.6500  -22.6930   -4.1570 C.2     1  UNL1       -0.0400
     15  C         17.4880  -22.1180   -3.1890 C.2     1  UNL1        0.0090
     16  C         15.4910  -23.5370   -3.7140 C.3     1  UNL1        0.0500
     17  C         18.5690  -21.3180   -3.5620 C.2     1  UNL1        0.0070
     18  C         18.8400  -21.0760   -4.9100 C.2     1  UNL1       -0.0600
     19  C         19.9790  -20.1870   -5.3170 C.3     1  UNL1        0.0480
     20  C         17.9930  -21.6250   -5.8810 C.2     1  UNL1        0.0310
     21  C         21.2310  -23.4240   -9.6300 C.2     1  UNL1        0.2520
     22  O         21.7060  -24.1450   -8.7600 O.2     1  UNL1       -0.2680
     23  N         21.9780  -22.8040  -10.6110 N.am    1  UNL1       -0.3520
     24  H         21.5440  -22.0800  -11.1660 H       1  UNL1        0.1630
     25  C         23.4260  -22.9340  -10.6460 C.3     1  UNL1        0.0840
     26  C         23.9570  -23.0690  -12.0830 C.3     1  UNL1        0.0250
     27  C         24.5510  -21.7080  -12.4130 C.3     1  UNL1        0.0020
     28  C         25.1620  -21.2760  -11.0930 C.3     1  UNL1        0.0020
     29  C         24.1200  -21.6910  -10.0630 C.3     1  UNL1        0.0250
@<TRIPOS>BOND
     1    27    26    1
     2    27    28    1
     3    26    25    1
     4    24    23    1
     5    28    29    1
     6    25    23    1
     7    25    29    1
     8     4     5    2
     9     4     3    1
    10     5     6    1
    11    23    21   am
    12     7     6    1
    13     3    21    1
    14     3     2    2
    15     6     1    2
    16    21    22    2
    17     2     1    1
    18     1     8    1
    19     9     8    2
    20     8    11    1
    21     8    10    2
    22    11    12    1
    23    11    13    1
    24    20    13    2
    25    20    18    1
    26    13    14    1
    27    19    18    1
    28    18    17    2
    29    14    16    1
    30    14    15    2
    31    17    15    1
