@<TRIPOS>MOLECULE
61515_out_ligand_01.pdbqt
 36 40 0 0 0
SMALL
GASTEIGER

@<TRIPOS>ATOM
      1  C         21.3100  -23.2020  -10.0530 C.2     1  UNL1        0.0340
      2  C         20.9040  -24.0160   -8.9850 C.2     1  UNL1        0.0310
      3  C         19.5760  -24.0190   -8.5520 C.2     1  UNL1        0.0270
      4  C         18.6510  -23.1910   -9.1900 C.2     1  UNL1        0.0800
      5  C         19.0270  -22.4160  -10.2890 C.2     1  UNL1        0.0270
      6  C         20.3600  -22.4180  -10.7120 C.2     1  UNL1        0.0310
      7  N         22.6830  -23.1910  -10.3590 N.am    1  UNL1       -0.3260
      8  C         23.6220  -22.2330  -10.0110 C.2     1  UNL1        0.2400
      9  O         23.3880  -21.1110   -9.5720 O.2     1  UNL1       -0.2710
     10  H         23.0420  -24.0160  -10.8410 H       1  UNL1        0.1690
     11  C         25.0560  -22.6820  -10.2930 C.3     1  UNL1        0.2350
     12  N         25.5370  -22.0950  -11.5250 N.am    1  UNL1       -0.3040
     13  C         25.9590  -20.7780  -11.6650 C.2     1  UNL1        0.2590
     14  O         25.9970  -19.9130  -10.8070 O.2     1  UNL1       -0.2670
     15  C         26.2470  -20.6030  -13.1030 C.2     1  UNL1        0.0450
     16  C         26.7100  -19.5290  -13.8350 C.2     1  UNL1        0.0180
     17  C         25.9120  -21.7830  -13.7160 C.2     1  UNL1        0.0170
     18  C         26.8280  -19.6980  -15.2260 C.2     1  UNL1        0.0020
     19  C         26.4700  -20.9160  -15.8530 C.2     1  UNL1        0.0120
     20  C         25.9900  -22.0040  -15.0870 C.2     1  UNL1       -0.0230
     21  C         25.5690  -23.2810  -15.5170 C.2     1  UNL1        0.0120
     22  C         25.0980  -24.2310  -14.5790 C.2     1  UNL1        0.0030
     23  C         25.0430  -23.9400  -13.2030 C.2     1  UNL1        0.0310
     24  C         25.4680  -22.6940  -12.7930 C.2     1  UNL1        0.0500
     25  S         16.9840  -23.1050   -8.5780 S.O2    1  UNL1        0.2630
     26  O         16.1210  -23.7310   -9.5620 O.2     1  UNL1       -0.2000
     27  O         16.7410  -21.7580   -8.1100 O.2     1  UNL1       -0.2000
     28  N         17.0230  -24.1610   -7.2530 N.pl3   1  UNL1       -0.2810
     29  H         17.7810  -24.8350   -7.3350 H       1  UNL1        0.1790
     30  C         16.7220  -23.6490   -5.9600 C.2     1  UNL1        0.0440
     31  C         15.4400  -23.7810   -5.4250 C.2     1  UNL1        0.0300
     32  C         15.1390  -23.2220   -4.1840 C.2     1  UNL1        0.0040
     33  C         16.1210  -22.5270   -3.4780 C.2     1  UNL1        0.0240
     34  C         17.4000  -22.3950   -4.0200 C.2     1  UNL1        0.0360
     35 CL         18.6070  -21.5230   -3.1530 Cl      1  UNL1       -0.0840
     36  C         17.7080  -22.9550   -5.2580 C.2     1  UNL1        0.0540
@<TRIPOS>BOND
     1    19    18    2
     2    19    20    1
     3    21    20    1
     4    21    22    2
     5    18    16    1
     6    20    17    2
     7    22    23    1
     8    16    15    2
     9    17    15    1
    10    17    24    1
    11    23    24    2
    12    15    13    1
    13    24    12    1
    14    13    12   am
    15    13    14    2
    16    12    11    1
    17    10     7    1
    18     6     5    1
    19     6     1    2
    20     7     1    1
    21     7     8   am
    22    11     8    1
    23     5     4    2
    24     1     2    1
    25     8     9    2
    26    26    25    2
    27     4    25    1
    28     4     3    1
    29     2     3    2
    30    25    27    2
    31    25    28    1
    32    29    28    1
    33    28    30    1
    34    30    31    2
    35    30    36    1
    36    31    32    1
    37    36    34    2
    38    32    33    2
    39    34    33    1
    40    34    35    1
