@<TRIPOS>MOLECULE
6165_out_ligand_01.pdbqt
 33 36 0 0 0
SMALL
GASTEIGER

@<TRIPOS>ATOM
      1  C         23.7030  -21.6370  -10.3930 C.ar    1  UNL1        0.1920
      2  N         24.9520  -21.2370  -10.3560 N.ar    1  UNL1       -0.1220
      3  N         25.4170  -21.2030  -11.6460 N.ar    1  UNL1       -0.1280
      4  C         24.4490  -21.5960  -12.4490 C.ar    1  UNL1        0.1640
      5  N         23.3300  -21.8700  -11.6880 N.ar    1  UNL1       -0.3070
      6  S         22.6820  -21.8650   -9.0200 S.3     1  UNL1       -0.0810
      7  C         22.5630  -23.6780   -8.9770 C.3     1  UNL1        0.1850
      8  C         21.1620  -24.1270   -8.5930 C.2     1  UNL1        0.2310
      9  N         20.4610  -23.1850   -7.8580 N.am    1  UNL1       -0.3260
     10  H         20.8690  -22.2520   -7.8330 H       1  UNL1        0.1690
     11  O         20.7570  -25.2390   -8.9300 O.2     1  UNL1       -0.2720
     12  C         19.2110  -23.3440   -7.2080 C.2     1  UNL1        0.0410
     13  C         18.3770  -24.4340   -7.4870 C.2     1  UNL1        0.0300
     14  C         17.1730  -24.6100   -6.8080 C.2     1  UNL1        0.0030
     15  C         16.7850  -23.7010   -5.8320 C.2     1  UNL1        0.0070
     16  C         17.5940  -22.5980   -5.5220 C.2     1  UNL1       -0.0540
     17  C         17.1200  -21.6500   -4.4520 C.3     1  UNL1        0.0490
     18  C         18.8160  -22.4060   -6.2180 C.2     1  UNL1       -0.0290
     19  C         19.6870  -21.2070   -5.9170 C.3     1  UNL1        0.0510
     20  C         22.0330  -22.2950  -12.1760 C.3     1  UNL1        0.1370
     21  C         21.0760  -21.1210  -12.3790 C.3     1  UNL1        0.0590
     22  C         19.7310  -21.3910  -11.7540 C.2     1  UNL1       -0.0570
     23  C         18.7300  -20.4100  -11.7750 C.2     1  UNL1        0.0070
     24  C         17.4810  -20.6650  -11.2030 C.2     1  UNL1        0.0010
     25  C         17.2220  -21.9030  -10.6140 C.2     1  UNL1        0.0000
     26  C         18.2100  -22.8870  -10.5960 C.2     1  UNL1        0.0010
     27  C         19.4600  -22.6330  -11.1650 C.2     1  UNL1        0.0070
     28  C         24.5510  -21.7250  -13.8960 C.2     1  UNL1        0.0150
     29  C         24.8140  -22.9640  -14.4830 C.2     1  UNL1        0.0340
     30  C         24.8910  -23.0330  -15.8630 C.2     1  UNL1        0.1170
     31  N         24.7350  -21.9650  -16.6750 N.2     1  UNL1       -0.2730
     32  C         24.5120  -20.7710  -16.0820 C.2     1  UNL1        0.1170
     33  C         24.4110  -20.6010  -14.7120 C.2     1  UNL1        0.0340
@<TRIPOS>BOND
     1    31    32    2
     2    31    30    1
     3    32    33    1
     4    30    29    2
     5    33    28    2
     6    29    28    1
     7    28     4    1
     8     4     5   ar
     9     4     3   ar
    10    21    20    1
    11    21    22    1
    12    20     5    1
    13    23    22    2
    14    23    24    1
    15    22    27    1
    16     5     1   ar
    17     3     2   ar
    18    24    25    2
    19    27    26    2
    20    25    26    1
    21     1     2   ar
    22     1     6    1
    23     6     7    1
    24     7     8    1
    25    11     8    2
    26     8     9   am
    27     9    10    1
    28     9    12    1
    29    13    12    2
    30    13    14    1
    31    12    18    1
    32    14    15    2
    33    18    19    1
    34    18    16    2
    35    15    16    1
    36    16    17    1
