@<TRIPOS>MOLECULE
61684_out_ligand_01.pdbqt
 40 43 0 0 0
SMALL
GASTEIGER

@<TRIPOS>ATOM
      1  N         23.6460  -21.9470  -11.7180 N.am    1  UNL1       -0.3340
      2  C         24.0950  -21.3950  -10.5220 C.2     1  UNL1        0.2210
      3  O         25.2000  -20.8560  -10.4380 O.2     1  UNL1       -0.2730
      4  C         24.5250  -21.9090  -12.9220 C.3     1  UNL1        0.1830
      5  C         25.1910  -23.2830  -13.1810 C.2     1  UNL1        0.2400
      6  N         25.0500  -23.7960  -14.4520 N.am    1  UNL1       -0.3640
      7  C         25.4650  -25.1410  -14.7570 C.3     1  UNL1        0.1490
      8  H         24.2740  -23.4120  -14.9960 H       1  UNL1        0.1610
      9  O         25.7500  -23.9040  -12.2760 O.2     1  UNL1       -0.2710
     10  C         23.8310  -21.3060  -14.1600 C.3     1  UNL1        0.0730
     11  C         24.7640  -20.4490  -14.9840 C.2     1  UNL1       -0.0560
     12  C         25.5360  -19.4490  -14.3750 C.2     1  UNL1        0.0070
     13  C         26.4180  -18.6780  -15.1350 C.2     1  UNL1        0.0010
     14  C         26.5400  -18.9010  -16.5050 C.2     1  UNL1        0.0000
     15  C         25.7770  -19.8920  -17.1200 C.2     1  UNL1        0.0010
     16  C         24.8930  -20.6630  -16.3640 C.2     1  UNL1        0.0070
     17  C         22.4350  -22.7680  -11.8130 C.3     1  UNL1        0.1650
     18  C         21.1260  -22.0230  -11.6610 C.2     1  UNL1       -0.0400
     19  C         19.9860  -22.7390  -11.2420 C.2     1  UNL1        0.0120
     20  C         18.7510  -22.1020  -11.1110 C.2     1  UNL1        0.0430
     21  C         18.6450  -20.7490  -11.4040 C.2     1  UNL1        0.1160
     22  F         17.4610  -20.1370  -11.2760 F       1  UNL1       -0.2060
     23  C         19.7490  -20.0250  -11.8390 C.2     1  UNL1        0.0430
     24  C         20.9850  -20.6610  -11.9750 C.2     1  UNL1        0.0120
     25  C         23.1690  -21.4660   -9.3190 C.3     1  UNL1        0.1070
     26  C         23.0180  -22.9000   -8.8080 C.3     1  UNL1        0.0470
     27  C         21.5970  -23.1780   -8.3810 C.2     1  UNL1       -0.0580
     28  C         20.8860  -22.2310   -7.6280 C.2     1  UNL1        0.0090
     29  C         19.5880  -22.5040   -7.1920 C.2     1  UNL1        0.0250
     30  C         18.9980  -23.7290   -7.5140 C.2     1  UNL1        0.0740
     31  C         19.6950  -24.6830   -8.2610 C.2     1  UNL1        0.0250
     32  C         20.9930  -24.4060   -8.6920 C.2     1  UNL1        0.0090
     33  S         17.3690  -24.1130   -6.9280 S.O2    1  UNL1        0.2410
     34  O         16.5160  -24.2790   -8.0830 O.2     1  UNL1       -0.2060
     35  O         17.4800  -25.1310   -5.9060 O.2     1  UNL1       -0.2060
     36  N         16.9680  -22.6730   -6.1110 N.3     1  UNL1       -0.2110
     37  H         17.4750  -22.6730   -5.2230 H       1  UNL1        0.1400
     38  C         15.5240  -22.4650   -5.9260 C.3     1  UNL1        0.0710
     39  C         14.9660  -22.2160   -4.5530 C.3     1  UNL1        0.0220
     40  C         14.6540  -23.4990   -5.2710 C.3     1  UNL1        0.0220
@<TRIPOS>BOND
     1    15    14    2
     2    15    16    1
     3    14    13    1
     4    16    11    2
     5    13    12    2
     6     8     6    1
     7    11    12    1
     8    11    10    1
     9     7     6    1
    10     6     5   am
    11    10     4    1
    12     5     4    1
    13     5     9    2
    14     4     1    1
    15    24    23    1
    16    24    18    2
    17    23    21    2
    18    17     1    1
    19    17    18    1
    20     1     2   am
    21    18    19    1
    22    21    22    1
    23    21    20    1
    24    19    20    2
    25     2     3    2
    26     2    25    1
    27    25    26    1
    28    26    27    1
    29    32    27    2
    30    32    31    1
    31    27    28    1
    32    31    30    2
    33    34    33    2
    34    28    29    2
    35    30    29    1
    36    30    33    1
    37    33    36    1
    38    33    35    2
    39    36    38    1
    40    36    37    1
    41    38    40    1
    42    38    39    1
    43    40    39    1
