@<TRIPOS>MOLECULE
6170_out_ligand_01.pdbqt
 33 36 0 0 0
SMALL
GASTEIGER

@<TRIPOS>ATOM
      1  C         23.6680  -21.6000  -10.3760 C.ar    1  UNL1        0.1920
      2  N         24.9090  -21.1760  -10.3240 N.ar    1  UNL1       -0.1220
      3  N         25.4070  -21.1880  -11.6020 N.ar    1  UNL1       -0.1280
      4  C         24.4560  -21.6090  -12.4150 C.ar    1  UNL1        0.1660
      5  N         23.3250  -21.8750  -11.6700 N.ar    1  UNL1       -0.3070
      6  S         22.6160  -21.8010   -9.0240 S.3     1  UNL1       -0.0810
      7  C         22.5700  -23.6110   -8.8880 C.3     1  UNL1        0.1850
      8  C         21.1670  -24.0860   -8.5420 C.2     1  UNL1        0.2310
      9  N         20.4460  -23.1770   -7.7830 N.am    1  UNL1       -0.3260
     10  H         20.8520  -22.2450   -7.7120 H       1  UNL1        0.1690
     11  O         20.7750  -25.1820   -8.9360 O.2     1  UNL1       -0.2720
     12  C         19.1710  -23.3590   -7.1900 C.2     1  UNL1        0.0410
     13  C         18.3610  -24.4530   -7.5180 C.2     1  UNL1        0.0300
     14  C         17.1200  -24.6370   -6.9110 C.2     1  UNL1        0.0030
     15  C         16.6700  -23.7310   -5.9600 C.2     1  UNL1        0.0070
     16  C         17.4520  -22.6240   -5.6010 C.2     1  UNL1       -0.0540
     17  C         16.9030  -21.6740   -4.5690 C.3     1  UNL1        0.0490
     18  C         18.7160  -22.4300   -6.2160 C.2     1  UNL1       -0.0290
     19  C         19.5600  -21.2290   -5.8570 C.3     1  UNL1        0.0510
     20  C         22.0450  -22.3250  -12.1760 C.3     1  UNL1        0.1370
     21  C         21.0830  -21.1670  -12.4370 C.3     1  UNL1        0.0590
     22  C         19.7540  -21.4120  -11.7750 C.2     1  UNL1       -0.0570
     23  C         18.7540  -20.4310  -11.8010 C.2     1  UNL1        0.0070
     24  C         17.5090  -20.6760  -11.2230 C.2     1  UNL1        0.0010
     25  C         17.2500  -21.9030  -10.6130 C.2     1  UNL1        0.0000
     26  C         18.2390  -22.8850  -10.5830 C.2     1  UNL1        0.0010
     27  C         19.4840  -22.6440  -11.1630 C.2     1  UNL1        0.0070
     28  C         24.5780  -21.7820  -13.8510 C.2     1  UNL1        0.0290
     29  C         25.0500  -22.9780  -14.3950 C.2     1  UNL1        0.0180
     30  C         25.1320  -23.1180  -15.7790 C.2     1  UNL1        0.0200
     31  C         24.7410  -22.0530  -16.5710 C.2     1  UNL1        0.1160
     32  N         24.2870  -20.8790  -16.0800 N.2     1  UNL1       -0.2720
     33  C         24.2300  -20.7660  -14.7310 C.2     1  UNL1        0.1310
@<TRIPOS>BOND
     1    31    32    2
     2    31    30    1
     3    32    33    1
     4    30    29    2
     5    33    28    2
     6    29    28    1
     7    28     4    1
     8    21    20    1
     9    21    22    1
    10     4     5   ar
    11     4     3   ar
    12    20     5    1
    13    23    22    2
    14    23    24    1
    15    22    27    1
    16     5     1   ar
    17     3     2   ar
    18    24    25    2
    19    27    26    2
    20    25    26    1
    21     1     2   ar
    22     1     6    1
    23     6     7    1
    24    11     8    2
    25     7     8    1
    26     8     9   am
    27     9    10    1
    28     9    12    1
    29    13    12    2
    30    13    14    1
    31    12    18    1
    32    14    15    2
    33    18    19    1
    34    18    16    2
    35    15    16    1
    36    16    17    1
