@<TRIPOS>MOLECULE
6174_out_ligand_01.pdbqt
 39 43 0 0 0
SMALL
GASTEIGER

@<TRIPOS>ATOM
      1  C         18.6820  -22.0550  -12.0120 C.3     1  UNL1        0.1850
      2  C         17.9070  -22.0200  -10.7060 C.2     1  UNL1        0.2320
      3  N         18.4830  -22.8030   -9.7180 N.am    1  UNL1       -0.3200
      4  H         19.4610  -23.0530   -9.8220 H       1  UNL1        0.1690
      5  O         16.9200  -21.3030  -10.5720 O.2     1  UNL1       -0.2720
      6  C         18.0030  -22.8250   -8.4270 C.ar    1  UNL1        0.0920
      7  S         19.1280  -22.1990   -7.3120 S.2     1  UNL1       -0.0750
      8  C         17.9940  -22.2650   -6.0520 C.ar    1  UNL1       -0.0080
      9  C         16.7970  -22.8400   -6.4440 C.ar    1  UNL1       -0.0270
     10  C         18.3100  -21.7500   -4.6790 C.3     1  UNL1        0.0510
     11  C         15.6850  -23.0820   -5.4650 C.3     1  UNL1        0.0410
     12  C         16.8210  -23.2300   -7.8390 C.ar    1  UNL1        0.0670
     13  C         15.8660  -22.2600   -4.1750 C.3     1  UNL1        0.0090
     14  C         17.3110  -22.2910   -3.6330 C.3     1  UNL1       -0.0140
     15  C         17.7080  -23.6920   -3.1540 C.3     1  UNL1        0.0100
     16  C         15.7900  -24.0000   -8.5210 C.2     1  UNL1        0.2320
     17  N         15.1860  -23.3550   -9.5660 N.am    1  UNL1       -0.2680
     18  H         15.7550  -22.6700  -10.0470 H       1  UNL1        0.1270
     19  H         14.6840  -23.9920  -10.1740 H       1  UNL1        0.1270
     20  O         15.4710  -25.1390   -8.1980 O.2     1  UNL1       -0.2740
     21  S         19.7570  -20.5950  -12.1470 S.3     1  UNL1       -0.0810
     22  C         21.3140  -21.3730  -11.8250 C.ar    1  UNL1        0.1900
     23  N         22.1990  -21.4170  -12.8270 N.ar    1  UNL1       -0.2220
     24  C         23.3890  -21.9990  -12.5660 C.ar    1  UNL1        0.0790
     25  C         23.6770  -22.6000  -11.3460 C.ar    1  UNL1        0.0060
     26  C         24.3800  -22.0030  -13.6630 C.2     1  UNL1       -0.0000
     27  C         22.6600  -22.5850  -10.3980 C.ar    1  UNL1        0.1510
     28  C         24.9910  -23.3150  -11.1640 C.3     1  UNL1        0.0480
     29  N         21.4890  -21.9390  -10.6290 N.ar    1  UNL1       -0.2180
     30  C         26.1270  -22.6660  -11.9700 C.3     1  UNL1        0.0440
     31  C         25.7210  -22.3570  -13.3910 C.2     1  UNL1       -0.0450
     32  C         26.6850  -22.3380  -14.4100 C.2     1  UNL1        0.0080
     33  C         26.3240  -21.9930  -15.7080 C.2     1  UNL1        0.0010
     34  C         25.0050  -21.6570  -15.9980 C.2     1  UNL1        0.0010
     35  C         24.0430  -21.6600  -14.9850 C.2     1  UNL1        0.0140
     36  C         22.8310  -23.3010   -9.0660 C.3     1  UNL1        0.4350
     37  F         22.4970  -22.5130   -8.0020 F       1  UNL1       -0.1650
     38  F         22.0370  -24.4050   -8.9590 F       1  UNL1       -0.1650
     39  F         24.0970  -23.7270   -8.8190 F       1  UNL1       -0.1650
@<TRIPOS>BOND
     1    34    33    2
     2    34    35    1
     3    33    32    1
     4    35    26    2
     5    32    31    2
     6    26    31    1
     7    26    24    1
     8    31    30    1
     9    23    24   ar
    10    23    22   ar
    11    24    25   ar
    12    21     1    1
    13    21    22    1
    14     1     2    1
    15    30    28    1
    16    22    29   ar
    17    25    28    1
    18    25    27   ar
    19     2     5    2
    20     2     3   am
    21    29    27   ar
    22    27    36    1
    23    19    17    1
    24    18    17    1
    25     4     3    1
    26     3     6    1
    27    17    16   am
    28    36    38    1
    29    36    39    1
    30    36    37    1
    31    16    20    2
    32    16    12    1
    33     6    12   ar
    34     6     7   ar
    35    12     9   ar
    36     7     8   ar
    37     9     8   ar
    38     9    11    1
    39     8    10    1
    40    11    13    1
    41    10    14    1
    42    13    14    1
    43    14    15    1
