@<TRIPOS>MOLECULE
617_out_ligand_01.pdbqt
 39 42 0 0 0
SMALL
GASTEIGER

@<TRIPOS>ATOM
      1  C         20.7550  -22.0970  -11.3980 C.2     1  UNL1        0.2700
      2  O         21.1510  -21.7610  -12.5110 O.2     1  UNL1       -0.2660
      3  N         21.5820  -22.6510  -10.4390 N.am    1  UNL1       -0.2630
      4  H         21.1970  -23.2200   -9.6850 H       1  UNL1        0.1900
      5  C         19.3190  -21.9670  -11.0320 C.2     1  UNL1        0.0350
      6  C         18.4690  -21.0550  -11.6750 C.2     1  UNL1        0.0170
      7  C         17.1320  -20.9440  -11.2840 C.2     1  UNL1        0.0030
      8  C         16.6360  -21.7500  -10.2600 C.2     1  UNL1        0.0250
      9  C         17.4770  -22.6800   -9.6420 C.2     1  UNL1        0.0750
     10  C         18.8160  -22.7930  -10.0180 C.2     1  UNL1        0.0410
     11  S         16.8400  -23.6810   -8.3200 S.O2    1  UNL1        0.2450
     12  O         15.7220  -24.4430   -8.8320 O.2     1  UNL1       -0.2060
     13  O         17.9660  -24.3180   -7.6740 O.2     1  UNL1       -0.2060
     14  N         16.1680  -22.4820   -7.3060 N.pl3   1  UNL1       -0.1800
     15  H         15.2490  -22.8270   -7.0220 H       1  UNL1        0.1460
     16  C         16.9790  -22.2020   -6.1470 C.2     1  UNL1        0.0400
     17  C         16.5780  -22.5980   -4.8640 C.2     1  UNL1        0.0330
     18  C         17.3520  -22.2530   -3.7540 C.2     1  UNL1        0.0210
     19 BR         15.0190  -23.6430   -4.5740 Br      1  UNL1       -0.0490
     20  C         18.5170  -21.4990   -3.9220 C.2     1  UNL1        0.0080
     21  C         18.9170  -21.0790   -5.1950 C.2     1  UNL1       -0.0600
     22  C         20.1730  -20.2750   -5.3640 C.3     1  UNL1        0.0480
     23  C         18.1440  -21.4410   -6.3070 C.2     1  UNL1        0.0320
     24  N         22.8590  -23.0580  -10.8670 N.am    1  UNL1       -0.2670
     25  C         23.9380  -22.3040  -10.4480 C.2     1  UNL1        0.2450
     26  O         23.7770  -21.2240   -9.8730 O.2     1  UNL1       -0.2710
     27  H         22.9690  -24.0530  -11.0740 H       1  UNL1        0.1900
     28  C         25.3080  -22.9300  -10.6440 C.3     1  UNL1        0.1840
     29  S         26.3910  -22.0110  -11.7950 S.3     1  UNL1       -0.1180
     30  C         25.8870  -22.6970  -13.3890 C.2     1  UNL1        0.0300
     31  C         25.6800  -24.0880  -13.4070 C.2     1  UNL1        0.0210
     32  C         25.2700  -24.7260  -14.5710 C.2     1  UNL1        0.0020
     33  C         25.0730  -23.9790  -15.7260 C.2     1  UNL1        0.0140
     34  C         25.2960  -22.5920  -15.7270 C.2     1  UNL1       -0.0060
     35  C         25.1030  -21.8450  -16.8960 C.2     1  UNL1        0.0150
     36  C         25.7190  -21.9230  -14.5540 C.2     1  UNL1        0.0830
     37  C         25.3320  -20.4760  -16.8920 C.2     1  UNL1        0.0200
     38  C         25.7530  -19.9000  -15.7150 C.2     1  UNL1        0.1170
     39  N         25.9480  -20.5890  -14.5700 N.2     1  UNL1       -0.2590
@<TRIPOS>BOND
     1    35    37    2
     2    35    34    1
     3    37    38    1
     4    34    33    2
     5    34    36    1
     6    33    32    1
     7    38    39    2
     8    32    31    2
     9    39    36    1
    10    36    30    2
    11    31    30    1
    12    30    29    1
    13     2     1    2
    14    29    28    1
    15     6     7    1
    16     6     5    2
    17     1     5    1
    18     1     3   am
    19     7     8    2
    20    27    24    1
    21     5    10    1
    22    24    25   am
    23    24     3    1
    24    28    25    1
    25    25    26    2
    26     3     4    1
    27     8     9    1
    28    10     9    2
    29     9    11    1
    30    12    11    2
    31    11    13    2
    32    11    14    1
    33    14    15    1
    34    14    16    1
    35    23    16    2
    36    23    21    1
    37    16    17    1
    38    22    21    1
    39    21    20    2
    40    17    19    1
    41    17    18    2
    42    20    18    1
