@<TRIPOS>MOLECULE
6189_out_ligand_01.pdbqt
 36 38 0 0 0
SMALL
GASTEIGER

@<TRIPOS>ATOM
      1  N         23.4610  -22.6090  -10.4650 N.3     1  UNL1       -0.1970
      2  S         25.0290  -22.2090  -10.9900 S.O2    1  UNL1        0.2440
      3  O         25.9530  -23.0840  -10.3000 O.2     1  UNL1       -0.2060
      4  O         25.1570  -20.7710  -10.9150 O.2     1  UNL1       -0.2060
      5  C         25.0060  -22.7090  -12.6880 C.2     1  UNL1        0.0740
      6  C         25.3300  -24.0170  -13.0410 C.2     1  UNL1        0.0270
      7  C         25.3120  -24.3830  -14.3890 C.2     1  UNL1        0.0380
      8  C         24.9720  -23.4530  -15.3810 C.2     1  UNL1        0.0680
      9  C         24.6510  -22.1450  -15.0150 C.2     1  UNL1        0.0380
     10  C         24.6640  -21.7700  -13.6680 C.2     1  UNL1        0.0270
     11  O         24.9920  -23.9490  -16.6560 O.2     1  UNL1       -0.3560
     12  C         24.1840  -23.2830  -17.6240 C.3     1  UNL1        0.2100
     13  C         22.4070  -21.5890  -10.7360 C.3     1  UNL1        0.1120
     14  C         21.4810  -22.0650  -11.8610 C.3     1  UNL1        0.0540
     15  C         20.0320  -21.8400  -11.5010 C.2     1  UNL1       -0.0570
     16  C         19.4350  -20.5890  -11.7060 C.2     1  UNL1        0.0070
     17  C         18.0870  -20.3920  -11.4110 C.2     1  UNL1        0.0010
     18  C         17.3240  -21.4440  -10.9070 C.2     1  UNL1        0.0000
     19  C         17.9080  -22.6920  -10.6970 C.2     1  UNL1        0.0010
     20  C         19.2570  -22.8900  -10.9920 C.2     1  UNL1        0.0070
     21  C         23.3920  -23.1930   -9.0920 C.3     1  UNL1        0.2100
     22  C         21.9590  -23.6660   -8.8320 C.2     1  UNL1        0.2360
     23  O         21.5620  -24.7410   -9.2770 O.2     1  UNL1       -0.2720
     24  N         21.2320  -22.7870   -8.0500 N.am    1  UNL1       -0.3260
     25  H         21.7360  -21.9630   -7.7180 H       1  UNL1        0.1690
     26  C         19.9420  -22.9600   -7.5130 C.2     1  UNL1        0.0340
     27  C         19.4280  -21.9020   -6.7540 C.2     1  UNL1        0.0300
     28  C         18.1750  -22.0010   -6.1410 C.2     1  UNL1        0.0190
     29  C         17.4140  -23.1620   -6.2930 C.2     1  UNL1        0.0320
     30  C         17.9210  -24.2200   -7.0580 C.2     1  UNL1        0.0190
     31  C         19.1740  -24.1140   -7.6710 C.2     1  UNL1        0.0300
     32  C         16.0920  -23.3250   -5.6360 C.2     1  UNL1        0.2490
     33  N         15.1080  -22.4380   -5.9760 N.am    1  UNL1       -0.3660
     34  H         15.1530  -21.9000   -6.8320 H       1  UNL1        0.1590
     35  H         14.1870  -22.6490   -5.6130 H       1  UNL1        0.1590
     36  O         15.8720  -24.2300   -4.8390 O.2     1  UNL1       -0.2680
@<TRIPOS>BOND
     1    12    11    1
     2    11     8    1
     3     8     9    2
     4     8     7    1
     5     9    10    1
     6     7     6    2
     7    10     5    2
     8     6     5    1
     9     5     2    1
    10    14    15    1
    11    14    13    1
    12    16    15    2
    13    16    17    1
    14    15    20    1
    15    17    18    2
    16    20    19    2
    17     2     4    2
    18     2     1    1
    19     2     3    2
    20    18    19    1
    21    13     1    1
    22     1    21    1
    23    23    22    2
    24    21    22    1
    25    22    24   am
    26    24    25    1
    27    24    26    1
    28    31    26    2
    29    31    30    1
    30    26    27    1
    31    30    29    2
    32    34    33    1
    33    27    28    2
    34    29    28    1
    35    29    32    1
    36    33    32   am
    37    33    35    1
    38    32    36    2
