@<TRIPOS>MOLECULE
618_out_ligand_01.pdbqt
 39 41 0 0 0
SMALL
GASTEIGER

@<TRIPOS>ATOM
      1  C         20.9390  -22.1400  -10.7660 C.2     1  UNL1        0.2560
      2  O         21.5850  -22.3190   -9.7420 O.2     1  UNL1       -0.2670
      3  N         21.4260  -22.0560  -12.0560 N.am    1  UNL1       -0.3230
      4  H         20.7420  -21.9930  -12.8010 H       1  UNL1        0.1690
      5  C         19.4600  -22.0160  -10.6420 C.2     1  UNL1        0.0330
      6  C         18.7310  -21.1060  -11.4210 C.2     1  UNL1        0.0170
      7  C         17.3450  -21.0060  -11.2690 C.2     1  UNL1        0.0030
      8  C         16.6860  -21.8010  -10.3310 C.2     1  UNL1        0.0250
      9  C         17.4240  -22.6830   -9.5330 C.2     1  UNL1        0.0800
     10  C         18.8070  -22.8050   -9.6910 C.2     1  UNL1        0.0420
     11  S         16.5930  -23.6960   -8.3290 S.O2    1  UNL1        0.2630
     12  O         17.6050  -24.4720   -7.6470 O.2     1  UNL1       -0.2000
     13  O         15.4780  -24.3410   -8.9890 O.2     1  UNL1       -0.2000
     14  N         16.0120  -22.5700   -7.2110 N.pl3   1  UNL1       -0.2790
     15  H         15.0210  -22.7210   -7.0170 H       1  UNL1        0.1790
     16  C         16.8260  -22.2300   -6.0820 C.2     1  UNL1        0.0600
     17  C         16.4850  -22.6670   -4.7950 C.2     1  UNL1        0.0380
     18  C         17.3060  -22.3640   -3.7070 C.2     1  UNL1        0.0220
     19 BR         14.9130  -23.6820   -4.4750 Br      1  UNL1       -0.0490
     20  C         18.4680  -21.6130   -3.9000 C.2     1  UNL1        0.0080
     21  C         18.8060  -21.1460   -5.1740 C.2     1  UNL1       -0.0600
     22  C         20.0650  -20.3570   -5.3880 C.3     1  UNL1        0.0480
     23  C         17.9830  -21.4670   -6.2630 C.2     1  UNL1        0.0380
     24  C         22.7740  -22.1300  -12.4700 C.2     1  UNL1        0.0360
     25  C         23.7470  -22.9070  -11.8420 C.2     1  UNL1        0.0460
     26  C         25.0670  -22.9120  -12.3200 C.2     1  UNL1        0.0350
     27  C         25.4200  -22.1500  -13.4400 C.2     1  UNL1        0.0340
     28  C         24.4530  -21.3630  -14.0700 C.2     1  UNL1        0.0350
     29  C         23.1360  -21.3620  -13.5840 C.2     1  UNL1        0.0460
     30  C         26.0670  -23.7690  -11.6360 C.2     1  UNL1        0.2490
     31  N         26.1470  -23.6600  -10.2740 N.am    1  UNL1       -0.3660
     32  H         26.7290  -24.3580   -9.8270 H       1  UNL1        0.1590
     33  H         25.3780  -23.2960   -9.7310 H       1  UNL1        0.1590
     34  O         26.7690  -24.5620  -12.2460 O.2     1  UNL1       -0.2680
     35  C         24.7470  -20.5330  -15.2700 C.2     1  UNL1        0.2490
     36  N         25.4390  -19.3670  -15.0960 N.am    1  UNL1       -0.3660
     37  H         25.6000  -18.9310  -14.2020 H       1  UNL1        0.1590
     38  H         25.5460  -18.7880  -15.9210 H       1  UNL1        0.1590
     39  O         24.3560  -20.8620  -16.3830 O.2     1  UNL1       -0.2680
@<TRIPOS>BOND
     1    39    35    2
     2    38    36    1
     3    35    36   am
     4    35    28    1
     5    36    37    1
     6    28    29    1
     7    28    27    2
     8    29    24    2
     9    27    26    1
    10     4     3    1
    11    24     3    1
    12    24    25    1
    13    26    25    2
    14    26    30    1
    15    34    30    2
    16     3     1   am
    17    30    31   am
    18     6     7    1
    19     6     5    2
    20     7     8    2
    21     1     5    1
    22     1     2    2
    23     5    10    1
    24     8     9    1
    25    31    32    1
    26    31    33    1
    27    10     9    2
    28     9    11    1
    29    13    11    2
    30    11    12    2
    31    11    14    1
    32    14    15    1
    33    14    16    1
    34    23    16    2
    35    23    21    1
    36    16    17    1
    37    22    21    1
    38    21    20    2
    39    17    19    1
    40    17    18    2
    41    20    18    1
