@<TRIPOS>MOLECULE
6191_out_ligand_01.pdbqt
 35 39 0 0 0
SMALL
GASTEIGER

@<TRIPOS>ATOM
      1  C         23.6860  -21.6930  -10.4540 C.ar    1  UNL1        0.1920
      2  N         24.9330  -21.2990  -10.3800 N.ar    1  UNL1       -0.1220
      3  N         25.3990  -21.1400  -11.6610 N.ar    1  UNL1       -0.1280
      4  C         24.4280  -21.4480  -12.4970 C.ar    1  UNL1        0.1640
      5  N         23.3080  -21.7870  -11.7650 N.ar    1  UNL1       -0.3070
      6  S         22.6660  -22.0640   -9.1100 S.3     1  UNL1       -0.0810
      7  C         22.4180  -23.8510   -9.3550 C.3     1  UNL1        0.1850
      8  C         21.1440  -24.3160   -8.6630 C.2     1  UNL1        0.2310
      9  O         20.7930  -25.4920   -8.7530 O.2     1  UNL1       -0.2720
     10  N         20.4870  -23.3070   -7.9750 N.am    1  UNL1       -0.3260
     11  H         20.9850  -22.4230   -7.9210 H       1  UNL1        0.1690
     12  C         19.2560  -23.3890   -7.2640 C.2     1  UNL1        0.0450
     13  C         18.3410  -24.4200   -7.5200 C.2     1  UNL1        0.0300
     14  C         17.1390  -24.5090   -6.8230 C.2     1  UNL1        0.0030
     15  C         16.8300  -23.5670   -5.8510 C.2     1  UNL1        0.0120
     16  C         17.7100  -22.5180   -5.5660 C.2     1  UNL1       -0.0240
     17  C         17.3630  -21.5820   -4.5730 C.2     1  UNL1        0.0120
     18  C         18.9380  -22.4010   -6.2730 C.2     1  UNL1        0.0010
     19  C         18.2010  -20.5160   -4.2570 C.2     1  UNL1        0.0010
     20  C         19.4010  -20.3730   -4.9350 C.2     1  UNL1        0.0010
     21  C         19.7590  -21.2960   -5.9250 C.2     1  UNL1        0.0140
     22  C         22.0240  -22.2060  -12.2910 C.3     1  UNL1        0.1370
     23  C         21.0410  -21.0390  -12.4190 C.3     1  UNL1        0.0590
     24  C         19.7070  -21.3600  -11.7950 C.2     1  UNL1       -0.0570
     25  C         19.4720  -22.6210  -11.2250 C.2     1  UNL1        0.0070
     26  C         18.2340  -22.9160  -10.6510 C.2     1  UNL1        0.0010
     27  C         17.2230  -21.9540  -10.6350 C.2     1  UNL1        0.0000
     28  C         17.4430  -20.7010  -11.2020 C.2     1  UNL1        0.0010
     29  C         18.6780  -20.4030  -11.7810 C.2     1  UNL1        0.0070
     30  C         24.5340  -21.4580  -13.9480 C.2     1  UNL1        0.0150
     31  C         24.5070  -22.6710  -14.6370 C.2     1  UNL1        0.0340
     32  C         24.5750  -22.6420  -16.0180 C.2     1  UNL1        0.1170
     33  N         24.6810  -21.5050  -16.7380 N.2     1  UNL1       -0.2730
     34  C         24.7580  -20.3470  -16.0470 C.2     1  UNL1        0.1170
     35  C         24.6820  -20.2710  -14.6660 C.2     1  UNL1        0.0340
@<TRIPOS>BOND
     1    33    34    2
     2    33    32    1
     3    34    35    1
     4    32    31    2
     5    35    30    2
     6    31    30    1
     7    30     4    1
     8     4     5   ar
     9     4     3   ar
    10    23    22    1
    11    23    24    1
    12    22     5    1
    13    24    29    2
    14    24    25    1
    15    29    28    1
    16     5     1   ar
    17     3     2   ar
    18    25    26    2
    19    28    27    2
    20    26    27    1
    21     1     2   ar
    22     1     6    1
    23     7     6    1
    24     7     8    1
    25     9     8    2
    26     8    10   am
    27    10    11    1
    28    10    12    1
    29    13    12    2
    30    13    14    1
    31    12    18    1
    32    14    15    2
    33    18    21    1
    34    18    16    2
    35    21    20    2
    36    15    16    1
    37    16    17    1
    38    20    19    1
    39    17    19    2
