@<TRIPOS>MOLECULE
6193_out_ligand_01.pdbqt
 33 36 0 0 0
SMALL
GASTEIGER

@<TRIPOS>ATOM
      1  C         23.7000  -21.6470  -10.3690 C.ar    1  UNL1        0.1920
      2  N         24.9580  -21.2950  -10.3110 N.ar    1  UNL1       -0.1220
      3  N         25.4510  -21.3190  -11.5900 N.ar    1  UNL1       -0.1280
      4  C         24.4810  -21.6800  -12.4080 C.ar    1  UNL1        0.1660
      5  N         23.3400  -21.8980  -11.6630 N.ar    1  UNL1       -0.3070
      6  S         22.6500  -21.7450   -9.0040 S.3     1  UNL1       -0.0810
      7  C         22.3720  -23.5350   -8.9300 C.3     1  UNL1        0.1850
      8  C         21.0220  -24.0030   -8.4010 C.2     1  UNL1        0.2310
      9  N         20.3310  -23.1120   -7.6080 N.am    1  UNL1       -0.3260
     10  H         20.8730  -22.3230   -7.2740 H       1  UNL1        0.1690
     11  O         20.6220  -25.1160   -8.7520 O.2     1  UNL1       -0.2720
     12  C         19.0330  -23.2490   -7.0620 C.2     1  UNL1        0.0400
     13  C         18.1970  -24.3300   -7.3710 C.2     1  UNL1        0.0300
     14  C         16.9210  -24.4450   -6.8110 C.2     1  UNL1        0.0090
     15  C         16.4460  -23.4770   -5.9290 C.2     1  UNL1       -0.0610
     16  C         15.0750  -23.6080   -5.3370 C.3     1  UNL1        0.0480
     17  C         17.2630  -22.3800   -5.6280 C.2     1  UNL1        0.0150
     18  C         18.5520  -22.2520   -6.1850 C.2     1  UNL1       -0.0350
     19  C         19.3780  -21.0530   -5.7910 C.3     1  UNL1        0.0500
     20  C         22.0500  -22.3110  -12.1720 C.3     1  UNL1        0.1370
     21  C         21.1010  -21.1300  -12.3710 C.3     1  UNL1        0.0590
     22  C         19.7560  -21.4010  -11.7490 C.2     1  UNL1       -0.0570
     23  C         19.5080  -22.6100  -11.0850 C.2     1  UNL1        0.0070
     24  C         18.2520  -22.8660  -10.5310 C.2     1  UNL1        0.0010
     25  C         17.2360  -21.9170  -10.6380 C.2     1  UNL1        0.0000
     26  C         17.4720  -20.7130  -11.3010 C.2     1  UNL1        0.0010
     27  C         18.7260  -20.4550  -11.8560 C.2     1  UNL1        0.0070
     28  C         24.5910  -21.8230  -13.8470 C.2     1  UNL1        0.0290
     29  C         25.0300  -23.0160  -14.4230 C.2     1  UNL1        0.0180
     30  C         25.1060  -23.1210  -15.8100 C.2     1  UNL1        0.0200
     31  C         24.7450  -22.0230  -16.5740 C.2     1  UNL1        0.1160
     32  N         24.3150  -20.8540  -16.0510 N.2     1  UNL1       -0.2720
     33  C         24.2670  -20.7730  -14.7010 C.2     1  UNL1        0.1310
@<TRIPOS>BOND
     1    31    32    2
     2    31    30    1
     3    32    33    1
     4    30    29    2
     5    33    28    2
     6    29    28    1
     7    28     4    1
     8     4     5   ar
     9     4     3   ar
    10    21    20    1
    11    21    22    1
    12    20     5    1
    13    27    22    2
    14    27    26    1
    15    22    23    1
    16     5     1   ar
    17     3     2   ar
    18    26    25    2
    19    23    24    2
    20    25    24    1
    21     1     2   ar
    22     1     6    1
    23     6     7    1
    24     7     8    1
    25    11     8    2
    26     8     9   am
    27     9    10    1
    28     9    12    1
    29    13    12    2
    30    13    14    1
    31    12    18    1
    32    14    15    2
    33    18    19    1
    34    18    17    2
    35    15    17    1
    36    15    16    1
