@<TRIPOS>MOLECULE
6197_out_ligand_01.pdbqt
 30 33 0 0 0
SMALL
GASTEIGER

@<TRIPOS>ATOM
      1  S         22.7270  -22.1760   -9.1420 S.3     1  UNL1       -0.0810
      2  C         23.5540  -21.7850  -10.6050 C.ar    1  UNL1        0.1920
      3  N         24.8160  -21.4400  -10.7050 N.ar    1  UNL1       -0.1230
      4  N         25.0810  -21.2140  -12.0320 N.ar    1  UNL1       -0.1340
      5  C         23.9770  -21.4390  -12.7180 C.ar    1  UNL1        0.1260
      6  C         23.8210  -21.3340  -14.1890 C.3     1  UNL1        0.0930
      7  N         22.9780  -21.8070  -11.8450 N.ar    1  UNL1       -0.3110
      8  C         21.6100  -22.1440  -12.1870 C.3     1  UNL1        0.1370
      9  C         20.6850  -20.9290  -12.1130 C.3     1  UNL1        0.0590
     10  C         19.3320  -21.2920  -11.5530 C.2     1  UNL1       -0.0570
     11  C         19.0850  -22.5810  -11.0590 C.2     1  UNL1        0.0070
     12  C         17.8290  -22.9110  -10.5480 C.2     1  UNL1        0.0010
     13  C         16.8080  -21.9590  -10.5290 C.2     1  UNL1        0.0000
     14  C         17.0410  -20.6780  -11.0250 C.2     1  UNL1        0.0010
     15  C         18.2970  -20.3440  -11.5360 C.2     1  UNL1        0.0070
     16  C         22.4580  -23.9590   -9.3690 C.3     1  UNL1        0.1850
     17  C         21.1530  -24.3900   -8.7110 C.2     1  UNL1        0.2310
     18  O         20.8140  -25.5720   -8.7360 O.2     1  UNL1       -0.2720
     19  N         20.4570  -23.3430   -8.1260 N.am    1  UNL1       -0.3260
     20  H         20.7880  -22.4140   -8.3710 H       1  UNL1        0.1690
     21  C         19.2750  -23.4100   -7.3370 C.2     1  UNL1        0.0450
     22  C         18.3680  -24.4690   -7.4870 C.2     1  UNL1        0.0300
     23  C         17.2160  -24.5470   -6.7080 C.2     1  UNL1        0.0030
     24  C         16.9490  -23.5670   -5.7620 C.2     1  UNL1        0.0120
     25  C         17.8340  -22.4970   -5.5710 C.2     1  UNL1       -0.0240
     26  C         17.5360  -21.5300   -4.5950 C.2     1  UNL1        0.0120
     27  C         19.0170  -22.3980   -6.3530 C.2     1  UNL1        0.0010
     28  C         18.3900  -20.4540   -4.3620 C.2     1  UNL1        0.0010
     29  C         19.5520  -20.3330   -5.1050 C.2     1  UNL1        0.0010
     30  C         19.8610  -21.2870   -6.0830 C.2     1  UNL1        0.0140
@<TRIPOS>BOND
     1     6     5    1
     2     5     4   ar
     3     5     7   ar
     4     8     9    1
     5     8     7    1
     6     9    10    1
     7     4     3   ar
     8     7     2   ar
     9    10    15    2
    10    10    11    1
    11    15    14    1
    12    11    12    2
    13    14    13    2
    14     3     2   ar
    15     2     1    1
    16    12    13    1
    17    16     1    1
    18    16    17    1
    19    18    17    2
    20    17    19   am
    21    20    19    1
    22    19    21    1
    23    22    21    2
    24    22    23    1
    25    21    27    1
    26    23    24    2
    27    27    30    1
    28    27    25    2
    29    30    29    2
    30    24    25    1
    31    25    26    1
    32    29    28    1
    33    26    28    2
