@<TRIPOS>MOLECULE
6210_out_ligand_01.pdbqt
 34 37 0 0 0
SMALL
GASTEIGER

@<TRIPOS>ATOM
      1  C         23.8270  -21.7330  -10.4560 C.ar    1  UNL1        0.1920
      2  N         25.1010  -21.4230  -10.4310 N.ar    1  UNL1       -0.1220
      3  N         25.5550  -21.4210  -11.7210 N.ar    1  UNL1       -0.1280
      4  C         24.5530  -21.7490  -12.5160 C.ar    1  UNL1        0.1660
      5  N         23.4270  -21.9540  -11.7450 N.ar    1  UNL1       -0.3070
      6  S         22.7970  -21.8660   -9.0770 S.3     1  UNL1       -0.0810
      7  C         22.6520  -23.6720   -8.9230 C.3     1  UNL1        0.1850
      8  C         21.2280  -24.0830   -8.5720 C.2     1  UNL1        0.2310
      9  N         20.5670  -23.1540   -7.7860 N.am    1  UNL1       -0.3270
     10  H         21.0290  -22.2490   -7.6700 H       1  UNL1        0.1690
     11  O         20.7710  -25.1560   -8.9640 O.2     1  UNL1       -0.2720
     12  C         19.2920  -23.2720   -7.2020 C.2     1  UNL1        0.0340
     13  C         18.8250  -22.1740   -6.4700 C.2     1  UNL1        0.0300
     14  C         17.5770  -22.2180   -5.8400 C.2     1  UNL1        0.0170
     15  C         16.7800  -23.3670   -5.9250 C.2     1  UNL1        0.0090
     16  C         17.2470  -24.4680   -6.6500 C.2     1  UNL1        0.0170
     17  C         18.4970  -24.4180   -7.2840 C.2     1  UNL1        0.0300
     18  C         15.4590  -23.3760   -5.2300 C.2     1  UNL1        0.1550
     19  C         14.5090  -22.2290   -5.4550 C.3     1  UNL1        0.0960
     20  O         15.1650  -24.3100   -4.4830 O.2     1  UNL1       -0.2930
     21  C         22.1070  -22.3310  -12.2140 C.3     1  UNL1        0.1370
     22  C         21.1710  -21.1290  -12.3210 C.3     1  UNL1        0.0590
     23  C         19.8160  -21.4210  -11.7320 C.2     1  UNL1       -0.0570
     24  C         18.7880  -20.4700  -11.8100 C.2     1  UNL1        0.0070
     25  C         17.5270  -20.7490  -11.2730 C.2     1  UNL1        0.0010
     26  C         17.2890  -21.9730  -10.6470 C.2     1  UNL1        0.0000
     27  C         18.3120  -22.9200  -10.5530 C.2     1  UNL1        0.0010
     28  C         19.5710  -22.6450  -11.0900 C.2     1  UNL1        0.0070
     29  C         24.6200  -21.8770  -13.9610 C.2     1  UNL1        0.0290
     30  C         25.0640  -23.0590  -14.5600 C.2     1  UNL1        0.0180
     31  C         25.1230  -23.1460  -15.9510 C.2     1  UNL1        0.0200
     32  C         24.7420  -22.0400  -16.6990 C.2     1  UNL1        0.1160
     33  N         24.3020  -20.8810  -16.1550 N.2     1  UNL1       -0.2720
     34  C         24.2290  -20.8370  -14.8010 C.2     1  UNL1        0.1310
@<TRIPOS>BOND
     1    32    33    2
     2    32    31    1
     3    33    34    1
     4    31    30    2
     5    34    29    2
     6    30    29    1
     7    29     4    1
     8     4     5   ar
     9     4     3   ar
    10    22    21    1
    11    22    23    1
    12    21     5    1
    13    24    23    2
    14    24    25    1
    15     5     1   ar
    16    23    28    1
    17     3     2   ar
    18    25    26    2
    19    28    27    2
    20    26    27    1
    21     1     2   ar
    22     1     6    1
    23     6     7    1
    24    11     8    2
    25     7     8    1
    26     8     9   am
    27     9    10    1
    28     9    12    1
    29    17    12    2
    30    17    16    1
    31    12    13    1
    32    16    15    2
    33    13    14    2
    34    15    14    1
    35    15    18    1
    36    19    18    1
    37    18    20    2
