@<TRIPOS>MOLECULE
6212_out_ligand_01.pdbqt
 35 38 0 0 0
SMALL
GASTEIGER

@<TRIPOS>ATOM
      1  C         22.9820  -22.8350  -10.8420 C.ar    1  UNL1        0.1920
      2  N         22.8340  -22.3710  -12.0590 N.ar    1  UNL1       -0.1220
      3  N         21.5070  -22.0870  -12.2320 N.ar    1  UNL1       -0.1280
      4  C         20.8500  -22.4160  -11.1290 C.ar    1  UNL1        0.1670
      5  N         21.7660  -22.8990  -10.2140 N.ar    1  UNL1       -0.3070
      6  S         24.4780  -23.2720  -10.0940 S.3     1  UNL1       -0.0760
      7  C         25.7060  -22.4670  -11.2030 C.3     1  UNL1        0.1430
      8  C         25.6340  -20.9460  -11.0410 C.3     1  UNL1        0.0310
      9  C         25.5980  -23.0390  -12.6400 C.2     1  UNL1        0.2360
     10  N         25.4090  -22.0810  -13.6240 N.am    1  UNL1       -0.3260
     11  H         25.2880  -21.1290  -13.3150 H       1  UNL1        0.1690
     12  O         25.7750  -24.2390  -12.8500 O.2     1  UNL1       -0.2720
     13  C         25.3510  -22.2630  -15.0270 C.2     1  UNL1        0.0400
     14  C         24.5080  -23.2000  -15.6340 C.2     1  UNL1        0.0300
     15  C         24.4920  -23.3640  -17.0210 C.2     1  UNL1        0.0020
     16  C         25.3170  -22.5890  -17.8230 C.2     1  UNL1        0.0010
     17  C         26.1570  -21.6450  -17.2410 C.2     1  UNL1        0.0090
     18  C         26.1840  -21.4680  -15.8460 C.2     1  UNL1       -0.0350
     19  C         27.1140  -20.4280  -15.2850 C.3     1  UNL1        0.0500
     20  C         21.5210  -23.3130   -8.8460 C.3     1  UNL1        0.1370
     21  C         21.2850  -22.1330   -7.9020 C.3     1  UNL1        0.0590
     22  C         19.9990  -22.3010   -7.1240 C.2     1  UNL1       -0.0570
     23  C         19.5970  -21.3340   -6.1900 C.2     1  UNL1        0.0070
     24  C         18.4300  -21.5140   -5.4450 C.2     1  UNL1        0.0010
     25  C         17.6540  -22.6580   -5.6280 C.2     1  UNL1        0.0000
     26  C         18.0420  -23.6210   -6.5560 C.2     1  UNL1        0.0010
     27  C         19.2100  -23.4460   -7.2990 C.2     1  UNL1        0.0070
     28  C         19.4220  -22.1600  -10.9380 C.2     1  UNL1        0.0450
     29  C         18.5470  -23.1440  -10.4510 C.2     1  UNL1        0.0180
     30  C         17.1930  -22.8610  -10.2430 C.2     1  UNL1        0.0010
     31  C         16.6880  -21.5980  -10.5460 C.2     1  UNL1        0.0030
     32  C         17.5330  -20.6220  -11.0790 C.2     1  UNL1        0.0370
     33  C         18.8800  -20.9080  -11.2830 C.2     1  UNL1        0.0790
     34  O         19.6300  -19.9040  -11.8420 O.2     1  UNL1       -0.3600
     35  H         20.0480  -19.3950  -11.1120 H       1  UNL1        0.2170
@<TRIPOS>BOND
     1    16    17    2
     2    16    15    1
     3    17    18    1
     4    15    14    2
     5    18    19    1
     6    18    13    2
     7    14    13    1
     8    13    10    1
     9    10    11    1
    10    10     9   am
    11    12     9    2
    12     9     7    1
    13     3     2   ar
    14     3     4   ar
    15     2     1   ar
    16    34    33    1
    17    34    35    1
    18    33    32    1
    19    33    28    2
    20     7     8    1
    21     7     6    1
    22     4    28    1
    23     4     5   ar
    24    32    31    2
    25    28    29    1
    26     1     5   ar
    27     1     6    1
    28    31    30    1
    29    29    30    2
    30     5    20    1
    31    20    21    1
    32    21    22    1
    33    27    22    2
    34    27    26    1
    35    22    23    1
    36    26    25    2
    37    23    24    2
    38    25    24    1
