@<TRIPOS>MOLECULE
6213_out_ligand_01.pdbqt
 36 39 0 0 0
SMALL
GASTEIGER

@<TRIPOS>ATOM
      1  C         24.2490  -21.6800  -10.8660 C.ar    1  UNL1        0.1920
      2  N         25.5240  -21.3900  -10.9720 N.ar    1  UNL1       -0.1220
      3  N         25.8660  -21.4800  -12.2960 N.ar    1  UNL1       -0.1280
      4  C         24.7940  -21.8450  -12.9770 C.ar    1  UNL1        0.1660
      5  N         23.7370  -21.9710  -12.0970 N.ar    1  UNL1       -0.3070
      6  S         23.3350  -21.6960   -9.4010 S.3     1  UNL1       -0.0810
      7  C         22.9470  -23.4630   -9.2410 C.3     1  UNL1        0.1850
      8  C         21.6110  -23.6740   -8.5450 C.2     1  UNL1        0.2310
      9  N         21.1230  -22.5300   -7.9360 N.am    1  UNL1       -0.3270
     10  H         21.5820  -21.6550   -8.1940 H       1  UNL1        0.1690
     11  O         21.0680  -24.7770   -8.5510 O.2     1  UNL1       -0.2720
     12  C         19.9870  -22.4070   -7.1140 C.2     1  UNL1        0.0350
     13  C         19.9620  -21.3210   -6.2300 C.2     1  UNL1        0.0290
     14  C         18.8860  -21.1330   -5.3590 C.2     1  UNL1        0.0030
     15  C         17.8230  -22.0360   -5.3650 C.2     1  UNL1        0.0180
     16  C         17.8340  -23.1290   -6.2420 C.2     1  UNL1        0.0410
     17  C         18.9200  -23.3100   -7.1140 C.2     1  UNL1        0.0470
     18  C         16.7260  -24.1260   -6.2810 C.2     1  UNL1        0.2930
     19  O         16.4590  -24.8120   -7.2550 O.2     1  UNL1       -0.2590
     20  O         16.0710  -24.1610   -5.0920 O.3     1  UNL1       -0.3180
     21  C         14.6510  -23.9840   -5.1960 C.3     1  UNL1        0.1740
     22  C         14.3660  -22.4990   -5.3340 C.3     1  UNL1        0.0340
     23  C         22.3710  -22.3240  -12.4370 C.3     1  UNL1        0.1370
     24  C         21.4520  -21.1030  -12.4640 C.3     1  UNL1        0.0590
     25  C         20.1150  -21.4060  -11.8400 C.2     1  UNL1       -0.0570
     26  C         19.9060  -22.6190  -11.1660 C.2     1  UNL1        0.0070
     27  C         18.6650  -22.9020  -10.5940 C.2     1  UNL1        0.0010
     28  C         17.6230  -21.9830  -10.6970 C.2     1  UNL1        0.0000
     29  C         17.8190  -20.7790  -11.3740 C.2     1  UNL1        0.0010
     30  C         19.0590  -20.4920  -11.9460 C.2     1  UNL1        0.0070
     31  C         24.7340  -22.0850  -14.4080 C.2     1  UNL1        0.0290
     32  C         25.0070  -23.3450  -14.9430 C.2     1  UNL1        0.0180
     33  C         24.9610  -23.5300  -16.3240 C.2     1  UNL1        0.0200
     34  C         24.6500  -22.4410  -17.1260 C.2     1  UNL1        0.1160
     35  N         24.3810  -21.2070  -16.6430 N.2     1  UNL1       -0.2720
     36  C         24.4100  -21.0640  -15.2960 C.2     1  UNL1        0.1310
@<TRIPOS>BOND
     1    34    35    2
     2    34    33    1
     3    35    36    1
     4    33    32    2
     5    36    31    2
     6    32    31    1
     7    31     4    1
     8     4     3   ar
     9     4     5   ar
    10    24    23    1
    11    24    25    1
    12    23     5    1
    13     3     2   ar
    14     5     1   ar
    15    30    25    2
    16    30    29    1
    17    25    26    1
    18    29    28    2
    19    26    27    2
    20     2     1   ar
    21     1     6    1
    22    28    27    1
    23     6     7    1
    24     7     8    1
    25    11     8    2
    26     8     9   am
    27    10     9    1
    28     9    12    1
    29    19    18    2
    30    17    12    2
    31    17    16    1
    32    12    13    1
    33    18    16    1
    34    18    20    1
    35    16    15    2
    36    13    14    2
    37    15    14    1
    38    22    21    1
    39    21    20    1
