@<TRIPOS>MOLECULE
6218_out_ligand_01.pdbqt
 34 37 0 0 0
SMALL
GASTEIGER

@<TRIPOS>ATOM
      1  C         24.0800  -21.7040  -10.6700 C.ar    1  UNL1        0.1920
      2  N         25.3710  -21.4640  -10.6750 N.ar    1  UNL1       -0.1220
      3  N         25.7850  -21.4530  -11.9780 N.ar    1  UNL1       -0.1280
      4  C         24.7380  -21.6830  -12.7560 C.ar    1  UNL1        0.1670
      5  N         23.6360  -21.8900  -11.9490 N.ar    1  UNL1       -0.3070
      6  S         23.0810  -21.7810   -9.2620 S.3     1  UNL1       -0.0810
      7  C         22.9110  -23.5770   -9.0460 C.3     1  UNL1        0.1850
      8  C         21.5050  -23.9490   -8.5930 C.2     1  UNL1        0.2310
      9  O         21.0390  -25.0570   -8.8470 O.2     1  UNL1       -0.2720
     10  N         20.8730  -22.9420   -7.8850 N.am    1  UNL1       -0.3270
     11  H         21.3530  -22.0400   -7.8620 H       1  UNL1        0.1690
     12  C         19.5900  -22.9560   -7.3090 C.2     1  UNL1        0.0340
     13  C         19.2430  -21.8580   -6.5090 C.2     1  UNL1        0.0310
     14  C         17.9910  -21.7920   -5.8910 C.2     1  UNL1        0.0260
     15  C         17.0770  -22.8240   -6.0760 C.2     1  UNL1        0.0340
     16 CL         15.5330  -22.7460   -5.3200 Cl      1  UNL1       -0.0840
     17  C         17.4080  -23.9200   -6.8680 C.2     1  UNL1        0.0260
     18  C         18.6640  -23.9860   -7.4820 C.2     1  UNL1        0.0310
     19  C         22.3190  -22.3320  -12.3650 C.3     1  UNL1        0.1370
     20  C         21.3550  -21.1580  -12.5220 C.3     1  UNL1        0.0590
     21  C         20.0230  -21.4430  -11.8760 C.2     1  UNL1       -0.0570
     22  C         18.9940  -20.4930  -11.9220 C.2     1  UNL1        0.0070
     23  C         17.7580  -20.7630  -11.3340 C.2     1  UNL1        0.0010
     24  C         17.5380  -21.9850  -10.7000 C.2     1  UNL1        0.0000
     25  C         18.5530  -22.9390  -10.6560 C.2     1  UNL1        0.0010
     26  C         19.7900  -22.6720  -11.2450 C.2     1  UNL1        0.0070
     27  C         24.7740  -21.7780  -14.2130 C.2     1  UNL1        0.0450
     28  C         24.8430  -23.0470  -14.8060 C.2     1  UNL1        0.0180
     29  C         24.8870  -23.1830  -16.1950 C.2     1  UNL1        0.0010
     30  C         24.8660  -22.0500  -17.0060 C.2     1  UNL1        0.0030
     31  C         24.8170  -20.7790  -16.4330 C.2     1  UNL1        0.0370
     32  C         24.7800  -20.6470  -15.0430 C.2     1  UNL1        0.0790
     33  O         24.7500  -19.3990  -14.4830 O.2     1  UNL1       -0.3600
     34  H         24.7990  -18.7320  -15.1890 H       1  UNL1        0.2170
@<TRIPOS>BOND
     1    30    31    2
     2    30    29    1
     3    31    32    1
     4    29    28    2
     5    34    33    1
     6    32    33    1
     7    32    27    2
     8    28    27    1
     9    27     4    1
    10     4     3   ar
    11     4     5   ar
    12    20    19    1
    13    20    21    1
    14    19     5    1
    15     3     2   ar
    16     5     1   ar
    17    22    21    2
    18    22    23    1
    19    21    26    1
    20    23    24    2
    21    26    25    2
    22    24    25    1
    23     2     1   ar
    24     1     6    1
    25     6     7    1
    26     7     8    1
    27     9     8    2
    28     8    10   am
    29    10    11    1
    30    10    12    1
    31    18    12    2
    32    18    17    1
    33    12    13    1
    34    17    15    2
    35    13    14    2
    36    15    14    1
    37    15    16    1
