@<TRIPOS>MOLECULE
62219_out_ligand_01.pdbqt
 33 36 0 0 0
SMALL
GASTEIGER

@<TRIPOS>ATOM
      1  C         17.3830  -22.3080   -5.6520 C.2     1  UNL1        0.0460
      2  C         17.2310  -22.4080   -4.2590 C.2     1  UNL1        0.0180
      3  C         15.9740  -22.6520   -3.7100 C.2     1  UNL1        0.0010
      4  C         14.8690  -22.7850   -4.5460 C.2     1  UNL1        0.0010
      5  C         15.0220  -22.6810   -5.9330 C.2     1  UNL1        0.0170
      6  C         16.2820  -22.4520   -6.5140 C.2     1  UNL1        0.0330
      7  C         18.7330  -21.9860   -6.1590 C.2     1  UNL1        0.2570
      8  N         19.2800  -22.9870   -6.9390 N.am    1  UNL1       -0.3230
      9  H         18.7040  -23.8060   -7.0980 H       1  UNL1        0.1690
     10  O         19.2290  -20.9140   -5.8450 O.2     1  UNL1       -0.2670
     11  C         20.5260  -22.9690   -7.5970 C.2     1  UNL1        0.0350
     12  C         20.9090  -24.1300   -8.2770 C.2     1  UNL1        0.0300
     13  C         22.1200  -24.1800   -8.9750 C.2     1  UNL1        0.0190
     14  C         22.9700  -23.0690   -8.9960 C.2     1  UNL1        0.0320
     15  C         22.5870  -21.9040   -8.3250 C.2     1  UNL1        0.0190
     16  C         21.3730  -21.8580   -7.6260 C.2     1  UNL1        0.0300
     17  C         24.2430  -23.1700   -9.7590 C.2     1  UNL1        0.2490
     18  N         25.1730  -24.0730   -9.3260 N.am    1  UNL1       -0.3660
     19  H         25.9770  -24.2030   -9.9290 H       1  UNL1        0.1590
     20  H         24.9490  -24.8200   -8.6850 H       1  UNL1        0.1590
     21  O         24.4450  -22.4930  -10.7590 O.2     1  UNL1       -0.2680
     22  C         16.3690  -22.3900   -7.9700 C.2     1  UNL1        0.1810
     23  N         15.4370  -22.6540   -8.8670 N.2     1  UNL1       -0.2330
     24  C         16.0790  -22.4790  -10.0690 C.2     1  UNL1        0.1570
     25  C         17.4020  -22.1520   -9.8650 C.2     1  UNL1        0.1050
     26  O         17.5980  -22.1220   -8.5090 O.2     1  UNL1       -0.2890
     27  C         18.5500  -21.8540  -10.7120 C.2     1  UNL1       -0.0010
     28  C         18.6470  -20.6230  -11.3780 C.2     1  UNL1        0.0160
     29  C         19.7510  -20.3300  -12.1870 C.2     1  UNL1        0.0240
     30  C         20.7690  -21.2680  -12.3380 C.2     1  UNL1        0.0340
     31 CL         22.1260  -20.9050  -13.3300 Cl      1  UNL1       -0.0840
     32  C         20.6940  -22.4950  -11.6880 C.2     1  UNL1        0.0240
     33  C         19.5890  -22.7840  -10.8800 C.2     1  UNL1        0.0160
@<TRIPOS>BOND
     1    31    30    1
     2    30    29    2
     3    30    32    1
     4    29    28    1
     5    32    33    2
     6    28    27    2
     7    33    27    1
     8    21    17    2
     9    27    25    1
    10    24    25    2
    11    24    23    1
    12    19    18    1
    13    25    26    1
    14    17    18   am
    15    17    14    1
    16    18    20    1
    17    14    13    2
    18    14    15    1
    19    13    12    1
    20    23    22    2
    21    26    22    1
    22    15    16    2
    23    12    11    2
    24    22     6    1
    25    16    11    1
    26    11     8    1
    27     9     8    1
    28     8     7   am
    29     6     5    1
    30     6     1    2
    31     7    10    2
    32     7     1    1
    33     5     4    2
    34     1     2    1
    35     4     3    1
    36     2     3    2
