@<TRIPOS>MOLECULE
62239_out_ligand_01.pdbqt
 32 35 0 0 0
SMALL
GASTEIGER

@<TRIPOS>ATOM
      1  C         21.5930  -21.9540  -10.5810 C.ar    1  UNL1        0.0850
      2  S         21.0180  -22.9060   -9.2690 S.2     1  UNL1       -0.0650
      3  C         19.4040  -22.6190   -9.6830 C.ar    1  UNL1        0.0990
      4  C         19.2670  -21.7900  -10.7670 C.ar    1  UNL1        0.0940
      5  C         20.5360  -21.4040  -11.2850 C.ar    1  UNL1        0.0660
      6  C         17.9390  -21.4320  -11.2050 C.ar    1  UNL1        0.2640
      7  O         17.7030  -20.6600  -12.1290 O.2     1  UNL1       -0.2670
      8  N         16.9340  -22.0150  -10.4710 N.ar    1  UNL1       -0.2740
      9  C         17.0590  -22.8140   -9.3600 C.ar    1  UNL1        0.3300
     10  O         16.0410  -23.1710   -8.7660 O.2     1  UNL1       -0.2460
     11  N         18.3480  -23.1680   -8.9600 N.ar    1  UNL1       -0.2920
     12  H         15.9930  -21.7620  -10.7290 H       1  UNL1        0.1730
     13  C         23.0170  -21.7390  -10.8020 C.2     1  UNL1        0.2010
     14  O         23.7340  -21.1380   -9.9990 O.2     1  UNL1       -0.2860
     15  C         23.6770  -22.2360  -12.0390 C.2     1  UNL1        0.0150
     16  C         23.7000  -21.4690  -13.2100 C.2     1  UNL1        0.0160
     17  C         24.3430  -21.9580  -14.3490 C.2     1  UNL1        0.0070
     18  C         24.9720  -23.2090  -14.3290 C.2     1  UNL1       -0.0620
     19  C         25.6940  -23.7150  -15.5430 C.3     1  UNL1        0.0480
     20  C         24.9790  -23.9530  -13.1420 C.2     1  UNL1        0.0070
     21  C         24.3360  -23.4690  -12.0000 C.2     1  UNL1        0.0160
     22  N         20.6940  -20.5970  -12.3570 N.pl3   1  UNL1       -0.3970
     23  H         20.7670  -19.5850  -12.2410 H       1  UNL1        0.1560
     24  H         21.1900  -20.9380  -13.1840 H       1  UNL1        0.1560
     25  C         18.4840  -24.0140   -7.7710 C.3     1  UNL1        0.1390
     26  C         18.7690  -23.1900   -6.5110 C.3     1  UNL1        0.0590
     27  C         17.5740  -23.1520   -5.5920 C.2     1  UNL1       -0.0570
     28  C         16.4830  -24.0050   -5.8080 C.2     1  UNL1        0.0070
     29  C         15.3690  -23.9510   -4.9700 C.2     1  UNL1        0.0010
     30  C         15.3330  -23.0430   -3.9130 C.2     1  UNL1        0.0000
     31  C         16.4110  -22.1870   -3.6940 C.2     1  UNL1        0.0010
     32  C         17.5260  -22.2390   -4.5310 C.2     1  UNL1        0.0070
@<TRIPOS>BOND
     1    19    18    1
     2    17    18    2
     3    17    16    1
     4    18    20    1
     5    16    15    2
     6    24    22    1
     7    20    21    2
     8    22    23    1
     9    22     5    1
    10     7     6    2
    11    15    21    1
    12    15    13    1
    13     5     4   ar
    14     5     1   ar
    15     6     4   ar
    16     6     8   ar
    17    13     1    1
    18    13    14    2
    19     4     3   ar
    20    12     8    1
    21     1     2   ar
    22     8     9   ar
    23     3     2   ar
    24     3    11   ar
    25     9    11   ar
    26     9    10    2
    27    11    25    1
    28    25    26    1
    29    26    27    1
    30    28    27    2
    31    28    29    1
    32    27    32    1
    33    29    30    2
    34    32    31    2
    35    30    31    1
