@<TRIPOS>MOLECULE
62233_out_ligand_01.pdbqt
 37 41 0 0 0
SMALL
GASTEIGER

@<TRIPOS>ATOM
      1  N         18.2960  -22.9200   -6.3350 N.am    1  UNL1       -0.2430
      2  C         18.4430  -23.9870   -7.1980 C.2     1  UNL1        0.2660
      3  O         17.7170  -24.9230   -7.4710 O.2     1  UNL1       -0.2670
      4  C         19.7080  -23.7920   -7.9020 C.2     1  UNL1        0.0480
      5  C         20.3290  -24.5700   -8.8600 C.2     1  UNL1        0.0190
      6  C         21.5480  -24.1120   -9.3800 C.2     1  UNL1        0.0180
      7  C         22.1260  -22.8990   -8.9260 C.2     1  UNL1        0.0330
      8  C         21.4530  -22.1280   -7.9600 C.2     1  UNL1        0.0350
      9  C         20.2480  -22.6020   -7.4750 C.2     1  UNL1        0.0490
     10  C         19.3320  -22.0240   -6.4980 C.2     1  UNL1        0.2660
     11  O         19.5610  -20.9480   -5.9760 O.2     1  UNL1       -0.2670
     12  C         23.4330  -22.3730   -9.4320 C.2     1  UNL1        0.2520
     13  O         23.5850  -21.1650   -9.5890 O.2     1  UNL1       -0.2680
     14  N         24.4420  -23.2760   -9.6810 N.am    1  UNL1       -0.3500
     15  H         24.3860  -24.2260   -9.3430 H       1  UNL1        0.1630
     16  C         25.7700  -22.8310  -10.0530 C.3     1  UNL1        0.2030
     17  C         26.1440  -23.5040  -11.3200 C.ar    1  UNL1        0.1520
     18  N         26.8260  -24.6310  -11.4170 N.ar    1  UNL1       -0.1320
     19  N         26.9830  -24.9280  -12.7490 N.ar    1  UNL1       -0.1300
     20  C         26.4000  -23.9780  -13.4430 C.ar    1  UNL1        0.1570
     21  C         26.2430  -23.7690  -14.8390 C.2     1  UNL1        0.0540
     22  N         25.8530  -23.0340  -12.5840 N.ar    1  UNL1       -0.2890
     23  C         25.5860  -22.6770  -15.2780 C.2     1  UNL1        0.0210
     24  C         25.0300  -21.6800  -14.3540 C.2     1  UNL1        0.0640
     25  C         25.1780  -21.8950  -13.0290 C.2     1  UNL1        0.1160
     26  C         24.3320  -20.4860  -14.9460 C.3     1  UNL1        0.4180
     27  F         24.9390  -19.3270  -14.5810 F       1  UNL1       -0.1660
     28  F         23.0430  -20.4050  -14.5320 F       1  UNL1       -0.1660
     29  F         24.3130  -20.5100  -16.3020 F       1  UNL1       -0.1660
     30  C         17.1550  -22.6820   -5.5130 C.2     1  UNL1        0.0520
     31  C         17.1390  -22.8880   -4.1170 C.2     1  UNL1       -0.0350
     32  C         15.9340  -22.7070   -3.4060 C.2     1  UNL1        0.0090
     33  C         18.3480  -23.2500   -3.2910 C.3     1  UNL1        0.0500
     34  C         14.7700  -22.2800   -4.0430 C.2     1  UNL1        0.0070
     35  C         14.7860  -22.0050   -5.4070 C.2     1  UNL1       -0.0600
     36  C         13.5370  -21.5660   -6.1100 C.3     1  UNL1        0.0480
     37  C         15.9720  -22.2160   -6.1270 C.2     1  UNL1        0.0370
@<TRIPOS>BOND
     1    29    26    1
     2    23    21    2
     3    23    24    1
     4    26    27    1
     5    26    28    1
     6    26    24    1
     7    21    20    1
     8    24    25    2
     9    20    19   ar
    10    20    22   ar
    11    25    22    1
    12    19    18   ar
    13    22    17   ar
    14    18    17   ar
    15    17    16    1
    16    16    14    1
    17    14    12   am
    18    14    15    1
    19    13    12    2
    20    12     7    1
    21     6     7    2
    22     6     5    1
    23     7     8    1
    24     5     4    2
    25     8     9    2
    26     4     9    1
    27     4     2    1
    28     9    10    1
    29     3     2    2
    30     2     1   am
    31    10     1   am
    32    10    11    2
    33     1    30    1
    34    37    30    2
    35    37    35    1
    36    36    35    1
    37    30    31    1
    38    35    34    2
    39    31    32    2
    40    31    33    1
    41    34    32    1
