@<TRIPOS>MOLECULE
6224_out_ligand_01.pdbqt
 37 40 0 0 0
SMALL
GASTEIGER

@<TRIPOS>ATOM
      1  C         22.8300  -22.9720   -8.9320 C.2     1  UNL1        0.0340
      2  C         22.0910  -24.1330   -9.2060 C.2     1  UNL1        0.0310
      3  C         20.7900  -24.2880   -8.7090 C.2     1  UNL1        0.0270
      4  C         20.2240  -23.2820   -7.9230 C.2     1  UNL1        0.0800
      5  C         20.9340  -22.1060   -7.6650 C.2     1  UNL1        0.0270
      6  C         22.2370  -21.9580   -8.1590 C.2     1  UNL1        0.0310
      7  N         24.1320  -22.7390   -9.4260 N.am    1  UNL1       -0.3270
      8  C         24.4760  -22.1900  -10.6470 C.2     1  UNL1        0.2260
      9  O         23.7050  -21.9560  -11.5820 O.2     1  UNL1       -0.2730
     10  H         24.9050  -22.9650   -8.7970 H       1  UNL1        0.1690
     11  C         25.9500  -21.8200  -10.7990 C.3     1  UNL1        0.0810
     12  C         26.1800  -20.6000  -11.6900 C.3     1  UNL1        0.0440
     13  C         27.0290  -20.9290  -12.9210 C.3     1  UNL1        0.2730
     14  N         26.4900  -22.1190  -13.5800 N.3     1  UNL1        0.0920
     15  C         26.6660  -23.3320  -12.7430 C.3     1  UNL1        0.2730
     16  C         26.7540  -23.0430  -11.2380 C.3     1  UNL1        0.0440
     17  C         27.1210  -22.2710  -14.9130 C.3     1  UNL1        0.3110
     18  C         26.1330  -22.4440  -16.0560 C.2     1  UNL1       -0.0240
     19  C         25.1980  -23.4970  -15.9850 C.2     1  UNL1        0.0090
     20  C         24.2100  -23.6590  -16.9650 C.2     1  UNL1        0.0010
     21  C         24.1490  -22.7920  -18.0440 C.2     1  UNL1        0.0010
     22  C         25.0790  -21.7450  -18.1350 C.2     1  UNL1        0.0070
     23  C         26.0720  -21.5510  -17.1500 C.2     1  UNL1       -0.0540
     24  C         27.0210  -20.3910  -17.2940 C.3     1  UNL1        0.0490
     25  S         18.5690  -23.4610   -7.3020 S.O2    1  UNL1        0.2630
     26  O         18.4950  -24.7320   -6.6140 O.2     1  UNL1       -0.2000
     27  O         18.2050  -22.2300   -6.6340 O.2     1  UNL1       -0.2000
     28  N         17.6430  -23.6450   -8.7040 N.pl3   1  UNL1       -0.2800
     29  H         17.5510  -24.6180   -8.9770 H       1  UNL1        0.1790
     30  C         17.6910  -22.6420   -9.7230 C.2     1  UNL1        0.0500
     31  C         18.9100  -22.3950  -10.3710 C.2     1  UNL1        0.0540
     32  C         18.9690  -21.4340  -11.3810 C.2     1  UNL1        0.0360
     33 CL         20.4710  -21.0990  -12.1440 Cl      1  UNL1       -0.0840
     34  C         17.8240  -20.7440  -11.7740 C.2     1  UNL1        0.0240
     35  C         16.6060  -21.0070  -11.1500 C.2     1  UNL1        0.0110
     36  C         16.5270  -21.9440  -10.1030 C.2     1  UNL1       -0.0350
     37  C         15.2040  -22.1600   -9.4170 C.3     1  UNL1        0.0500
@<TRIPOS>BOND
     1    22    21    2
     2    22    23    1
     3    21    20    1
     4    24    23    1
     5    23    18    2
     6    20    19    2
     7    18    19    1
     8    18    17    1
     9    17    14    1
    10    14    13    1
    11    14    15    1
    12    13    12    1
    13    15    16    1
    14    33    32    1
    15    34    32    2
    16    34    35    1
    17    12    11    1
    18     9     8    2
    19    32    31    1
    20    16    11    1
    21    35    36    2
    22    11     8    1
    23     8     7   am
    24    31    30    2
    25    36    30    1
    26    36    37    1
    27    30    28    1
    28     7     1    1
    29     7    10    1
    30     2     1    2
    31     2     3    1
    32    29    28    1
    33     1     6    1
    34     3     4    2
    35    28    25    1
    36     6     5    2
    37     4     5    1
    38     4    25    1
    39    25    27    2
    40    25    26    2
