@<TRIPOS>MOLECULE
62248_out_ligand_01.pdbqt
 37 40 0 0 0
SMALL
GASTEIGER

@<TRIPOS>ATOM
      1  C         23.3020  -23.2230  -10.5480 C.3     1  UNL1        0.2350
      2  N         21.9290  -23.0720  -10.0850 N.am    1  UNL1       -0.2990
      3  C         20.9980  -22.4620  -10.9230 C.2     1  UNL1        0.2640
      4  C         19.6870  -22.3970  -10.3420 C.2     1  UNL1        0.0990
      5  O         21.2390  -22.0670  -12.0570 O.2     1  UNL1       -0.2670
      6  C         18.4640  -21.9150  -10.7870 C.2     1  UNL1        0.1600
      7  C         19.4600  -22.9100   -9.0870 C.2     1  UNL1        0.1690
      8  N         17.4970  -22.1090   -9.8910 N.2     1  UNL1       -0.1770
      9  N         18.1000  -22.6950   -8.8070 N.pl3   1  UNL1       -0.2140
     10  N         20.3940  -23.5190   -8.3070 N.2     1  UNL1       -0.2230
     11  C         21.5810  -23.5590   -8.8310 C.2     1  UNL1        0.2150
     12  C         17.3560  -22.9760   -7.6060 C.2     1  UNL1        0.0660
     13  C         16.2490  -23.8420   -7.6740 C.2     1  UNL1        0.0330
     14  C         15.5100  -24.1800   -6.5350 C.2     1  UNL1        0.0090
     15  C         15.8760  -23.6850   -5.2860 C.2     1  UNL1       -0.0610
     16  C         15.0840  -24.0310   -4.0630 C.3     1  UNL1        0.0480
     17  C         16.9560  -22.8040   -5.2030 C.2     1  UNL1        0.0150
     18  C         17.7050  -22.4310   -6.3420 C.2     1  UNL1       -0.0330
     19  C         18.8290  -21.4510   -6.1070 C.3     1  UNL1        0.0500
     20  C         24.1370  -21.9500  -10.3740 C.2     1  UNL1        0.2350
     21  O         23.7380  -21.0290   -9.6620 O.2     1  UNL1       -0.2720
     22  N         25.3030  -21.8780  -11.1000 N.am    1  UNL1       -0.3590
     23  H         25.5600  -22.6440  -11.7090 H       1  UNL1        0.1620
     24  C         26.2770  -20.8200  -10.9030 C.3     1  UNL1        0.1270
     25  C         26.4110  -19.9180  -12.1410 C.3     1  UNL1        0.0580
     26  C         26.0720  -20.5930  -13.4560 C.2     1  UNL1       -0.0570
     27  C         24.8710  -20.2840  -14.1200 C.2     1  UNL1        0.0090
     28  C         24.5440  -20.9160  -15.3220 C.2     1  UNL1        0.0250
     29  C         25.4240  -21.8540  -15.8690 C.2     1  UNL1        0.0740
     30  C         26.6170  -22.1760  -15.2210 C.2     1  UNL1        0.0250
     31  C         26.9430  -21.5370  -14.0220 C.2     1  UNL1        0.0090
     32  S         24.9900  -22.6620  -17.3850 S.O2    1  UNL1        0.2390
     33  O         24.1490  -21.7760  -18.1530 O.2     1  UNL1       -0.2060
     34  O         24.6110  -24.0220  -17.0880 O.2     1  UNL1       -0.2060
     35  N         26.4880  -22.7640  -18.1520 N.3     1  UNL1       -0.2250
     36  H         26.4240  -23.4550  -18.8970 H       1  UNL1        0.1360
     37  H         27.2500  -22.9880  -17.5080 H       1  UNL1        0.1360
@<TRIPOS>BOND
     1    36    35    1
     2    33    32    2
     3    35    37    1
     4    35    32    1
     5    32    34    2
     6    32    29    1
     7    29    28    2
     8    29    30    1
     9    28    27    1
    10    30    31    2
    11    27    26    2
    12    31    26    1
    13    26    25    1
    14    25    24    1
    15     5     3    2
    16    23    22    1
    17    22    24    1
    18    22    20   am
    19     3     4    1
    20     3     2   am
    21     6     4    1
    22     6     8    2
    23     1    20    1
    24     1     2    1
    25    20    21    2
    26     4     7    2
    27     2    11    1
    28     8     9    1
    29     7     9    1
    30     7    10    1
    31    11    10    2
    32     9    12    1
    33    13    12    2
    34    13    14    1
    35    12    18    1
    36    14    15    2
    37    18    19    1
    38    18    17    2
    39    15    17    1
    40    15    16    1
