@<TRIPOS>MOLECULE
62242_out_ligand_01.pdbqt
 34 36 0 0 0
SMALL
GASTEIGER

@<TRIPOS>ATOM
      1  C         19.6770  -22.3630   -9.8840 C.2     1  UNL1        0.0360
      2  C         19.3150  -21.4600  -10.8950 C.2     1  UNL1        0.0290
      3  C         17.9760  -21.2840  -11.2580 C.2     1  UNL1        0.0040
      4  C         16.9810  -22.0000  -10.6030 C.2     1  UNL1        0.0250
      5  C         17.3350  -22.8820   -9.5790 C.2     1  UNL1        0.0770
      6  C         18.6770  -23.0730   -9.2210 C.2     1  UNL1        0.0540
      7  S         16.0510  -23.7860   -8.7420 S.O2    1  UNL1        0.2450
      8  O         16.6650  -24.6690   -7.7730 O.2     1  UNL1       -0.2060
      9  O         15.1330  -24.2680   -9.7510 O.2     1  UNL1       -0.2060
     10  N         15.3240  -22.5190   -7.8540 N.pl3   1  UNL1       -0.1810
     11  H         15.5550  -21.6430   -8.3310 H       1  UNL1        0.1460
     12  C         15.7240  -22.4850   -6.4800 C.2     1  UNL1        0.0230
     13  C         14.8590  -22.9590   -5.4910 C.2     1  UNL1        0.0240
     14  C         15.2300  -22.8710   -4.1510 C.2     1  UNL1        0.0030
     15  C         16.4560  -22.3010   -3.8000 C.2     1  UNL1        0.0160
     16  C         17.3290  -21.8210   -4.7850 C.2     1  UNL1        0.0490
     17  C         16.9450  -21.9110   -6.1320 C.2     1  UNL1        0.0400
     18  C         18.6320  -21.1860   -4.3920 C.3     1  UNL1        0.4170
     19  F         19.6390  -21.4850   -5.2590 F       1  UNL1       -0.1660
     20  F         19.0620  -21.5960   -3.1690 F       1  UNL1       -0.1660
     21  F         18.5850  -19.8260   -4.3400 F       1  UNL1       -0.1660
     22  N         21.0530  -22.5040   -9.6140 N.am    1  UNL1       -0.3270
     23  C         21.7290  -23.6640   -9.2650 C.2     1  UNL1        0.2290
     24  O         21.2220  -24.7620   -9.0870 O.2     1  UNL1       -0.2730
     25  H         21.6060  -21.6650   -9.7190 H       1  UNL1        0.1690
     26  C         23.2180  -23.4530   -9.1090 C.3     1  UNL1        0.1860
     27  C         23.7490  -22.2580   -9.8620 C.2     1  UNL1        0.1680
     28  O         23.4540  -21.1120   -9.5250 O.2     1  UNL1       -0.2920
     29  C         24.5820  -22.4630  -11.0820 C.2     1  UNL1        0.0100
     30  C         24.0690  -23.0650  -12.2350 C.2     1  UNL1        0.0150
     31  C         24.8750  -23.2020  -13.3690 C.2     1  UNL1        0.0010
     32  C         26.1860  -22.7340  -13.3570 C.2     1  UNL1        0.0000
     33  C         26.6990  -22.1260  -12.2130 C.2     1  UNL1        0.0010
     34  C         25.8980  -21.9860  -11.0770 C.2     1  UNL1        0.0150
@<TRIPOS>BOND
     1    31    32    2
     2    31    30    1
     3    32    33    1
     4    30    29    2
     5    33    34    2
     6     3     2    1
     7     3     4    2
     8    29    34    1
     9    29    27    1
    10     2     1    2
    11     4     5    1
    12     1    22    1
    13     1     6    1
    14    27    28    2
    15    27    26    1
    16     9     7    2
    17    25    22    1
    18    22    23   am
    19     5     6    2
    20     5     7    1
    21    23    26    1
    22    23    24    2
    23     7    10    1
    24     7     8    2
    25    11    10    1
    26    10    12    1
    27    12    17    2
    28    12    13    1
    29    17    16    1
    30    13    14    2
    31    19    18    1
    32    16    18    1
    33    16    15    2
    34    18    21    1
    35    18    20    1
    36    14    15    1
