@<TRIPOS>MOLECULE
62263_out_ligand_01.pdbqt
 31 33 0 0 0
SMALL
GASTEIGER

@<TRIPOS>ATOM
      1  N         22.7500  -22.9880  -10.6700 N.am    1  UNL1       -0.3270
      2  C         22.5120  -22.1660   -9.5910 C.2     1  UNL1        0.2270
      3  O         22.9320  -21.0330   -9.4170 O.2     1  UNL1       -0.2730
      4  H         22.4360  -23.9480  -10.5830 H       1  UNL1        0.1690
      5  C         23.4120  -22.6620  -11.8680 C.2     1  UNL1        0.0340
      6  C         22.7620  -21.7830  -12.7380 C.2     1  UNL1        0.0300
      7  C         23.3560  -21.4000  -13.9450 C.2     1  UNL1        0.0110
      8  C         24.6270  -21.8710  -14.2950 C.2     1  UNL1       -0.0400
      9  C         25.2760  -22.7510  -13.4210 C.2     1  UNL1        0.0110
     10  C         24.6710  -23.1480  -12.2200 C.2     1  UNL1        0.0300
     11  C         25.2750  -21.4470  -15.5900 C.3     1  UNL1        0.1620
     12  N         24.4640  -21.8080  -16.7350 N.am    1  UNL1       -0.3440
     13  C         24.4040  -23.1010  -17.1640 C.2     1  UNL1        0.2920
     14  N         23.4930  -23.2780  -18.1530 N.am    1  UNL1       -0.2540
     15  O         25.0690  -24.0320  -16.7360 O.2     1  UNL1       -0.2540
     16  H         23.5360  -24.2100  -18.5560 H       1  UNL1        0.1280
     17  H         23.4070  -22.5280  -18.8250 H       1  UNL1        0.1280
     18  H         23.6220  -21.2630  -16.8750 H       1  UNL1        0.1640
     19  C         21.7310  -22.8300   -8.5050 C.3     1  UNL1        0.0870
     20  C         21.0600  -24.1570   -8.7380 C.3     1  UNL1        0.0250
     21  C         20.2120  -22.9360   -8.4860 C.3     1  UNL1        0.0330
     22  C         19.3110  -22.3700   -9.5700 C.2     1  UNL1       -0.0380
     23  C         19.8900  -21.7750  -10.7070 C.2     1  UNL1        0.0080
     24  C         19.1260  -21.2110  -11.7320 C.2     1  UNL1        0.0010
     25  C         17.7440  -21.2130  -11.6430 C.2     1  UNL1        0.0010
     26  C         17.1340  -21.7590  -10.5190 C.2     1  UNL1        0.0170
     27  C         17.8980  -22.3180   -9.4690 C.2     1  UNL1        0.0540
     28  C         17.1630  -22.8440   -8.2580 C.3     1  UNL1        0.4180
     29  F         17.4410  -22.1450   -7.1190 F       1  UNL1       -0.1660
     30  F         15.8100  -22.7830   -8.3900 F       1  UNL1       -0.1660
     31  F         17.4550  -24.1400   -7.9560 F       1  UNL1       -0.1660
@<TRIPOS>BOND
     1    17    14    1
     2    16    14    1
     3    14    13   am
     4    13    15    2
     5    13    12   am
     6    18    12    1
     7    12    11    1
     8    11     8    1
     9     8     7    2
    10     8     9    1
    11     7     6    1
    12     9    10    2
    13     6     5    2
    14    10     5    1
    15     5     1    1
    16    24    25    2
    17    24    23    1
    18    25    26    1
    19    23    22    2
    20     1     4    1
    21     1     2   am
    22    26    27    2
    23     2     3    2
    24     2    19    1
    25    22    27    1
    26    22    21    1
    27    27    28    1
    28    20    19    1
    29    20    21    1
    30    19    21    1
    31    30    28    1
    32    28    31    1
    33    28    29    1
