@<TRIPOS>MOLECULE
62261_out_ligand_01.pdbqt
 27 29 0 0 0
SMALL
GASTEIGER

@<TRIPOS>ATOM
      1  N         17.1930  -23.3950   -6.5890 N.am    1  UNL1       -0.3400
      2  C         16.1240  -22.9520   -7.3680 C.2     1  UNL1        0.2440
      3  O         15.5230  -21.8960   -7.1840 O.2     1  UNL1       -0.2680
      4  C         18.1300  -24.4510   -6.9990 C.3     1  UNL1        0.1650
      5  C         19.4290  -23.9390   -7.5780 C.2     1  UNL1       -0.0400
      6  C         19.8760  -22.6390   -7.3070 C.2     1  UNL1        0.0100
      7  C         21.0770  -22.1710   -7.8490 C.2     1  UNL1        0.0170
      8  C         21.8580  -23.0010   -8.6610 C.2     1  UNL1        0.0310
      9  C         21.4180  -24.2980   -8.9420 C.2     1  UNL1        0.0170
     10  C         20.2150  -24.7640   -8.3980 C.2     1  UNL1        0.0100
     11  C         23.1250  -22.4540   -9.2140 C.2     1  UNL1        0.2490
     12  N         24.1360  -23.3370   -9.4780 N.am    1  UNL1       -0.3660
     13  H         25.0230  -22.9220   -9.7300 H       1  UNL1        0.1590
     14  H         24.1570  -24.2640   -9.0780 H       1  UNL1        0.1590
     15  O         23.2820  -21.2530   -9.3980 O.2     1  UNL1       -0.2680
     16  C         17.6200  -22.5630   -5.4780 C.3     1  UNL1        0.0880
     17  C         17.8600  -23.1340   -4.1010 C.3     1  UNL1        0.0270
     18  C         16.7000  -22.2210   -4.3320 C.3     1  UNL1        0.0270
     19  C         15.6980  -23.8290   -8.4840 C.2     1  UNL1        0.0750
     20  C         16.1350  -23.6920   -9.7460 C.2     1  UNL1        0.0170
     21  C         17.0360  -22.6580  -10.2760 C.2     1  UNL1       -0.0360
     22  C         18.3610  -23.0160  -10.5740 C.2     1  UNL1        0.0140
     23  C         19.2460  -22.0790  -11.1140 C.2     1  UNL1        0.0430
     24  C         18.8040  -20.7860  -11.3670 C.2     1  UNL1        0.1160
     25  F         19.6520  -19.8890  -11.8860 F       1  UNL1       -0.2060
     26  C         17.4950  -20.4140  -11.0930 C.2     1  UNL1        0.0430
     27  C         16.6090  -21.3510  -10.5520 C.2     1  UNL1        0.0140
@<TRIPOS>BOND
     1    25    24    1
     2    24    23    2
     3    24    26    1
     4    23    22    1
     5    26    27    2
     6    22    21    2
     7    27    21    1
     8    21    20    1
     9    20    19    2
    10    13    12    1
    11    12    11   am
    12    12    14    1
    13    15    11    2
    14    11     8    1
    15     9     8    2
    16     9    10    1
    17     8     7    1
    18    19     2    1
    19    10     5    2
    20     7     6    2
    21     5     6    1
    22     5     4    1
    23     2     3    2
    24     2     1   am
    25     4     1    1
    26     1    16    1
    27    16    18    1
    28    16    17    1
    29    18    17    1
