@<TRIPOS>MOLECULE
62279_out_ligand_01.pdbqt
 31 34 0 0 0
SMALL
GASTEIGER

@<TRIPOS>ATOM
      1  C         18.2550  -23.1060   -9.2420 C.2     1  UNL1        0.0820
      2  C         18.3190  -22.2010  -10.3150 C.2     1  UNL1        0.0280
      3  C         19.5360  -21.9300  -10.9530 C.2     1  UNL1        0.0410
      4  C         20.6430  -22.6000  -10.4460 C.ar    1  UNL1        0.1080
      5  O         21.9300  -22.5190  -10.8840 O.2     1  UNL1       -0.2760
      6  C         22.6230  -23.3640  -10.0550 C.ar    1  UNL1        0.2520
      7  N         21.8780  -23.9600   -9.1470 N.ar    1  UNL1       -0.2060
      8  C         20.6160  -23.4820   -9.3800 C.ar    1  UNL1        0.0960
      9  C         19.4010  -23.7480   -8.7400 C.2     1  UNL1        0.0590
     10  S         16.6830  -23.4200   -8.4640 S.O2    1  UNL1        0.2630
     11  O         16.8610  -24.5520   -7.5780 O.2     1  UNL1       -0.2000
     12  O         15.6700  -23.4300   -9.4970 O.2     1  UNL1       -0.2000
     13  N         16.4650  -22.0700   -7.4700 N.pl3   1  UNL1       -0.2790
     14  H         15.7560  -21.4420   -7.8530 H       1  UNL1        0.1790
     15  C         16.4270  -22.2600   -6.0510 C.2     1  UNL1        0.0640
     16  C         15.2290  -22.6200   -5.4300 C.2     1  UNL1        0.0320
     17  C         15.1750  -22.7650   -4.0420 C.2     1  UNL1        0.0020
     18  C         16.3170  -22.5520   -3.2700 C.2     1  UNL1        0.0020
     19  C         17.5200  -22.1980   -3.8830 C.2     1  UNL1        0.0260
     20  C         17.5750  -22.0540   -5.2700 C.2     1  UNL1        0.0610
     21 CL         19.0780  -21.6090   -5.9970 Cl      1  UNL1       -0.0820
     22  N         23.9390  -23.4370  -10.3230 N.pl3   1  UNL1       -0.3200
     23  H         24.4580  -24.1100   -9.7730 H       1  UNL1        0.1690
     24  C         24.6890  -22.7330  -11.2790 C.2     1  UNL1        0.0370
     25  C         24.8830  -23.1690  -12.5980 C.2     1  UNL1        0.0320
     26  C         25.6340  -22.4200  -13.5090 C.2     1  UNL1        0.0460
     27  C         26.2000  -21.2160  -13.1110 C.2     1  UNL1        0.1380
     28  F         26.9160  -20.5120  -14.0000 F       1  UNL1       -0.2040
     29  C         26.0230  -20.7570  -11.8120 C.2     1  UNL1        0.0740
     30 CL         26.7180  -19.2660  -11.3040 Cl      1  UNL1       -0.0810
     31  C         25.2730  -21.5090  -10.9030 C.2     1  UNL1        0.0560
@<TRIPOS>BOND
     1    28    27    1
     2    26    27    2
     3    26    25    1
     4    27    29    1
     5    25    24    2
     6    29    30    1
     7    29    31    2
     8    24    31    1
     9    24    22    1
    10     3     4    2
    11     3     2    1
    12     5     4   ar
    13     5     6   ar
    14     4     8   ar
    15    22     6    1
    16    22    23    1
    17     2     1    2
    18     6     7   ar
    19    12    10    2
    20     8     7   ar
    21     8     9    2
    22     1     9    1
    23     1    10    1
    24    10    11    2
    25    10    13    1
    26    14    13    1
    27    13    15    1
    28    15    16    2
    29    15    20    1
    30    21    20    1
    31    16    17    1
    32    20    19    2
    33    17    18    2
    34    19    18    1
