@<TRIPOS>MOLECULE
62273_out_ligand_01.pdbqt
 32 34 0 0 0
SMALL
GASTEIGER

@<TRIPOS>ATOM
      1  C         22.9390  -22.5860  -11.4210 C.2     1  UNL1        0.0120
      2  C         22.4430  -21.8190  -12.4820 C.2     1  UNL1        0.0150
      3  C         21.1240  -21.3690  -12.4630 C.2     1  UNL1        0.0030
      4  C         20.2970  -21.6830  -11.3830 C.2     1  UNL1        0.0290
      5  C         20.7800  -22.4470  -10.3130 C.2     1  UNL1        0.0350
      6  C         22.1080  -22.8820  -10.3310 C.2     1  UNL1        0.0440
      7  N         19.8820  -22.7150   -9.2540 N.am    1  UNL1       -0.3230
      8  C         20.1070  -22.5010   -7.9060 C.2     1  UNL1        0.2570
      9  O         21.1540  -22.1280   -7.3890 O.2     1  UNL1       -0.2670
     10  H         19.0380  -23.2100   -9.5190 H       1  UNL1        0.1690
     11  C         18.9650  -22.8110   -7.0130 C.2     1  UNL1        0.0500
     12  C         18.3380  -24.0610   -7.0970 C.2     1  UNL1        0.0210
     13  C         17.2710  -24.3540   -6.2530 C.2     1  UNL1        0.0460
     14  C         16.8850  -23.3690   -5.3580 C.2     1  UNL1        0.1660
     15  N         17.4800  -22.1450   -5.2140 N.2     1  UNL1       -0.2470
     16  C         18.5190  -21.9070   -6.0520 C.2     1  UNL1        0.1350
     17  S         15.5420  -23.6690   -4.2150 S.O2    1  UNL1        0.2560
     18  O         16.0380  -24.5130   -3.1530 O.2     1  UNL1       -0.2050
     19  O         14.3660  -23.9900   -4.9910 O.2     1  UNL1       -0.2050
     20  N         15.2630  -22.1270   -3.5650 N.3     1  UNL1       -0.2240
     21  H         15.0070  -21.5020   -4.3310 H       1  UNL1        0.1360
     22  H         16.1270  -21.8030   -3.1160 H       1  UNL1        0.1360
     23  C         24.3540  -23.0500  -11.4780 C.2     1  UNL1        0.1410
     24  N         24.9190  -23.4840  -10.3030 N.am    1  UNL1       -0.3070
     25  C         26.1910  -23.9640  -10.2450 C.2     1  UNL1        0.2480
     26  H         24.4000  -23.5370   -9.4400 H       1  UNL1        0.1700
     27  C         26.9340  -23.9340  -11.5110 C.2     1  UNL1        0.1010
     28  O         26.6960  -24.4020   -9.2180 O.2     1  UNL1       -0.2680
     29  C         26.3070  -23.4870  -12.6090 C.2     1  UNL1        0.0420
     30  N         25.0000  -23.0510  -12.6020 N.2     1  UNL1       -0.2350
     31  C         26.9610  -23.4120  -13.9770 C.3     1  UNL1        0.0550
     32  C         26.1180  -23.8220  -15.1790 C.3     1  UNL1        0.0110
@<TRIPOS>BOND
     1    32    31    1
     2    31    29    1
     3    29    30    1
     4    29    27    2
     5    30    23    2
     6     2     3    1
     7     2     1    2
     8     3     4    2
     9    27    25    1
    10    23     1    1
    11    23    24    1
    12     1     6    1
    13     4     5    1
    14     6     5    2
    15     5     7    1
    16    24    25   am
    17    24    26    1
    18    25    28    2
    19    10     7    1
    20     7     8   am
    21     8     9    2
    22     8    11    1
    23    12    11    2
    24    12    13    1
    25    11    16    1
    26    13    14    2
    27    16    15    2
    28    14    15    1
    29    14    17    1
    30    19    17    2
    31    21    20    1
    32    17    20    1
    33    17    18    2
    34    20    22    1
