@<TRIPOS>MOLECULE
62287_out_ligand_01.pdbqt
 34 37 0 0 0
SMALL
GASTEIGER

@<TRIPOS>ATOM
      1  N         23.2710  -23.5260  -10.9560 N.pl3   1  UNL1       -0.2830
      2  H         23.5360  -24.5170  -11.0750 H       1  UNL1        0.1280
      3  C         23.8310  -22.9970   -9.7100 C.3     1  UNL1        0.1950
      4  C         22.7540  -22.5640   -8.7010 C.2     1  UNL1        0.2350
      5  O         22.9530  -21.6510   -7.9040 O.2     1  UNL1       -0.2720
      6  N         21.6010  -23.3350   -8.7910 N.am    1  UNL1       -0.3260
      7  H         21.6030  -24.0930   -9.4600 H       1  UNL1        0.1690
      8  C         20.4260  -23.2140   -8.0210 C.2     1  UNL1        0.0340
      9  C         19.5910  -24.3290   -7.9450 C.2     1  UNL1        0.0320
     10  C         18.4100  -24.2920   -7.1880 C.2     1  UNL1        0.0310
     11  C         18.0100  -23.1470   -6.4870 C.2     1  UNL1        0.0300
     12  C         18.8580  -22.0360   -6.5940 C.2     1  UNL1        0.0310
     13  C         20.0470  -22.0620   -7.3430 C.2     1  UNL1        0.0320
     14  N         16.8540  -23.1130   -5.7440 N.pl3   1  UNL1       -0.3810
     15  C         16.7390  -23.6020   -4.3730 C.3     1  UNL1        0.1230
     16  C         15.2410  -23.5500   -4.0910 C.3     1  UNL1        0.0210
     17  C         14.7750  -22.3660   -4.9200 C.3     1  UNL1        0.0210
     18  C         15.6160  -22.4740   -6.1900 C.3     1  UNL1        0.1230
     19  C         23.4570  -22.8670  -12.1840 C.2     1  UNL1        0.0240
     20  C         24.5820  -23.0860  -12.9940 C.2     1  UNL1        0.0240
     21  C         24.7790  -22.3740  -14.1840 C.2     1  UNL1        0.0020
     22  C         23.8680  -21.4020  -14.5820 C.2     1  UNL1        0.0010
     23  C         22.7680  -21.1220  -13.7770 C.2     1  UNL1        0.0190
     24  C         22.5780  -21.8280  -12.5750 C.2     1  UNL1        0.0530
     25  C         21.4090  -21.4670  -11.7210 C.2     1  UNL1        0.2580
     26  O         21.5890  -20.7440  -10.7490 O.2     1  UNL1       -0.2670
     27  N         20.2030  -21.9750  -12.1730 N.am    1  UNL1       -0.3230
     28  H         20.2140  -22.4240  -13.0800 H       1  UNL1        0.1690
     29  C         18.9350  -21.8370  -11.5700 C.2     1  UNL1        0.0350
     30  C         18.4400  -22.9380  -10.8600 C.2     1  UNL1        0.0290
     31  C         17.1950  -22.8790  -10.2290 C.2     1  UNL1        0.0020
     32  C         16.4350  -21.7150  -10.2970 C.2     1  UNL1        0.0000
     33  C         16.9220  -20.6130  -10.9960 C.2     1  UNL1        0.0020
     34  C         18.1680  -20.6730  -11.6300 C.2     1  UNL1        0.0290
@<TRIPOS>BOND
     1    22    21    2
     2    22    23    1
     3    21    20    1
     4    23    24    2
     5    28    27    1
     6    20    19    2
     7    24    19    1
     8    24    25    1
     9    19     1    1
    10    27    25   am
    11    27    29    1
    12    25    26    2
    13    34    29    2
    14    34    33    1
    15    29    30    1
    16     2     1    1
    17    33    32    2
    18     1     3    1
    19    30    31    2
    20    32    31    1
    21     3     4    1
    22     7     6    1
    23     6     4   am
    24     6     8    1
    25     4     5    2
    26     8     9    2
    27     8    13    1
    28     9    10    1
    29    13    12    2
    30    10    11    2
    31    12    11    1
    32    11    14    1
    33    18    14    1
    34    18    17    1
    35    14    15    1
    36    17    16    1
    37    15    16    1
