@<TRIPOS>MOLECULE
62289_out_ligand_01.pdbqt
 27 30 0 0 0
SMALL
GASTEIGER

@<TRIPOS>ATOM
      1  C         22.2460  -22.5920   -9.8820 C.2     1  UNL1        0.0320
      2  C         22.1500  -22.5410   -8.4910 C.2     1  UNL1        0.0190
      3  C         20.8910  -22.4830   -7.8760 C.2     1  UNL1        0.0300
      4  C         19.6970  -22.4740   -8.6210 C.2     1  UNL1        0.0300
      5  C         19.8210  -22.4980  -10.0190 C.2     1  UNL1        0.0300
      6  C         21.0740  -22.5540  -10.6430 C.2     1  UNL1        0.0190
      7  C         23.5540  -22.6390  -10.5950 C.2     1  UNL1        0.2520
      8  N         23.6410  -21.9340  -11.7830 N.am    1  UNL1       -0.3520
      9  H         22.9370  -21.2320  -11.9690 H       1  UNL1        0.1630
     10  O         24.4950  -23.2590  -10.1110 O.2     1  UNL1       -0.2680
     11  C         24.9140  -21.8060  -12.4860 C.3     1  UNL1        0.0880
     12  C         25.7620  -20.6900  -11.8630 C.3     1  UNL1        0.0550
     13  C         26.8070  -20.2060  -12.8620 C.3     1  UNL1        0.2740
     14  N         26.1960  -19.5850  -14.0520 N.3     1  UNL1        0.0840
     15  C         27.1210  -19.6340  -15.1860 C.3     1  UNL1        0.3090
     16  C         24.8750  -20.1360  -14.3920 C.3     1  UNL1        0.2740
     17  C         24.7020  -21.6020  -13.9930 C.3     1  UNL1        0.0550
     18  N         18.4590  -22.4090   -7.9540 N.pl3   1  UNL1       -0.3760
     19  C         17.3390  -23.1830   -8.5090 C.3     1  UNL1        0.1280
     20  C         16.0140  -22.6620   -7.9490 C.3     1  UNL1        0.0590
     21  C         16.0290  -22.5800   -6.4460 C.2     1  UNL1       -0.0490
     22  C         14.8220  -22.5580   -5.7340 C.2     1  UNL1        0.0080
     23  C         17.2500  -22.4710   -5.7610 C.2     1  UNL1       -0.0340
     24  C         14.8240  -22.4470   -4.3470 C.2     1  UNL1        0.0010
     25  C         16.0310  -22.3520   -3.6600 C.2     1  UNL1        0.0010
     26  C         17.2370  -22.3660   -4.3610 C.2     1  UNL1        0.0090
     27  C         18.5860  -22.5020   -6.4820 C.3     1  UNL1        0.1620
@<TRIPOS>BOND
     1    15    14    1
     2    16    14    1
     3    16    17    1
     4    14    13    1
     5    17    11    1
     6    13    12    1
     7    11    12    1
     8    11     8    1
     9     9     8    1
    10     8     7   am
    11     6     5    1
    12     6     1    2
    13     7    10    2
    14     7     1    1
    15     5     4    2
    16     1     2    1
    17     4    18    1
    18     4     3    1
    19    19    18    1
    20    19    20    1
    21     2     3    2
    22    18    27    1
    23    20    21    1
    24    27    23    1
    25    21    23    2
    26    21    22    1
    27    23    26    1
    28    22    24    2
    29    26    25    2
    30    24    25    1
