@<TRIPOS>MOLECULE
62290_out_ligand_01.pdbqt
 36 41 0 0 0
SMALL
GASTEIGER

@<TRIPOS>ATOM
      1  C         24.5830  -22.2220  -15.0280 C.2     1  UNL1        0.0820
      2  C         23.5430  -21.2790  -14.9470 C.2     1  UNL1        0.0280
      3  C         22.8950  -21.0310  -13.7310 C.2     1  UNL1        0.0410
      4  C         23.3430  -21.7770  -12.6470 C.ar    1  UNL1        0.1080
      5  O         22.8900  -21.7240  -11.3640 O.2     1  UNL1       -0.2760
      6  C         23.6550  -22.6500  -10.6960 C.ar    1  UNL1        0.2520
      7  N         24.5400  -23.2650  -11.4560 N.ar    1  UNL1       -0.2060
      8  C         24.3520  -22.7220  -12.6980 C.ar    1  UNL1        0.0960
      9  C         24.9960  -22.9720  -13.9140 C.2     1  UNL1        0.0590
     10  N         23.3660  -22.7570   -9.3890 N.pl3   1  UNL1       -0.3200
     11  H         24.1470  -22.6660   -8.7540 H       1  UNL1        0.1690
     12  C         22.1190  -22.9530   -8.7680 C.2     1  UNL1        0.0350
     13  C         21.3830  -24.1170   -9.1080 C.2     1  UNL1        0.0300
     14  C         20.1280  -24.3990   -8.5490 C.2     1  UNL1        0.0150
     15  C         19.6000  -23.5040   -7.6390 C.2     1  UNL1       -0.0190
     16  C         20.3180  -22.3430   -7.2940 C.2     1  UNL1       -0.0410
     17  C         18.3530  -23.5170   -6.9060 C.3     1  UNL1       -0.0190
     18  C         21.5610  -22.0600   -7.8450 C.2     1  UNL1        0.0380
     19  C         19.5390  -21.5230   -6.2840 C.2     1  UNL1        0.0780
     20  C         18.2900  -22.3600   -6.0990 C.2     1  UNL1       -0.0430
     21  C         17.2020  -22.1050   -5.2800 C.2     1  UNL1        0.0080
     22  C         16.1560  -23.0300   -5.2760 C.2     1  UNL1        0.0010
     23  C         16.2120  -24.1840   -6.0760 C.2     1  UNL1        0.0010
     24  C         17.3150  -24.4340   -6.8990 C.2     1  UNL1        0.0130
     25  S         25.3930  -22.5030  -16.5890 S.O2    1  UNL1        0.2630
     26  O         25.7600  -23.9020  -16.6390 O.2     1  UNL1       -0.2000
     27  O         24.5880  -21.8980  -17.6280 O.2     1  UNL1       -0.2000
     28  N         26.8360  -21.6400  -16.4190 N.pl3   1  UNL1       -0.2810
     29  H         27.6090  -22.2380  -16.1280 H       1  UNL1        0.1790
     30  C         26.7980  -20.3030  -15.9350 C.2     1  UNL1        0.0440
     31  C         27.1210  -20.0140  -14.6080 C.2     1  UNL1        0.0300
     32  C         27.1150  -18.6940  -14.1580 C.2     1  UNL1        0.0040
     33  C         26.7890  -17.6610  -15.0350 C.2     1  UNL1        0.0240
     34  C         26.4650  -17.9550  -16.3590 C.2     1  UNL1        0.0360
     35 CL         26.0690  -16.6800  -17.4440 Cl      1  UNL1       -0.0840
     36  C         26.4660  -19.2730  -16.8150 C.2     1  UNL1        0.0540
@<TRIPOS>BOND
     1    27    25    2
     2    35    34    1
     3    36    34    1
     4    36    30    2
     5    26    25    2
     6    25    28    1
     7    25     1    1
     8    28    29    1
     9    28    30    1
    10    34    33    2
    11    30    31    1
    12    33    32    1
    13     1     2    2
    14     1     9    1
    15     2     3    1
    16    31    32    2
    17     9     8    2
    18     3     4    2
    19     8     4   ar
    20     8     7   ar
    21     4     5   ar
    22     7     6   ar
    23     5     6   ar
    24     6    10    1
    25    10    12    1
    26    10    11    1
    27    13    12    2
    28    13    14    1
    29    12    18    1
    30    14    15    2
    31    18    16    2
    32    15    16    1
    33    15    17    1
    34    16    19    1
    35    17    24    1
    36    17    20    1
    37    24    23    2
    38    19    20    2
    39    20    21    1
    40    23    22    1
    41    21    22    2
