@<TRIPOS>MOLECULE
62291_out_ligand_01.pdbqt
 36 39 0 0 0
SMALL
GASTEIGER

@<TRIPOS>ATOM
      1  C         16.0570  -23.4240   -5.9740 C.2     1  UNL1        0.0530
      2  C         15.0610  -23.9910   -5.1570 C.2     1  UNL1        0.0190
      3  C         15.1070  -23.8490   -3.7690 C.2     1  UNL1        0.0010
      4  C         16.1360  -23.1240   -3.1830 C.2     1  UNL1        0.0020
      5  C         17.1130  -22.5280   -3.9810 C.2     1  UNL1        0.0240
      6  C         17.1020  -22.6640   -5.3820 C.2     1  UNL1        0.0240
      7  N         18.0520  -21.9620   -6.1600 N.pl3   1  UNL1       -0.2830
      8  H         18.5110  -22.6170   -6.8130 H       1  UNL1        0.1280
      9  C         19.0570  -21.1550   -5.4280 C.3     1  UNL1        0.1950
     10  C         20.3850  -21.0590   -6.1980 C.2     1  UNL1        0.2350
     11  O         21.2380  -20.2340   -5.8870 O.2     1  UNL1       -0.2720
     12  N         20.4660  -21.9950   -7.2130 N.am    1  UNL1       -0.3260
     13  H         19.6190  -22.5580   -7.3000 H       1  UNL1        0.1690
     14  C         21.5120  -22.2250   -8.1170 C.2     1  UNL1        0.0340
     15  C         22.2930  -21.2200   -8.6750 C.2     1  UNL1        0.0320
     16  C         23.3260  -21.5390   -9.5730 C.2     1  UNL1        0.0310
     17  C         23.6170  -22.8590   -9.9440 C.2     1  UNL1        0.0300
     18  C         22.8110  -23.8520   -9.3700 C.2     1  UNL1        0.0310
     19  C         21.7760  -23.5460   -8.4730 C.2     1  UNL1        0.0320
     20  N         24.6310  -23.1630  -10.8220 N.pl3   1  UNL1       -0.3810
     21  C         24.5140  -23.0720  -12.2760 C.3     1  UNL1        0.1230
     22  C         25.7860  -23.7430  -12.7870 C.3     1  UNL1        0.0210
     23  C         26.7990  -23.4230  -11.7020 C.3     1  UNL1        0.0210
     24  C         25.9820  -23.5460  -10.4190 C.3     1  UNL1        0.1230
     25  C         16.0220  -23.6330   -7.4640 C.2     1  UNL1        0.2530
     26  N         16.1400  -22.5140   -8.2650 N.am    1  UNL1       -0.3530
     27  H         16.0480  -21.5940   -7.8610 H       1  UNL1        0.1630
     28  O         15.8520  -24.7570   -7.9290 O.2     1  UNL1       -0.2680
     29  C         15.9960  -22.5880   -9.7040 C.3     1  UNL1        0.1610
     30  C         17.2890  -22.2180  -10.3810 C.2     1  UNL1       -0.0410
     31  C         17.3750  -21.0790  -11.1930 C.2     1  UNL1        0.0090
     32  C         18.5720  -20.7560  -11.8380 C.2     1  UNL1        0.0070
     33  C         19.7040  -21.5630  -11.6810 C.2     1  UNL1       -0.0620
     34  C         20.9780  -21.2330  -12.4010 C.3     1  UNL1        0.0480
     35  C         19.6140  -22.7140  -10.8890 C.2     1  UNL1        0.0070
     36  C         18.4180  -23.0370  -10.2420 C.2     1  UNL1        0.0090
@<TRIPOS>BOND
     1    22    21    1
     2    22    23    1
     3    34    33    1
     4    21    20    1
     5    32    33    2
     6    32    31    1
     7    23    24    1
     8    33    35    1
     9    31    30    2
    10    35    36    2
    11    20    24    1
    12    20    17    1
    13    30    36    1
    14    30    29    1
    15    17    16    2
    16    17    18    1
    17    29    26    1
    18    16    15    1
    19    18    19    2
    20    15    14    2
    21    19    14    1
    22    26    27    1
    23    26    25   am
    24    14    12    1
    25    28    25    2
    26    25     1    1
    27    13    12    1
    28    12    10   am
    29     8     7    1
    30    10    11    2
    31    10     9    1
    32     7     9    1
    33     7     6    1
    34     1     6    2
    35     1     2    1
    36     6     5    1
    37     2     3    2
    38     5     4    2
    39     3     4    1
