@<TRIPOS>MOLECULE
62292_out_ligand_01.pdbqt
 25 27 0 0 0
SMALL
GASTEIGER

@<TRIPOS>ATOM
      1  C         17.5290  -22.9870   -9.0580 C.2     1  UNL1        0.2650
      2  O         16.8490  -22.8420  -10.0750 O.2     1  UNL1       -0.2670
      3  N         18.9410  -23.0900   -9.0960 N.am    1  UNL1       -0.3130
      4  C         19.6460  -23.8840   -8.0860 C.3     1  UNL1        0.1330
      5  C         20.7140  -24.7620   -8.7060 C.3     1  UNL1        0.0250
      6  C         21.7430  -23.8830   -9.3880 C.3     1  UNL1        0.0430
      7  C         21.1010  -22.8640  -10.3010 C.2     1  UNL1       -0.0150
      8  C         21.8750  -22.2360  -11.3070 C.2     1  UNL1        0.0400
      9  C         21.3010  -21.2920  -12.1690 C.2     1  UNL1        0.0180
     10  C         19.9610  -20.9600  -12.0320 C.2     1  UNL1        0.0030
     11  C         19.1940  -21.5610  -11.0330 C.2     1  UNL1        0.0300
     12  C         19.7350  -22.5180  -10.1560 C.2     1  UNL1        0.0440
     13  C         16.9020  -23.0570   -7.7390 C.2     1  UNL1        0.0740
     14  S         17.5280  -22.1140   -6.4610 S.3     1  UNL1       -0.0890
     15  C         16.3620  -22.6990   -5.3520 C.2     1  UNL1       -0.0110
     16  C         15.5130  -23.6320   -5.9320 C.2     1  UNL1       -0.0470
     17  C         15.8470  -23.8380   -7.3110 C.2     1  UNL1        0.0320
     18  C         14.4080  -24.3450   -5.2250 C.3     1  UNL1        0.0490
     19  C         16.3740  -22.1950   -3.9360 C.3     1  UNL1        0.0420
     20  C         17.7910  -22.0590   -3.3980 C.3     1  UNL1        0.0100
     21  C         23.3260  -22.5270  -11.4670 C.2     1  UNL1        0.2490
     22  N         24.1780  -21.7680  -10.7130 N.am    1  UNL1       -0.3660
     23  H         23.8740  -20.9250  -10.2450 H       1  UNL1        0.1590
     24  H         25.1670  -21.8780  -10.8970 H       1  UNL1        0.1590
     25  O         23.7440  -23.3780  -12.2370 O.2     1  UNL1       -0.2680
@<TRIPOS>BOND
     1    25    21    2
     2     9    10    2
     3     9     8    1
     4    10    11    1
     5    21     8    1
     6    21    22   am
     7     8     7    2
     8    11    12    2
     9    24    22    1
    10    22    23    1
    11     7    12    1
    12     7     6    1
    13    12     3    1
    14     2     1    2
    15     6     5    1
    16     3     1   am
    17     3     4    1
    18     1    13    1
    19     5     4    1
    20    13    17    2
    21    13    14    1
    22    17    16    1
    23    14    15    1
    24    16    15    2
    25    16    18    1
    26    15    19    1
    27    19    20    1
