@<TRIPOS>MOLECULE
62302_out_ligand_01.pdbqt
 27 30 0 0 0
SMALL
GASTEIGER

@<TRIPOS>ATOM
      1  C         22.4710  -22.3740  -10.0530 C.2     1  UNL1        0.0320
      2  C         21.3090  -22.5200  -10.8070 C.2     1  UNL1        0.0190
      3  C         20.0670  -22.6450  -10.1710 C.2     1  UNL1        0.0300
      4  C         19.9480  -22.6400   -8.7690 C.2     1  UNL1        0.0300
      5  C         21.1450  -22.5260   -8.0340 C.2     1  UNL1        0.0300
      6  C         22.3920  -22.3830   -8.6570 C.2     1  UNL1        0.0190
      7  C         23.7710  -22.2410  -10.7580 C.2     1  UNL1        0.2520
      8  N         24.1040  -23.2730  -11.6040 N.am    1  UNL1       -0.3500
      9  H         23.6000  -24.1480  -11.5130 H       1  UNL1        0.1630
     10  O         24.4840  -21.2650  -10.5660 O.2     1  UNL1       -0.2680
     11  C         25.4440  -23.3660  -12.1350 C.3     1  UNL1        0.2030
     12  C         25.3520  -23.7740  -13.5580 C.2     1  UNL1        0.1470
     13  N         25.4530  -25.0030  -14.0340 N.2     1  UNL1       -0.1340
     14  N         25.2870  -24.9520  -15.3970 N.2     1  UNL1       -0.1430
     15  C         25.0840  -23.6960  -15.7220 C.2     1  UNL1        0.2350
     16  N         25.1000  -22.9250  -14.6010 N.pl3   1  UNL1       -0.3300
     17  C         24.8270  -21.5120  -14.5460 C.3     1  UNL1        0.1580
     18  N         18.7180  -22.7810   -8.0970 N.pl3   1  UNL1       -0.3760
     19  C         17.4890  -22.4000   -8.8100 C.3     1  UNL1        0.1280
     20  C         16.2670  -23.0190   -8.1290 C.3     1  UNL1        0.0590
     21  C         16.2270  -22.7100   -6.6600 C.2     1  UNL1       -0.0490
     22  C         15.0140  -22.7750   -5.9590 C.2     1  UNL1        0.0080
     23  C         17.4190  -22.4240   -5.9720 C.2     1  UNL1       -0.0340
     24  C         14.9800  -22.5450   -4.5860 C.2     1  UNL1        0.0010
     25  C         16.1560  -22.2460   -3.9000 C.2     1  UNL1        0.0010
     26  C         17.3680  -22.1820   -4.5880 C.2     1  UNL1        0.0090
     27  C         18.7600  -22.3490   -6.6790 C.3     1  UNL1        0.1620
@<TRIPOS>BOND
     1    15    14    2
     2    15    16    1
     3    14    13    1
     4    16    17    1
     5    16    12    1
     6    13    12    2
     7    12    11    1
     8    11     8    1
     9     8     9    1
    10     8     7   am
    11     2     3    1
    12     2     1    2
    13     7    10    2
    14     7     1    1
    15     3     4    2
    16     1     6    1
    17    19    20    1
    18    19    18    1
    19     4    18    1
    20     4     5    1
    21     6     5    2
    22    20    21    1
    23    18    27    1
    24    27    23    1
    25    21    23    2
    26    21    22    1
    27    23    26    1
    28    22    24    2
    29    26    25    2
    30    24    25    1
