@<TRIPOS>MOLECULE
62301_out_ligand_01.pdbqt
 36 40 0 0 0
SMALL
GASTEIGER

@<TRIPOS>ATOM
      1  C         17.3920  -22.6390   -5.5920 C.2     1  UNL1        0.0540
      2  C         17.3960  -23.1310   -4.2790 C.2     1  UNL1        0.0190
      3  C         16.1940  -23.4940   -3.6690 C.2     1  UNL1        0.0010
      4  C         14.9910  -23.3760   -4.3660 C.2     1  UNL1        0.0020
      5  C         14.9840  -22.8990   -5.6780 C.2     1  UNL1        0.0250
      6  C         16.1820  -22.5430   -6.3010 C.2     1  UNL1        0.0380
      7  N         16.1290  -21.9780   -7.6200 N.pl3   1  UNL1       -0.1800
      8  H         15.2990  -21.3870   -7.7800 H       1  UNL1        0.1460
      9  S         16.2450  -23.0830   -8.9050 S.O2    1  UNL1        0.2460
     10  O         16.8990  -24.2890   -8.4420 O.2     1  UNL1       -0.2060
     11  O         14.9510  -23.1220   -9.5520 O.2     1  UNL1       -0.2060
     12  C         17.3420  -22.2360  -10.0200 C.2     1  UNL1        0.0770
     13  C         16.9590  -20.9850  -10.5660 C.2     1  UNL1        0.0270
     14  C         17.8080  -20.3020  -11.4430 C.2     1  UNL1        0.0330
     15  C         19.0110  -20.9040  -11.7310 C.ar    1  UNL1        0.0630
     16  N         20.0450  -20.4730  -12.5540 N.ar    1  UNL1       -0.3070
     17  C         19.3860  -22.1310  -11.1820 C.ar    1  UNL1        0.0640
     18  C         21.0740  -21.4250  -12.5250 C.ar    1  UNL1        0.3250
     19  H         20.0880  -19.6210  -13.0880 H       1  UNL1        0.1700
     20  O         22.1300  -21.3700  -13.1270 O.2     1  UNL1       -0.2470
     21  N         20.6480  -22.4500  -11.6700 N.ar    1  UNL1       -0.3060
     22  H         21.1980  -23.2670  -11.4570 H       1  UNL1        0.1700
     23  C         18.5780  -22.8280  -10.3180 C.2     1  UNL1        0.0560
     24  C         18.6680  -22.2710   -6.2590 C.2     1  UNL1        0.2580
     25  O         19.1150  -21.1480   -6.0510 O.2     1  UNL1       -0.2670
     26  N         19.2400  -23.2750   -7.0160 N.am    1  UNL1       -0.3230
     27  H         18.8340  -24.1990   -6.9300 H       1  UNL1        0.1690
     28  C         20.4190  -23.1930   -7.7880 C.2     1  UNL1        0.0370
     29  C         20.8480  -24.3790   -8.4250 C.2     1  UNL1        0.0320
     30  C         22.0000  -24.4020   -9.2200 C.2     1  UNL1        0.0420
     31  C         22.6980  -23.2250   -9.3620 C.2     1  UNL1        0.1050
     32  C         22.2860  -22.0650   -8.7500 C.2     1  UNL1        0.1070
     33  O         23.8320  -23.0550  -10.0920 O.2     1  UNL1       -0.3230
     34  C         21.1540  -22.0150   -7.9600 C.2     1  UNL1        0.0690
     35  O         23.1100  -21.0170   -9.0230 O.2     1  UNL1       -0.3230
     36  C         24.0940  -21.6550   -9.8610 C.3     1  UNL1        0.3520
@<TRIPOS>BOND
     1    20    18    2
     2    19    16    1
     3    16    18   ar
     4    16    15   ar
     5    18    21   ar
     6    15    14    2
     7    15    17   ar
     8    21    22    1
     9    21    17   ar
    10    14    13    1
    11    17    23    2
    12    13    12    2
    13    23    12    1
    14    33    36    1
    15    33    31    1
    16    12     9    1
    17    36    35    1
    18    11     9    2
    19    31    30    2
    20    31    32    1
    21    30    29    1
    22    35    32    1
    23     9    10    2
    24     9     7    1
    25    32    34    2
    26    29    28    2
    27    34    28    1
    28    28    26    1
    29     8     7    1
    30     7     6    1
    31    26    27    1
    32    26    24   am
    33     6     5    1
    34     6     1    2
    35    24    25    2
    36    24     1    1
    37     5     4    2
    38     1     2    1
    39     4     3    1
    40     2     3    2
