@<TRIPOS>MOLECULE
62303_out_ligand_01.pdbqt
 33 36 0 0 0
SMALL
GASTEIGER

@<TRIPOS>ATOM
      1  N         16.3390  -21.8060   -7.7960 N.pl3   1  UNL1       -0.1800
      2  H         17.1700  -21.2050   -7.9200 H       1  UNL1        0.1460
      3  C         16.2400  -22.3730   -6.4750 C.2     1  UNL1        0.0380
      4  C         14.9690  -22.6680   -5.9670 C.2     1  UNL1        0.0250
      5  C         14.8280  -23.3080   -4.7360 C.2     1  UNL1        0.0020
      6  C         15.9570  -23.6670   -4.0050 C.2     1  UNL1        0.0010
      7  C         17.2310  -23.3560   -4.4880 C.2     1  UNL1        0.0190
      8  C         17.3870  -22.6760   -5.7090 C.2     1  UNL1        0.0540
      9  C         18.7470  -22.2690   -6.1930 C.2     1  UNL1        0.2580
     10  O         19.2330  -21.2290   -5.7610 O.2     1  UNL1       -0.2670
     11  N         19.3840  -23.1650   -7.0380 N.am    1  UNL1       -0.3230
     12  H         18.9670  -24.0770   -7.1540 H       1  UNL1        0.1690
     13  C         20.6340  -22.9980   -7.6740 C.2     1  UNL1        0.0350
     14  C         21.3950  -21.8300   -7.6090 C.2     1  UNL1        0.0290
     15  C         22.6200  -21.7430   -8.2780 C.2     1  UNL1        0.0020
     16  C         23.0930  -22.8210   -9.0210 C.2     1  UNL1        0.0000
     17  C         22.3390  -23.9880   -9.1000 C.2     1  UNL1        0.0020
     18  C         21.1140  -24.0750   -8.4320 C.2     1  UNL1        0.0290
     19  S         16.3760  -22.9100   -9.0940 S.O2    1  UNL1        0.2460
     20  O         15.0920  -22.9270   -9.7590 O.2     1  UNL1       -0.2060
     21  O         17.0020  -24.1210   -8.6090 O.2     1  UNL1       -0.2060
     22  C         17.5600  -22.1560  -10.1880 C.2     1  UNL1        0.0770
     23  C         17.2050  -20.9530  -10.8500 C.2     1  UNL1        0.0270
     24  C         18.1040  -20.3280  -11.7210 C.2     1  UNL1        0.0330
     25  C         19.3250  -20.9380  -11.8860 C.ar    1  UNL1        0.0630
     26  N         20.4050  -20.5590  -12.6750 N.ar    1  UNL1       -0.3070
     27  C         19.6720  -22.1170  -11.2240 C.ar    1  UNL1        0.0640
     28  C         21.4360  -21.4960  -12.5110 C.ar    1  UNL1        0.3250
     29  H         20.4760  -19.7490  -13.2690 H       1  UNL1        0.1700
     30  O         22.5280  -21.4770  -13.0490 O.2     1  UNL1       -0.2470
     31  N         20.9630  -22.4590  -11.6070 N.ar    1  UNL1       -0.3060
     32  H         21.5050  -23.2500  -11.2990 H       1  UNL1        0.1700
     33  C         18.8160  -22.7560  -10.3610 C.2     1  UNL1        0.0560
@<TRIPOS>BOND
     1    29    26    1
     2    30    28    2
     3    26    28   ar
     4    26    25   ar
     5    28    31   ar
     6    25    24    2
     7    25    27   ar
     8    24    23    1
     9    31    32    1
    10    31    27   ar
    11    27    33    2
    12    23    22    2
    13    33    22    1
    14    22    19    1
    15    20    19    2
    16    17    16    2
    17    17    18    1
    18    19    21    2
    19    19     1    1
    20    16    15    1
    21    18    13    2
    22    15    14    2
    23     2     1    1
    24     1     3    1
    25    13    14    1
    26    13    11    1
    27    12    11    1
    28    11     9   am
    29     3     4    2
    30     3     8    1
    31     9    10    2
    32     9     8    1
    33     4     5    1
    34     8     7    2
    35     5     6    2
    36     7     6    1
