@<TRIPOS>MOLECULE
62309_out_ligand_01.pdbqt
 35 38 0 0 0
SMALL
GASTEIGER

@<TRIPOS>ATOM
      1  C         23.6420  -21.9880  -13.2240 C.2     1  UNL1        0.0540
      2  C         24.6560  -21.8770  -14.1860 C.2     1  UNL1        0.0190
      3  C         25.8130  -22.6490  -14.0720 C.2     1  UNL1        0.0010
      4  C         25.9650  -23.5280  -13.0000 C.2     1  UNL1        0.0020
      5  C         24.9630  -23.6370  -12.0340 C.2     1  UNL1        0.0250
      6  C         23.8050  -22.8620  -12.1340 C.2     1  UNL1        0.0380
      7  N         22.7590  -23.0660  -11.1710 N.pl3   1  UNL1       -0.1800
      8  H         22.4060  -24.0360  -11.1570 H       1  UNL1        0.1460
      9  S         23.1300  -22.6340   -9.5700 S.O2    1  UNL1        0.2460
     10  O         23.3210  -21.2010   -9.4890 O.2     1  UNL1       -0.2060
     11  O         24.1420  -23.5570   -9.1020 O.2     1  UNL1       -0.2060
     12  C         21.6270  -23.0540   -8.7150 C.2     1  UNL1        0.0770
     13  C         21.0700  -24.3480   -8.8750 C.2     1  UNL1        0.0270
     14  C         19.8860  -24.6980   -8.2160 C.2     1  UNL1        0.0330
     15  C         19.3100  -23.7290   -7.4290 C.ar    1  UNL1        0.0630
     16  N         18.1490  -23.7820   -6.6650 N.ar    1  UNL1       -0.3070
     17  C         19.8600  -22.4540   -7.2840 C.ar    1  UNL1        0.0640
     18  C         17.9630  -22.5400   -6.0390 C.ar    1  UNL1        0.3250
     19  H         17.5170  -24.5580   -6.5620 H       1  UNL1        0.1700
     20  O         17.0470  -22.2300   -5.2980 O.2     1  UNL1       -0.2470
     21  N         19.0360  -21.7280   -6.4330 N.ar    1  UNL1       -0.3060
     22  H         19.1520  -20.7720   -6.1350 H       1  UNL1        0.1700
     23  C         21.0180  -22.0770   -7.9150 C.2     1  UNL1        0.0560
     24  C         22.4150  -21.1540  -13.3230 C.2     1  UNL1        0.2530
     25  N         21.4640  -21.3530  -12.3480 N.am    1  UNL1       -0.3530
     26  H         21.7430  -21.8230  -11.4960 H       1  UNL1        0.1630
     27  O         22.3160  -20.3220  -14.2190 O.2     1  UNL1       -0.2680
     28  C         20.3280  -20.4660  -12.2550 C.3     1  UNL1        0.1610
     29  C         19.1710  -21.1590  -11.5900 C.2     1  UNL1       -0.0410
     30  C         19.2520  -22.5180  -11.2580 C.2     1  UNL1        0.0090
     31  C         18.1900  -23.1550  -10.6110 C.2     1  UNL1        0.0070
     32  C         17.0280  -22.4450  -10.2880 C.2     1  UNL1       -0.0620
     33  C         15.8990  -23.1200   -9.5660 C.3     1  UNL1        0.0480
     34  C         16.9550  -21.0820  -10.5970 C.2     1  UNL1        0.0070
     35  C         18.0170  -20.4440  -11.2440 C.2     1  UNL1        0.0090
@<TRIPOS>BOND
     1    27    24    2
     2     2     3    1
     3     2     1    2
     4     3     4    2
     5    24     1    1
     6    24    25   am
     7     1     6    1
     8     4     5    1
     9    25    28    1
    10    25    26    1
    11    28    29    1
    12     6     5    2
    13     6     7    1
    14    29    30    2
    15    29    35    1
    16    30    31    1
    17    35    34    2
    18     7     8    1
    19     7     9    1
    20    31    32    2
    21    34    32    1
    22    32    33    1
    23     9    10    2
    24     9    11    2
    25     9    12    1
    26    13    12    2
    27    13    14    1
    28    12    23    1
    29    14    15    2
    30    23    17    2
    31    15    17   ar
    32    15    16   ar
    33    17    21   ar
    34    16    19    1
    35    16    18   ar
    36    21    22    1
    37    21    18   ar
    38    18    20    2
