@<TRIPOS>MOLECULE
62305_out_ligand_01.pdbqt
 34 37 0 0 0
SMALL
GASTEIGER

@<TRIPOS>ATOM
      1  C         17.3980  -22.5550   -5.5730 C.2     1  UNL1        0.0540
      2  C         17.3020  -23.0370   -4.2590 C.2     1  UNL1        0.0190
      3  C         16.0570  -23.4020   -3.7410 C.2     1  UNL1        0.0010
      4  C         14.9120  -23.2940   -4.5290 C.2     1  UNL1        0.0020
      5  C         15.0040  -22.8260   -5.8420 C.2     1  UNL1        0.0250
      6  C         16.2450  -22.4670   -6.3730 C.2     1  UNL1        0.0380
      7  N         16.2920  -21.9140   -7.6960 N.pl3   1  UNL1       -0.1800
      8  H         15.5150  -21.2640   -7.8980 H       1  UNL1        0.1460
      9  S         16.3830  -23.0360   -8.9690 S.O2    1  UNL1        0.2460
     10  O         17.0360  -24.2400   -8.4980 O.2     1  UNL1       -0.2060
     11  O         15.0840  -23.0740   -9.6030 O.2     1  UNL1       -0.2060
     12  C         17.4760  -22.2120  -10.1050 C.2     1  UNL1        0.0770
     13  C         17.0580  -21.0200  -10.7420 C.2     1  UNL1        0.0270
     14  C         17.9100  -20.3600  -11.6320 C.2     1  UNL1        0.0340
     15  C         19.1460  -20.9280  -11.8380 C.ar    1  UNL1        0.0710
     16  N         20.1830  -20.5320  -12.6300 N.ar    1  UNL1       -0.3000
     17  C         19.5610  -22.0870  -11.2120 C.ar    1  UNL1        0.1090
     18  C         21.2020  -21.4440  -12.4790 C.ar    1  UNL1        0.3700
     19  H         20.2420  -19.7240  -13.2270 H       1  UNL1        0.1710
     20  O         22.2790  -21.3860  -13.0510 O.2     1  UNL1       -0.2380
     21  O         20.8440  -22.4580  -11.5800 O.2     1  UNL1       -0.2590
     22  C         18.7480  -22.7600  -10.3300 C.2     1  UNL1        0.0640
     23  C         18.7210  -22.1860   -6.1400 C.2     1  UNL1        0.2580
     24  N         19.2970  -23.1470   -6.9470 N.am    1  UNL1       -0.3230
     25  H         18.8530  -24.0570   -6.9600 H       1  UNL1        0.1690
     26  O         19.1950  -21.1010   -5.8160 O.2     1  UNL1       -0.2670
     27  C         20.5140  -23.0510   -7.6530 C.2     1  UNL1        0.0350
     28  C         21.3320  -21.9230   -7.6450 C.2     1  UNL1        0.0320
     29  C         22.5210  -21.9070   -8.3840 C.2     1  UNL1        0.0390
     30  C         22.9100  -23.0140   -9.1390 C.2     1  UNL1        0.0680
     31  C         22.0950  -24.1430   -9.1520 C.2     1  UNL1        0.0390
     32  C         20.9040  -24.1580   -8.4140 C.2     1  UNL1        0.0320
     33  O         24.0920  -22.8630   -9.8100 O.2     1  UNL1       -0.3560
     34  C         24.3710  -21.5750  -10.3410 C.3     1  UNL1        0.2100
@<TRIPOS>BOND
     1    19    16    1
     2    20    18    2
     3    16    18   ar
     4    16    15   ar
     5    18    21   ar
     6    15    14    2
     7    15    17   ar
     8    14    13    1
     9    21    17   ar
    10    17    22    2
    11    13    12    2
    12    34    33    1
    13    22    12    1
    14    12     9    1
    15    33    30    1
    16    11     9    2
    17    31    30    2
    18    31    32    1
    19    30    29    1
    20     9    10    2
    21     9     7    1
    22    32    27    2
    23    29    28    2
    24     8     7    1
    25     7     6    1
    26    27    28    1
    27    27    24    1
    28    25    24    1
    29    24    23   am
    30     6     5    1
    31     6     1    2
    32    23    26    2
    33    23     1    1
    34     5     4    2
    35     1     2    1
    36     4     3    1
    37     2     3    2
