@<TRIPOS>MOLECULE
62304_out_ligand_01.pdbqt
 35 38 0 0 0
SMALL
GASTEIGER

@<TRIPOS>ATOM
      1  C         17.3530  -20.6550  -11.3950 C.3     1  UNL1        0.0500
      2  C         18.5710  -21.4760  -11.0810 C.2     1  UNL1       -0.0390
      3  C         19.7370  -21.2440  -11.8330 C.2     1  UNL1        0.0100
      4  C         20.9050  -21.9710  -11.5980 C.2     1  UNL1        0.0310
      5  C         20.9240  -22.9540  -10.6140 C.2     1  UNL1        0.0440
      6  C         19.7890  -23.2000   -9.8510 C.2     1  UNL1        0.0550
      7  C         18.6180  -22.4550  -10.0700 C.2     1  UNL1        0.0830
      8  N         22.1340  -23.6410  -10.3230 N.pl3   1  UNL1       -0.2810
      9  H         22.0560  -24.5430   -9.8500 H       1  UNL1        0.1790
     10  S         23.4000  -22.7370   -9.6530 S.O2    1  UNL1        0.2630
     11  O         22.8900  -21.4710   -9.1740 O.2     1  UNL1       -0.2000
     12  O         24.1190  -23.6370   -8.7780 O.2     1  UNL1       -0.2000
     13  C         24.4400  -22.4350  -11.0610 C.2     1  UNL1        0.0820
     14  C         25.3150  -21.3230  -11.0420 C.2     1  UNL1        0.0280
     15  C         26.1350  -21.0510  -12.1410 C.2     1  UNL1        0.0340
     16  C         26.0340  -21.9070  -13.2120 C.ar    1  UNL1        0.0710
     17  N         26.6870  -21.9120  -14.4100 N.ar    1  UNL1       -0.3000
     18  C         25.1740  -22.9870  -13.2400 C.ar    1  UNL1        0.1090
     19  C         26.2220  -22.9810  -15.1390 C.ar    1  UNL1        0.3700
     20  H         27.3850  -21.2680  -14.7450 H       1  UNL1        0.1710
     21  O         26.6010  -23.2770  -16.2620 O.2     1  UNL1       -0.2380
     22  O         25.2510  -23.6980  -14.4260 O.2     1  UNL1       -0.2590
     23  C         24.3510  -23.2800  -12.1760 C.2     1  UNL1        0.0650
     24  S         17.2420  -22.8270   -8.9950 S.O2    1  UNL1        0.2460
     25  O         16.6080  -21.6100   -8.5420 O.2     1  UNL1       -0.2060
     26  O         16.4860  -23.8680   -9.6580 O.2     1  UNL1       -0.2060
     27  N         17.9940  -23.5700   -7.6620 N.pl3   1  UNL1       -0.1800
     28  H         17.5330  -24.4650   -7.4870 H       1  UNL1        0.1460
     29  C         18.1830  -22.7510   -6.4990 C.2     1  UNL1        0.0440
     30  C         19.1990  -21.7930   -6.4980 C.2     1  UNL1        0.0260
     31  C         19.3570  -20.9420   -5.4010 C.2     1  UNL1        0.0020
     32  C         18.4960  -21.0400   -4.3080 C.2     1  UNL1        0.0020
     33  C         17.4770  -21.9940   -4.3040 C.2     1  UNL1        0.0260
     34  C         17.3180  -22.8460   -5.3980 C.2     1  UNL1        0.0560
     35 CL         16.0620  -24.0320   -5.3500 Cl      1  UNL1       -0.0820
@<TRIPOS>BOND
     1    21    19    2
     2    19    22   ar
     3    19    17   ar
     4    20    17    1
     5    22    18   ar
     6    17    16   ar
     7    18    16   ar
     8    18    23    1
     9    16    15    1
    10    23    13    2
    11    15    14    2
    12     3     4    1
    13     3     2    2
    14     4     5    2
    15     1     2    1
    16     2     7    1
    17    13    14    1
    18    13    10    1
    19     5     8    1
    20     5     6    1
    21     8     9    1
    22     8    10    1
    23     7     6    2
    24     7    24    1
    25    26    24    2
    26    10    11    2
    27    10    12    2
    28    24    25    2
    29    24    27    1
    30    27    28    1
    31    27    29    1
    32    29    30    2
    33    29    34    1
    34    30    31    1
    35    31    32    2
    36    34    35    1
    37    34    33    2
    38    32    33    1
