@<TRIPOS>MOLECULE
62306_out_ligand_01.pdbqt
 37 41 0 0 0
SMALL
GASTEIGER

@<TRIPOS>ATOM
      1  C         16.1380  -23.5310   -5.7780 C.2     1  UNL1        0.0540
      2  C         14.8900  -23.4780   -5.1410 C.2     1  UNL1        0.0190
      3  C         14.7960  -23.0060   -3.8300 C.2     1  UNL1        0.0010
      4  C         15.9390  -22.5800   -3.1550 C.2     1  UNL1        0.0020
      5  C         17.1830  -22.6160   -3.7890 C.2     1  UNL1        0.0250
      6  C         17.2860  -23.0780   -5.1040 C.2     1  UNL1        0.0380
      7  N         18.5910  -23.1720   -5.6990 N.pl3   1  UNL1       -0.1800
      8  H         19.3270  -23.4350   -5.0240 H       1  UNL1        0.1460
      9  S         19.1280  -21.7970   -6.5400 S.O2    1  UNL1        0.2460
     10  O         18.0540  -21.2910   -7.3740 O.2     1  UNL1       -0.2060
     11  O         19.8050  -20.9500   -5.5810 O.2     1  UNL1       -0.2060
     12  C         20.3920  -22.4830   -7.5920 C.2     1  UNL1        0.0770
     13  C         20.2760  -23.8180   -8.0540 C.2     1  UNL1        0.0270
     14  C         21.2620  -24.3720   -8.8800 C.2     1  UNL1        0.0330
     15  C         22.3220  -23.5570   -9.2090 C.ar    1  UNL1        0.0630
     16  N         23.4350  -23.8240   -9.9980 N.ar    1  UNL1       -0.3070
     17  C         22.4220  -22.2410   -8.7570 C.ar    1  UNL1        0.0640
     18  C         24.2390  -22.6760  -10.0470 C.ar    1  UNL1        0.3250
     19  H         23.6560  -24.6790  -10.4800 H       1  UNL1        0.1700
     20  O         25.2900  -22.5500  -10.6500 O.2     1  UNL1       -0.2470
     21  N         23.5970  -21.7020   -9.2690 N.ar    1  UNL1       -0.3060
     22  H         23.9520  -20.7690   -9.1360 H       1  UNL1        0.1700
     23  C         21.4730  -21.6650   -7.9500 C.2     1  UNL1        0.0560
     24  C         16.2510  -24.0120   -7.1790 C.2     1  UNL1        0.2530
     25  O         16.7210  -25.1220   -7.3980 O.2     1  UNL1       -0.2680
     26  N         15.7900  -23.1640   -8.1580 N.am    1  UNL1       -0.3530
     27  H         15.3390  -22.2930   -7.9080 H       1  UNL1        0.1630
     28  C         15.8710  -23.4900   -9.5630 C.3     1  UNL1        0.1610
     29  C         16.8610  -22.5860  -10.2580 C.2     1  UNL1       -0.0380
     30  C         16.4790  -21.2720  -10.6220 C.2     1  UNL1        0.0120
     31  C         17.3730  -20.4130  -11.2650 C.2     1  UNL1        0.0400
     32  C         18.6420  -20.8850  -11.5200 C.2     1  UNL1        0.1050
     33  C         19.0270  -22.1590  -11.1700 C.2     1  UNL1        0.1050
     34  O         19.6470  -20.1860  -12.1160 O.2     1  UNL1       -0.3230
     35  C         18.1630  -23.0340  -10.5460 C.2     1  UNL1        0.0480
     36  O         20.3240  -22.4170  -11.4920 O.2     1  UNL1       -0.3230
     37  C         20.7210  -21.1500  -12.0590 C.3     1  UNL1        0.3520
@<TRIPOS>BOND
     1    34    37    1
     2    34    32    1
     3    37    36    1
     4    32    31    2
     5    32    33    1
     6    36    33    1
     7    31    30    1
     8    33    35    2
     9    20    18    2
    10    30    29    2
    11    35    29    1
    12    19    16    1
    13    29    28    1
    14    18    16   ar
    15    18    21   ar
    16    16    15   ar
    17    28    26    1
    18    21    22    1
    19    21    17   ar
    20    15    14    2
    21    15    17   ar
    22    14    13    1
    23    17    23    2
    24    26    27    1
    25    26    24   am
    26    13    12    2
    27    23    12    1
    28    12     9    1
    29    25    24    2
    30    10     9    2
    31    24     1    1
    32     9     7    1
    33     9    11    2
    34     1     2    2
    35     1     6    1
    36     7     6    1
    37     7     8    1
    38     2     3    1
    39     6     5    2
    40     3     4    2
    41     5     4    1
