@<TRIPOS>MOLECULE
62315_out_ligand_01.pdbqt
 35 38 0 0 0
SMALL
GASTEIGER

@<TRIPOS>ATOM
      1  C         18.4720  -22.4670   -9.9530 C.2     1  UNL1        0.0870
      2  C         19.6630  -23.1620   -9.6870 C.2     1  UNL1        0.0550
      3  C         20.7900  -22.9240  -10.4680 C.2     1  UNL1        0.0440
      4  C         20.7430  -22.0030  -11.5090 C.2     1  UNL1        0.0310
      5  C         19.5660  -21.2970  -11.7620 C.2     1  UNL1        0.0100
      6  C         18.4170  -21.5060  -10.9820 C.2     1  UNL1       -0.0390
      7  C         17.1810  -20.7110  -11.3020 C.3     1  UNL1        0.0500
      8  N         21.9780  -23.6720  -10.2470 N.pl3   1  UNL1       -0.2810
      9  H         22.3080  -24.2650  -11.0090 H       1  UNL1        0.1790
     10  S         23.2800  -22.8770   -9.5130 S.O2    1  UNL1        0.2630
     11  O         22.7320  -21.6790   -8.9130 O.2     1  UNL1       -0.2000
     12  O         24.0470  -23.8220   -8.7310 O.2     1  UNL1       -0.2000
     13  C         24.2560  -22.3670  -10.9060 C.2     1  UNL1        0.0820
     14  C         25.1310  -21.2640  -10.7660 C.2     1  UNL1        0.0280
     15  C         25.9230  -20.8500  -11.8420 C.2     1  UNL1        0.0340
     16  C         25.8010  -21.5690  -13.0090 C.ar    1  UNL1        0.0710
     17  N         26.4240  -21.4180  -14.2130 N.ar    1  UNL1       -0.3000
     18  C         24.9560  -22.6520  -13.1460 C.ar    1  UNL1        0.1090
     19  C         25.9550  -22.3990  -15.0550 C.ar    1  UNL1        0.3700
     20  H         27.1130  -20.7350  -14.4800 H       1  UNL1        0.1710
     21  O         26.3080  -22.5490  -16.2150 O.2     1  UNL1       -0.2380
     22  O         25.0120  -23.2110  -14.4120 O.2     1  UNL1       -0.2590
     23  C         24.1660  -23.0870  -12.1060 C.2     1  UNL1        0.0650
     24  S         17.0280  -22.8450   -8.9700 S.O2    1  UNL1        0.2630
     25  O         16.1290  -23.6650   -9.7510 O.2     1  UNL1       -0.2000
     26  O         16.5990  -21.5840   -8.4020 O.2     1  UNL1       -0.2000
     27  N         17.5930  -23.7540   -7.6810 N.pl3   1  UNL1       -0.2810
     28  H         18.4670  -24.2300   -7.8960 H       1  UNL1        0.1790
     29  C         17.2760  -23.4950   -6.3140 C.2     1  UNL1        0.0430
     30  C         16.0480  -23.9770   -5.8480 C.2     1  UNL1        0.0300
     31  C         15.6170  -23.6930   -4.5510 C.2     1  UNL1        0.0030
     32  C         16.4040  -22.9090   -3.7120 C.2     1  UNL1        0.0070
     33  C         17.6290  -22.4080   -4.1630 C.2     1  UNL1       -0.0600
     34  C         18.4550  -21.5140   -3.2860 C.3     1  UNL1        0.0480
     35  C         18.0480  -22.6920   -5.4730 C.2     1  UNL1        0.0370
@<TRIPOS>BOND
     1    21    19    2
     2    19    22   ar
     3    19    17   ar
     4    20    17    1
     5    22    18   ar
     6    17    16   ar
     7    18    16   ar
     8    18    23    1
     9    16    15    1
    10    23    13    2
    11    15    14    2
    12     5     4    2
    13     5     6    1
    14     4     3    1
    15     7     6    1
    16     9     8    1
    17     6     1    2
    18    13    14    1
    19    13    10    1
    20     3     8    1
    21     3     2    2
    22     8    10    1
    23     1     2    1
    24     1    24    1
    25    25    24    2
    26    10    11    2
    27    10    12    2
    28    24    26    2
    29    24    27    1
    30    28    27    1
    31    27    29    1
    32    29    30    2
    33    29    35    1
    34    30    31    1
    35    35    33    2
    36    31    32    2
    37    33    32    1
    38    33    34    1
