@<TRIPOS>MOLECULE
62313_out_ligand_01.pdbqt
 29 31 0 0 0
SMALL
GASTEIGER

@<TRIPOS>ATOM
      1  C         16.7060  -22.7190   -9.6550 C.2     1  UNL1        0.2480
      2  O         15.6110  -22.4710  -10.1700 O.2     1  UNL1       -0.2710
      3  N         17.9030  -22.4360  -10.3320 N.am    1  UNL1       -0.3160
      4  C         17.7860  -21.3820  -11.3390 C.3     1  UNL1        0.1320
      5  C         19.0580  -21.0770  -12.1050 C.3     1  UNL1        0.0250
      6  C         20.2160  -20.9400  -11.1340 C.3     1  UNL1        0.0430
      7  C         20.3580  -22.2260  -10.3590 C.2     1  UNL1       -0.0150
      8  C         21.6240  -22.7110   -9.9630 C.2     1  UNL1        0.0400
      9  C         21.7410  -23.9500   -9.3220 C.2     1  UNL1        0.0180
     10  C         20.6070  -24.7190   -9.0890 C.2     1  UNL1        0.0030
     11  C         19.3500  -24.2290   -9.4450 C.2     1  UNL1        0.0300
     12  C         19.1980  -22.9600  -10.0250 C.2     1  UNL1        0.0440
     13  C         16.7790  -23.2310   -8.2040 C.3     1  UNL1        0.2780
     14  O         16.2450  -22.3280   -7.2410 O.2     1  UNL1       -0.3420
     15  C         16.2840  -22.6880   -5.9190 C.2     1  UNL1        0.0760
     16  C         15.3140  -23.4840   -5.2960 C.2     1  UNL1        0.0370
     17  C         15.4120  -23.7960   -3.9380 C.2     1  UNL1        0.0030
     18  C         16.4750  -23.3110   -3.1880 C.2     1  UNL1        0.0010
     19  C         17.4410  -22.5110   -3.7950 C.2     1  UNL1        0.0100
     20  C         17.3640  -22.1850   -5.1640 C.2     1  UNL1       -0.0210
     21  C         18.4690  -21.3090   -5.7510 C.3     1  UNL1        0.0170
     22  C         19.0670  -20.3630   -4.7040 C.3     1  UNL1        0.0150
     23  C         19.5330  -22.1520   -6.4840 C.3     1  UNL1        0.0040
     24  C         20.8020  -21.3710   -6.8010 C.3     1  UNL1        0.0060
     25  C         22.8590  -21.9130  -10.1760 C.2     1  UNL1        0.2490
     26  N         23.5630  -22.1820  -11.3170 N.am    1  UNL1       -0.3660
     27  H         24.3440  -21.5700  -11.5220 H       1  UNL1        0.1590
     28  H         23.1760  -22.7260  -12.0760 H       1  UNL1        0.1590
     29  O         23.2240  -21.0530   -9.3870 O.2     1  UNL1       -0.2680
@<TRIPOS>BOND
     1     5     4    1
     2     5     6    1
     3    28    26    1
     4    27    26    1
     5     4     3    1
     6    26    25   am
     7     6     7    1
     8     7    12    2
     9     7     8    1
    10     3    12    1
    11     3     1   am
    12    25     8    1
    13    25    29    2
    14     2     1    2
    15    12    11    1
    16     8     9    2
    17     1    13    1
    18    11    10    2
    19     9    10    1
    20    13    14    1
    21    14    15    1
    22    24    23    1
    23    23    21    1
    24    15    16    2
    25    15    20    1
    26    21    20    1
    27    21    22    1
    28    16    17    1
    29    20    19    2
    30    17    18    2
    31    19    18    1
