@<TRIPOS>MOLECULE
62324_out_ligand_01.pdbqt
 37 40 0 0 0
SMALL
GASTEIGER

@<TRIPOS>ATOM
      1  C         20.3390  -22.2510  -10.7080 C.2     1  UNL1        0.0330
      2  C         20.0990  -21.3190  -11.7260 C.2     1  UNL1        0.0170
      3  C         21.0960  -21.0460  -12.6680 C.2     1  UNL1        0.0030
      4  C         22.3220  -21.7110  -12.6040 C.2     1  UNL1        0.0240
      5  C         22.5460  -22.6550  -11.6010 C.2     1  UNL1        0.0230
      6  C         21.5680  -22.9190  -10.6470 C.2     1  UNL1        0.0410
      7  N         23.8200  -23.3080  -11.5260 N.pl3   1  UNL1       -0.1810
      8  H         23.7920  -24.0730  -10.8470 H       1  UNL1        0.1460
      9  S         25.0960  -22.2800  -11.0460 S.O2    1  UNL1        0.2460
     10  O         26.0810  -23.1260  -10.4080 O.2     1  UNL1       -0.2060
     11  O         24.5710  -21.0910  -10.4130 O.2     1  UNL1       -0.2060
     12  C         25.7210  -21.8070  -12.6380 C.2     1  UNL1        0.0770
     13  C         26.2250  -22.7680  -13.5150 C.2     1  UNL1        0.0280
     14  C         26.6480  -22.3720  -14.7840 C.2     1  UNL1        0.0410
     15  C         26.5660  -21.0300  -15.1720 C.2     1  UNL1        0.1020
     16  C         26.1270  -20.0600  -14.2550 C.2     1  UNL1        0.1030
     17  O         26.9410  -20.7780  -16.4690 O.2     1  UNL1       -0.3480
     18  C         25.6790  -20.4550  -12.9950 C.2     1  UNL1        0.0640
     19  O         26.0720  -18.7080  -14.4890 O.2     1  UNL1       -0.3480
     20  C         27.1140  -18.2330  -15.3420 C.3     1  UNL1        0.1780
     21  C         26.7240  -18.3810  -16.8040 C.3     1  UNL1        0.0530
     22  C         26.1580  -19.7610  -17.0950 C.3     1  UNL1        0.1780
     23  C         19.3200  -22.5910   -9.6790 C.2     1  UNL1        0.2510
     24  N         19.7760  -23.2050   -8.5350 N.am    1  UNL1       -0.3530
     25  H         20.7460  -23.4700   -8.4430 H       1  UNL1        0.1630
     26  O         18.1380  -22.3510   -9.8950 O.2     1  UNL1       -0.2680
     27  C         18.8530  -23.6580   -7.5190 C.3     1  UNL1        0.1620
     28  C         18.7370  -22.6570   -6.3920 C.2     1  UNL1       -0.0330
     29  C         19.6430  -21.5730   -6.4020 C.2     1  UNL1        0.0090
     30  C         19.6520  -20.6210   -5.3850 C.2     1  UNL1        0.0010
     31  C         18.7640  -20.7400   -4.3260 C.2     1  UNL1        0.0010
     32  C         17.8670  -21.8070   -4.2920 C.2     1  UNL1        0.0090
     33  C         17.8280  -22.7780   -5.3150 C.2     1  UNL1       -0.0220
     34  C         16.8260  -23.9150   -5.1780 C.3     1  UNL1        0.3100
     35  N         15.5420  -23.7800   -5.8840 N.3     1  UNL1        0.0840
     36  C         15.4000  -22.5330   -6.6270 C.3     1  UNL1        0.3090
     37  C         14.3800  -24.0290   -5.0380 C.3     1  UNL1        0.3090
@<TRIPOS>BOND
     1    22    21    1
     2    22    17    1
     3    21    20    1
     4    17    15    1
     5    20    19    1
     6    15    14    2
     7    15    16    1
     8    14    13    1
     9    19    16    1
    10    16    18    2
    11    13    12    2
    12    18    12    1
    13     3     4    2
    14     3     2    1
    15    12     9    1
    16     4     5    1
    17     2     1    2
    18     5     7    1
    19     5     6    2
    20     7     9    1
    21     7     8    1
    22     9    11    2
    23     9    10    2
    24     1     6    1
    25     1    23    1
    26    26    23    2
    27    23    24   am
    28    24    25    1
    29    24    27    1
    30    27    28    1
    31    36    35    1
    32    29    28    2
    33    29    30    1
    34    28    33    1
    35    35    34    1
    36    35    37    1
    37    30    31    2
    38    33    34    1
    39    33    32    2
    40    31    32    1
