@<TRIPOS>MOLECULE
62335_out_ligand_01.pdbqt
 34 37 0 0 0
SMALL
GASTEIGER

@<TRIPOS>ATOM
      1  C         19.8320  -22.2660  -10.1810 C.2     1  UNL1        0.0540
      2  C         18.9020  -21.3510  -10.6970 C.2     1  UNL1        0.0190
      3  C         19.1790  -20.6740  -11.8860 C.2     1  UNL1        0.0010
      4  C         20.3730  -20.9140  -12.5660 C.2     1  UNL1        0.0020
      5  C         21.2940  -21.8350  -12.0650 C.2     1  UNL1        0.0250
      6  C         21.0240  -22.5230  -10.8800 C.2     1  UNL1        0.0380
      7  N         22.0280  -23.4010  -10.3510 N.pl3   1  UNL1       -0.1800
      8  H         21.6580  -24.0800   -9.6670 H       1  UNL1        0.1460
      9  S         23.3860  -22.6480   -9.6610 S.O2    1  UNL1        0.2460
     10  O         23.0110  -21.3360   -9.1770 O.2     1  UNL1       -0.2060
     11  O         24.0240  -23.6210   -8.8010 O.2     1  UNL1       -0.2060
     12  C         24.4500  -22.4470  -11.0720 C.2     1  UNL1        0.0770
     13  C         25.3460  -21.3490  -11.1230 C.2     1  UNL1        0.0270
     14  C         26.1930  -21.1730  -12.2210 C.2     1  UNL1        0.0330
     15  C         26.1080  -22.1130  -13.2230 C.ar    1  UNL1        0.0630
     16  N         26.8130  -22.2010  -14.4180 N.ar    1  UNL1       -0.3070
     17  C         25.2300  -23.1960  -13.1620 C.ar    1  UNL1        0.0640
     18  C         26.3830  -23.3430  -15.1120 C.ar    1  UNL1        0.3250
     19  H         27.5260  -21.5780  -14.7570 H       1  UNL1        0.1700
     20  O         26.7860  -23.7290  -16.1930 O.2     1  UNL1       -0.2470
     21  N         25.3980  -23.9480  -14.3180 N.ar    1  UNL1       -0.3060
     22  H         24.9190  -24.7960  -14.5730 H       1  UNL1        0.1700
     23  C         24.3860  -23.4000  -12.0980 C.2     1  UNL1        0.0560
     24  C         19.5360  -23.0090   -8.9270 C.2     1  UNL1        0.2580
     25  N         18.8760  -22.2780   -7.9580 N.am    1  UNL1       -0.3230
     26  H         18.7880  -21.2820   -8.1190 H       1  UNL1        0.1690
     27  O         19.9270  -24.1690   -8.8490 O.2     1  UNL1       -0.2670
     28  C         18.4280  -22.7340   -6.7010 C.2     1  UNL1        0.0350
     29  C         17.8090  -23.9670   -6.4950 C.2     1  UNL1        0.0290
     30  C         17.3900  -24.3430   -5.2160 C.2     1  UNL1        0.0030
     31  C         17.5810  -23.4860   -4.1330 C.2     1  UNL1        0.0070
     32  C         18.1820  -22.2390   -4.3200 C.2     1  UNL1       -0.0600
     33  C         18.4240  -21.3280   -3.1540 C.3     1  UNL1        0.0480
     34  C         18.6120  -21.8770   -5.6050 C.2     1  UNL1        0.0360
@<TRIPOS>BOND
     1    20    18    2
     2    18    16   ar
     3    18    21   ar
     4    19    16    1
     5    22    21    1
     6    16    15   ar
     7    21    17   ar
     8    15    17   ar
     9    15    14    1
    10    17    23    1
    11     4     5    2
    12     4     3    1
    13    14    13    2
    14    23    12    2
    15     5     6    1
    16     3     2    2
    17    13    12    1
    18    12     9    1
    19     6     7    1
    20     6     1    2
    21     2     1    1
    22     7     8    1
    23     7     9    1
    24     1    24    1
    25     9    10    2
    26     9    11    2
    27    24    27    2
    28    24    25   am
    29    26    25    1
    30    25    28    1
    31    28    29    2
    32    28    34    1
    33    29    30    1
    34    34    32    2
    35    30    31    2
    36    32    31    1
    37    32    33    1
