@<TRIPOS>MOLECULE
62333_out_ligand_01.pdbqt
 25 27 0 0 0
SMALL
GASTEIGER

@<TRIPOS>ATOM
      1  C         16.6420  -23.3430   -6.3790 C.2     1  UNL1       -0.0430
      2  C         16.9280  -23.8870   -5.1160 C.2     1  UNL1        0.0080
      3  C         16.1430  -23.5690   -4.0060 C.2     1  UNL1        0.0020
      4  C         15.0510  -22.7110   -4.1470 C.2     1  UNL1        0.0220
      5  C         14.7430  -22.1730   -5.4000 C.2     1  UNL1        0.0450
      6  C         13.6190  -21.2960   -5.5480 C.1     1  UNL1        0.0990
      7  N         12.7110  -20.5840   -5.6740 N.1     1  UNL1       -0.1910
      8  C         15.5320  -22.4940   -6.5120 C.2     1  UNL1        0.0310
      9  C         17.4730  -23.7140   -7.5920 C.3     1  UNL1        0.1340
     10  N         17.8530  -22.5250   -8.3680 N.pl3   1  UNL1       -0.2740
     11  C         19.2410  -22.5340   -8.6930 C.2     1  UNL1        0.0170
     12  C         20.2920  -22.4860   -7.7880 C.2     1  UNL1        0.0260
     13  C         19.4930  -22.5830  -10.0660 C.2     1  UNL1       -0.0340
     14  C         21.6030  -22.4960   -8.2750 C.2     1  UNL1        0.0260
     15  C         21.8400  -22.5670   -9.6590 C.2     1  UNL1        0.0740
     16  C         20.7820  -22.6070  -10.5730 C.2     1  UNL1        0.0330
     17  C         18.2050  -22.6800  -10.8040 C.3     1  UNL1        0.0600
     18  C         17.2190  -22.2490   -9.6960 C.3     1  UNL1        0.0640
     19  C         15.8310  -22.8340   -9.9120 C.3     1  UNL1        0.0270
     20  S         23.5050  -22.5520  -10.2560 S.O2    1  UNL1        0.2390
     21  O         23.5510  -23.1670  -11.5610 O.2     1  UNL1       -0.2060
     22  O         24.0990  -21.2640   -9.9840 O.2     1  UNL1       -0.2060
     23  N         24.2560  -23.6350   -9.2130 N.3     1  UNL1       -0.2250
     24  H         24.3990  -24.5260   -9.6880 H       1  UNL1        0.1360
     25  H         25.1140  -23.2220   -8.8470 H       1  UNL1        0.1360
@<TRIPOS>BOND
     1    21    20    2
     2    17    13    1
     3    17    18    1
     4    16    13    1
     5    16    15    2
     6    20    22    2
     7    20    15    1
     8    20    23    1
     9    13    11    2
    10    19    18    1
    11    18    10    1
    12    24    23    1
    13    15    14    1
    14    23    25    1
    15    11    10    1
    16    11    12    1
    17    10     9    1
    18    14    12    2
    19     9     1    1
    20     8     1    2
    21     8     5    1
    22     1     2    1
    23     7     6    3
    24     6     5    1
    25     5     4    2
    26     2     3    2
    27     4     3    1
