@<TRIPOS>MOLECULE
62336_out_ligand_01.pdbqt
 30 32 0 0 0
SMALL
GASTEIGER

@<TRIPOS>ATOM
      1  C         22.9230  -22.3360  -11.7240 C.2     1  UNL1       -0.0190
      2  C         22.2830  -21.6600  -12.7800 C.2     1  UNL1        0.0100
      3  C         20.9430  -21.2860  -12.6880 C.2     1  UNL1        0.0030
      4  C         20.2110  -21.5880  -11.5430 C.2     1  UNL1        0.0290
      5  C         20.8080  -22.2750  -10.4820 C.2     1  UNL1        0.0350
      6  C         22.1560  -22.6390  -10.5810 C.2     1  UNL1        0.0390
      7  N         20.0010  -22.5470   -9.3550 N.am    1  UNL1       -0.3230
      8  C         20.3550  -22.4300   -8.0230 C.2     1  UNL1        0.2560
      9  O         21.4640  -22.1570   -7.5790 O.2     1  UNL1       -0.2670
     10  H         19.0910  -22.9370   -9.5590 H       1  UNL1        0.1690
     11  C         19.2610  -22.7250   -7.0520 C.2     1  UNL1        0.0320
     12  C         18.5040  -23.9040   -7.1260 C.2     1  UNL1        0.0180
     13  C         17.4810  -24.1380   -6.2040 C.2     1  UNL1        0.0240
     14  C         17.2170  -23.1910   -5.2100 C.2     1  UNL1        0.0580
     15  C         17.9420  -21.9980   -5.1470 C.2     1  UNL1        0.0240
     16  C         18.9650  -21.7680   -6.0700 C.2     1  UNL1        0.0180
     17  S         15.8960  -23.4700   -4.0500 S.O2    1  UNL1        0.1710
     18  C         14.5620  -24.0260   -5.0770 C.3     1  UNL1        0.1670
     19  O         15.5270  -22.1830   -3.4920 O.2     1  UNL1       -0.2230
     20  O         16.2990  -24.5680   -3.1920 O.2     1  UNL1       -0.2230
     21  C         24.3900  -22.7390  -11.8450 C.3     1  UNL1        0.1390
     22  C         25.2280  -22.6930  -10.5630 C.3     1  UNL1        0.0540
     23  N         24.5000  -24.0590  -12.4420 N.am    1  UNL1       -0.3210
     24  C         25.2140  -24.0530  -13.6140 C.2     1  UNL1        0.3240
     25  H         24.0390  -24.8910  -12.1040 H       1  UNL1        0.1650
     26  O         25.4050  -25.0230  -14.3230 O.2     1  UNL1       -0.2470
     27  N         25.6350  -22.7910  -13.8580 N.am    1  UNL1       -0.2770
     28  C         25.1510  -21.9260  -12.9220 C.2     1  UNL1        0.2580
     29  H         26.1410  -22.5160  -14.6820 H       1  UNL1        0.1730
     30  O         25.3170  -20.7150  -12.9520 O.2     1  UNL1       -0.2700
@<TRIPOS>BOND
     1    29    27    1
     2    26    24    2
     3    27    24   am
     4    27    28   am
     5    24    23   am
     6    30    28    2
     7    28    21    1
     8     2     3    1
     9     2     1    2
    10     3     4    2
    11    23    25    1
    12    23    21    1
    13    21     1    1
    14    21    22    1
    15     1     6    1
    16     4     5    1
    17     6     5    2
    18     5     7    1
    19    10     7    1
    20     7     8   am
    21     8     9    2
    22     8    11    1
    23    12    11    2
    24    12    13    1
    25    11    16    1
    26    13    14    2
    27    16    15    2
    28    14    15    1
    29    14    17    1
    30    18    17    1
    31    17    19    2
    32    17    20    2
