@<TRIPOS>MOLECULE
62337_out_ligand_01.pdbqt
 32 36 0 0 0
SMALL
GASTEIGER

@<TRIPOS>ATOM
      1  C         18.2200  -23.6050   -8.4700 C.2     1  UNL1        0.0820
      2  C         17.9890  -22.6700   -9.4930 C.2     1  UNL1        0.0280
      3  C         19.0470  -22.2190  -10.2980 C.2     1  UNL1        0.0360
      4  C         20.3280  -22.7350  -10.0570 C.ar    1  UNL1        0.0950
      5  N         21.5300  -22.4840  -10.6620 N.ar    1  UNL1       -0.2060
      6  C         22.3830  -23.2520  -10.0130 C.ar    1  UNL1        0.2520
      7  O         21.8150  -24.0100   -9.0240 O.2     1  UNL1       -0.2760
      8  C         20.4980  -23.6700   -9.0510 C.ar    1  UNL1        0.1090
      9  C         19.4880  -24.1550   -8.2320 C.2     1  UNL1        0.0650
     10  S         16.8480  -24.1410   -7.4630 S.O2    1  UNL1        0.2630
     11  O         15.7680  -24.4970   -8.3590 O.2     1  UNL1       -0.2000
     12  O         17.3560  -25.0830   -6.4890 O.2     1  UNL1       -0.2000
     13  N         16.3680  -22.7230   -6.6770 N.pl3   1  UNL1       -0.2790
     14  H         16.1000  -22.0040   -7.3510 H       1  UNL1        0.1790
     15  C         17.1320  -22.2680   -5.5530 C.2     1  UNL1        0.0640
     16  C         18.2640  -21.4760   -5.7570 C.2     1  UNL1        0.0320
     17  C         18.9860  -20.9920   -4.6640 C.2     1  UNL1        0.0020
     18  C         18.5810  -21.2970   -3.3650 C.2     1  UNL1        0.0020
     19  C         17.4540  -22.0940   -3.1530 C.2     1  UNL1        0.0260
     20  C         16.7330  -22.5800   -4.2450 C.2     1  UNL1        0.0610
     21 CL         15.3430  -23.5610   -3.9480 Cl      1  UNL1       -0.0820
     22  N         23.6980  -23.3650  -10.2730 N.pl3   1  UNL1       -0.3200
     23  H         24.1660  -24.0850   -9.7390 H       1  UNL1        0.1690
     24  C         24.5160  -22.7350  -11.2300 C.2     1  UNL1        0.0350
     25  C         24.7070  -23.2070  -12.5440 C.2     1  UNL1        0.0300
     26  C         25.5090  -22.5230  -13.4660 C.2     1  UNL1        0.0100
     27  C         26.1090  -21.3420  -13.0730 C.2     1  UNL1       -0.0520
     28  C         25.9280  -20.8490  -11.7810 C.2     1  UNL1       -0.0500
     29  C         27.0250  -20.4600  -13.8590 C.3     1  UNL1        0.0390
     30  C         25.1440  -21.5290  -10.8610 C.2     1  UNL1        0.0370
     31  C         26.7040  -19.5860  -11.5790 C.3     1  UNL1        0.0390
     32  C         26.9770  -19.1680  -13.0320 C.3     1  UNL1        0.0090
@<TRIPOS>BOND
     1    29    27    1
     2    29    32    1
     3    26    27    2
     4    26    25    1
     5    27    28    1
     6    32    31    1
     7    25    24    2
     8    28    31    1
     9    28    30    2
    10    24    30    1
    11    24    22    1
    12     5     4   ar
    13     5     6   ar
    14     3     4    2
    15     3     2    1
    16    22     6    1
    17    22    23    1
    18     4     8   ar
    19     6     7   ar
    20     2     1    2
    21     8     7   ar
    22     8     9    2
    23     1     9    1
    24     1    10    1
    25    11    10    2
    26    10    13    1
    27    10    12    2
    28    14    13    1
    29    13    15    1
    30    16    15    2
    31    16    17    1
    32    15    20    1
    33    17    18    2
    34    20    21    1
    35    20    19    2
    36    18    19    1
