@<TRIPOS>MOLECULE
62346_out_ligand_01.pdbqt
 33 37 0 0 0
SMALL
GASTEIGER

@<TRIPOS>ATOM
      1  C         18.2130  -23.2420   -9.0630 C.2     1  UNL1        0.0770
      2  C         18.2780  -22.2550  -10.0610 C.2     1  UNL1        0.0280
      3  C         19.4940  -21.9330  -10.6710 C.2     1  UNL1        0.0410
      4  C         20.6010  -22.6420  -10.2190 C.ar    1  UNL1        0.1080
      5  O         21.8930  -22.5110  -10.6290 O.2     1  UNL1       -0.2760
      6  C         22.5870  -23.4170   -9.8690 C.ar    1  UNL1        0.2520
      7  N         21.8350  -24.1020   -9.0290 N.ar    1  UNL1       -0.2060
      8  C         20.5710  -23.6190   -9.2400 C.ar    1  UNL1        0.0960
      9  C         19.3520  -23.9500   -8.6400 C.2     1  UNL1        0.0590
     10  S         16.6590  -23.5960   -8.2750 S.O2    1  UNL1        0.2460
     11  O         16.9240  -24.6420   -7.3110 O.2     1  UNL1       -0.2060
     12  O         15.6530  -23.7550   -9.3020 O.2     1  UNL1       -0.2060
     13  N         16.3650  -22.1840   -7.3990 N.pl3   1  UNL1       -0.1790
     14  H         16.5440  -21.3670   -7.9910 H       1  UNL1        0.1460
     15  C         16.9260  -22.0700   -6.0880 C.2     1  UNL1        0.0560
     16  C         18.2440  -21.6490   -5.9040 C.2     1  UNL1        0.0270
     17  C         18.7580  -21.5300   -4.6130 C.2     1  UNL1        0.0020
     18  C         17.9600  -21.8400   -3.5140 C.2     1  UNL1        0.0030
     19  C         16.6410  -22.2720   -3.6950 C.2     1  UNL1        0.0380
     20  C         16.1120  -22.3830   -4.9830 C.2     1  UNL1        0.0900
     21  O         14.8370  -22.7980   -5.2850 O.2     1  UNL1       -0.3540
     22  C         14.4890  -24.1230   -4.8990 C.3     1  UNL1        0.2100
     23  N         23.9070  -23.4390  -10.1140 N.pl3   1  UNL1       -0.3200
     24  H         24.4250  -24.1750   -9.6560 H       1  UNL1        0.1690
     25  C         24.6540  -22.6780  -11.0320 C.2     1  UNL1        0.0350
     26  C         24.8410  -23.2030  -12.3330 C.2     1  UNL1        0.0300
     27  C         25.5810  -22.5260  -13.3090 C.2     1  UNL1        0.0100
     28  C         26.1340  -21.3040  -12.9780 C.2     1  UNL1       -0.0520
     29  C         25.9730  -20.7740  -11.6970 C.2     1  UNL1       -0.0500
     30  C         26.9830  -20.4110  -13.8240 C.3     1  UNL1        0.0390
     31  C         25.2530  -21.4510  -10.7200 C.2     1  UNL1        0.0370
     32  C         26.7010  -19.4730  -11.5650 C.3     1  UNL1        0.0390
     33  C         26.9040  -19.0950  -13.0390 C.3     1  UNL1        0.0090
@<TRIPOS>BOND
     1    30    33    1
     2    30    28    1
     3    27    28    2
     4    27    26    1
     5    33    32    1
     6    28    29    1
     7    26    25    2
     8    29    32    1
     9    29    31    2
    10    25    31    1
    11    25    23    1
    12     3     4    2
    13     3     2    1
    14     5     4   ar
    15     5     6   ar
    16     4     8   ar
    17    23     6    1
    18    23    24    1
    19     2     1    2
    20     6     7   ar
    21    12    10    2
    22     8     7   ar
    23     8     9    2
    24     1     9    1
    25     1    10    1
    26    10    13    1
    27    10    11    2
    28    14    13    1
    29    13    15    1
    30    15    16    2
    31    15    20    1
    32    16    17    1
    33    21    20    1
    34    21    22    1
    35    20    19    2
    36    17    18    2
    37    19    18    1
