@<TRIPOS>MOLECULE
62345_out_ligand_01.pdbqt
 32 35 0 0 0
SMALL
GASTEIGER

@<TRIPOS>ATOM
      1  C         17.4130  -22.5680   -5.5940 C.2     1  UNL1        0.0540
      2  C         17.2980  -23.0670   -4.2880 C.2     1  UNL1        0.0190
      3  C         16.0500  -23.4560   -3.7980 C.2     1  UNL1        0.0010
      4  C         14.9190  -23.3550   -4.6070 C.2     1  UNL1        0.0020
      5  C         15.0280  -22.8710   -5.9110 C.2     1  UNL1        0.0250
      6  C         16.2730  -22.4890   -6.4150 C.2     1  UNL1        0.0380
      7  N         16.3370  -21.9200   -7.7310 N.pl3   1  UNL1       -0.1800
      8  H         15.5720  -21.2560   -7.9280 H       1  UNL1        0.1460
      9  S         16.4190  -23.0270   -9.0170 S.O2    1  UNL1        0.2460
     10  O         17.0490  -24.2470   -8.5590 O.2     1  UNL1       -0.2060
     11  O         15.1240  -23.0370   -9.6600 O.2     1  UNL1       -0.2060
     12  C         17.5320  -22.2060  -10.1370 C.2     1  UNL1        0.0770
     13  C         17.1300  -21.0070  -10.7710 C.2     1  UNL1        0.0270
     14  C         17.9970  -20.3490  -11.6490 C.2     1  UNL1        0.0340
     15  C         19.2310  -20.9260  -11.8440 C.ar    1  UNL1        0.0710
     16  N         20.2800  -20.5350  -12.6240 N.ar    1  UNL1       -0.3000
     17  C         19.6290  -22.0930  -11.2220 C.ar    1  UNL1        0.1090
     18  C         21.2890  -21.4570  -12.4660 C.ar    1  UNL1        0.3700
     19  H         20.3520  -19.7240  -13.2160 H       1  UNL1        0.1710
     20  O         22.3730  -21.4050  -13.0270 O.2     1  UNL1       -0.2380
     21  O         20.9130  -22.4720  -11.5780 O.2     1  UNL1       -0.2590
     22  C         18.8000  -22.7640  -10.3510 C.2     1  UNL1        0.0640
     23  C         18.7410  -22.1730   -6.1330 C.2     1  UNL1        0.2580
     24  O         19.1920  -21.0860   -5.7880 O.2     1  UNL1       -0.2670
     25  N         19.3440  -23.1150   -6.9430 N.am    1  UNL1       -0.3230
     26  H         18.9120  -24.0300   -6.9790 H       1  UNL1        0.1690
     27  C         20.5730  -22.9950   -7.6250 C.2     1  UNL1        0.0350
     28  C         20.9830  -24.0850   -8.4020 C.2     1  UNL1        0.0290
     29  C         22.1840  -24.0420   -9.1160 C.2     1  UNL1        0.0020
     30  C         22.9850  -22.9050   -9.0590 C.2     1  UNL1        0.0000
     31  C         22.5850  -21.8160   -8.2910 C.2     1  UNL1        0.0020
     32  C         21.3820  -21.8590   -7.5770 C.2     1  UNL1        0.0290
@<TRIPOS>BOND
     1    19    16    1
     2    20    18    2
     3    16    18   ar
     4    16    15   ar
     5    18    21   ar
     6    15    14    2
     7    15    17   ar
     8    14    13    1
     9    21    17   ar
    10    17    22    2
    11    13    12    2
    12    22    12    1
    13    12     9    1
    14    11     9    2
    15    29    30    2
    16    29    28    1
    17    30    31    1
    18     9    10    2
    19     9     7    1
    20    28    27    2
    21    31    32    2
    22     8     7    1
    23     7     6    1
    24    27    32    1
    25    27    25    1
    26    26    25    1
    27    25    23   am
    28     6     5    1
    29     6     1    2
    30    23    24    2
    31    23     1    1
    32     5     4    2
    33     1     2    1
    34     4     3    1
    35     2     3    2
