@<TRIPOS>MOLECULE
62367_out_ligand_01.pdbqt
 39 42 0 0 0
SMALL
GASTEIGER

@<TRIPOS>ATOM
      1  N         21.5280  -23.7920   -8.7790 N.am    1  UNL1       -0.2590
      2  C         20.6180  -24.7940   -8.6840 C.2     1  UNL1        0.3270
      3  O         20.8070  -25.9830   -8.8700 O.2     1  UNL1       -0.2470
      4  N         19.4030  -24.2560   -8.3540 N.am    1  UNL1       -0.3160
      5  C         19.4180  -22.8040   -8.2570 C.3     1  UNL1        0.1710
      6  C         20.9520  -22.5900   -8.4660 C.2     1  UNL1        0.2660
      7  O         21.5510  -21.5180   -8.4200 O.2     1  UNL1       -0.2690
      8  H         18.5940  -24.8400   -8.1880 H       1  UNL1        0.1660
      9  C         22.9210  -23.9690   -9.1300 C.3     1  UNL1        0.2390
     10  C         23.4050  -22.9770  -10.1980 C.2     1  UNL1        0.2360
     11  N         24.4350  -22.1320   -9.8240 N.am    1  UNL1       -0.3590
     12  H         24.8800  -22.2700   -8.9310 H       1  UNL1        0.1620
     13  O         22.8540  -22.9190  -11.2980 O.2     1  UNL1       -0.2720
     14  C         25.0760  -21.2240  -10.7590 C.3     1  UNL1        0.1270
     15  C         26.1250  -21.9260  -11.6370 C.3     1  UNL1        0.0580
     16  C         25.6560  -22.1560  -13.0550 C.2     1  UNL1       -0.0570
     17  C         25.1650  -21.0910  -13.8260 C.2     1  UNL1        0.0090
     18  C         24.8100  -21.2870  -15.1630 C.2     1  UNL1        0.0250
     19  C         24.9450  -22.5570  -15.7280 C.2     1  UNL1        0.0740
     20  C         25.3980  -23.6360  -14.9660 C.2     1  UNL1        0.0250
     21  C         25.7570  -23.4310  -13.6320 C.2     1  UNL1        0.0090
     22  S         24.5640  -22.8060  -17.4430 S.O2    1  UNL1        0.2390
     23  O         25.7640  -23.2250  -18.1230 O.2     1  UNL1       -0.2060
     24  O         23.3220  -23.5360  -17.5480 O.2     1  UNL1       -0.2060
     25  N         24.2690  -21.2200  -17.9470 N.3     1  UNL1       -0.2250
     26  H         24.2830  -21.1890  -18.9680 H       1  UNL1        0.1360
     27  H         24.9300  -20.5500  -17.5400 H       1  UNL1        0.1360
     28  C         18.8750  -22.4040   -6.8840 C.2     1  UNL1       -0.0160
     29  C         17.7890  -23.1190   -6.3310 C.2     1  UNL1        0.0100
     30  C         17.2770  -22.7990   -5.0730 C.2     1  UNL1        0.0010
     31  C         17.8360  -21.7560   -4.3380 C.2     1  UNL1        0.0000
     32  C         18.9060  -21.0350   -4.8630 C.2     1  UNL1        0.0010
     33  C         19.4220  -21.3540   -6.1220 C.2     1  UNL1        0.0100
     34  C         18.6850  -22.1310   -9.4360 C.2     1  UNL1       -0.0160
     35  C         19.4240  -21.7050  -10.5600 C.2     1  UNL1        0.0100
     36  C         18.7910  -21.1290  -11.6660 C.2     1  UNL1        0.0010
     37  C         17.4050  -20.9690  -11.6720 C.2     1  UNL1        0.0000
     38  C         16.6540  -21.3830  -10.5730 C.2     1  UNL1        0.0010
     39  C         17.2850  -21.9600   -9.4640 C.2     1  UNL1        0.0100
@<TRIPOS>BOND
     1    26    25    1
     2    23    22    2
     3    25    27    1
     4    25    22    1
     5    24    22    2
     6    22    19    1
     7    19    18    2
     8    19    20    1
     9    18    17    1
    10    20    21    2
    11    17    16    2
    12    21    16    1
    13    16    15    1
    14    37    36    2
    15    37    38    1
    16    36    35    1
    17    15    14    1
    18    13    10    2
    19    14    11    1
    20    38    39    2
    21    35    34    2
    22    10    11   am
    23    10     9    1
    24    11    12    1
    25    39    34    1
    26    34     5    1
    27     9     1    1
    28     3     2    2
    29     1     2   am
    30     1     6   am
    31     2     4   am
    32     6     7    2
    33     6     5    1
    34     4     5    1
    35     4     8    1
    36     5    28    1
    37    28    29    2
    38    28    33    1
    39    29    30    1
    40    33    32    2
    41    30    31    2
    42    32    31    1
