@<TRIPOS>MOLECULE
6236_out_ligand_01.pdbqt
 36 39 0 0 0
SMALL
GASTEIGER

@<TRIPOS>ATOM
      1  C         24.0870  -22.8140  -12.6530 C.2     1  UNL1        0.0340
      2  C         23.5060  -21.7680  -13.3710 C.2     1  UNL1        0.0310
      3  C         23.8530  -21.5240  -14.7030 C.2     1  UNL1        0.0270
      4  C         24.7910  -22.3440  -15.3230 C.2     1  UNL1        0.0750
      5  C         25.4030  -23.3710  -14.6140 C.2     1  UNL1        0.0270
      6  C         25.0590  -23.5940  -13.2800 C.2     1  UNL1        0.0310
      7  N         23.7710  -23.1410  -11.3150 N.am    1  UNL1       -0.3270
      8  C         22.5470  -23.0080  -10.7010 C.2     1  UNL1        0.2260
      9  O         21.5080  -22.6260  -11.2500 O.2     1  UNL1       -0.2730
     10  H         24.5030  -23.6020  -10.7790 H       1  UNL1        0.1690
     11  C         22.5180  -23.4260   -9.2260 C.3     1  UNL1        0.0810
     12  C         21.4310  -24.4720   -8.9390 C.3     1  UNL1        0.0440
     13  C         20.0130  -23.8940   -8.6990 C.3     1  UNL1        0.2730
     14  N         20.0040  -22.4720   -8.3130 N.3     1  UNL1        0.0920
     15  C         21.1580  -22.1470   -7.4770 C.3     1  UNL1        0.2730
     16  C         22.4370  -22.2040   -8.3130 C.3     1  UNL1        0.0440
     17  C         18.7920  -22.1250   -7.5700 C.3     1  UNL1        0.3120
     18  C         17.5390  -22.7200   -8.1380 C.2     1  UNL1       -0.0080
     19  C         16.9750  -22.1770   -9.3030 C.2     1  UNL1        0.0110
     20  C         15.8400  -22.7460   -9.8950 C.2     1  UNL1        0.0010
     21  C         15.2830  -23.8900   -9.3530 C.2     1  UNL1        0.0020
     22  C         15.8250  -24.4350   -8.1910 C.2     1  UNL1        0.0240
     23  C         16.9320  -23.8490   -7.5760 C.2     1  UNL1        0.0420
     24 CL         17.5390  -24.6070   -6.1450 Cl      1  UNL1       -0.0840
     25  S         25.2300  -22.0790  -17.0130 S.O2    1  UNL1        0.2450
     26  O         24.3010  -21.1190  -17.5520 O.2     1  UNL1       -0.2060
     27  O         25.4330  -23.3540  -17.6520 O.2     1  UNL1       -0.2060
     28  N         26.7180  -21.2780  -16.9060 N.pl3   1  UNL1       -0.1810
     29  H         27.4020  -21.9060  -16.4740 H       1  UNL1        0.1460
     30  C         26.7010  -19.9470  -16.4470 C.2     1  UNL1        0.0230
     31  C         26.9120  -19.6850  -15.0910 C.2     1  UNL1        0.0270
     32  C         26.9340  -18.3680  -14.6350 C.2     1  UNL1        0.0440
     33  C         26.7480  -17.3300  -15.5350 C.2     1  UNL1        0.1160
     34  F         26.8110  -16.0660  -15.1060 F       1  UNL1       -0.2060
     35  C         26.5560  -17.5830  -16.8920 C.2     1  UNL1        0.0440
     36  C         26.5470  -18.9010  -17.3550 C.2     1  UNL1        0.0270
@<TRIPOS>BOND
     1    27    25    2
     2    26    25    2
     3    36    35    1
     4    36    30    2
     5    25    28    1
     6    25     4    1
     7    28    29    1
     8    28    30    1
     9    35    33    2
    10    30    31    1
    11    33    34    1
    12    33    32    1
    13     4     3    2
    14     4     5    1
    15    31    32    2
    16     3     2    1
    17     5     6    2
    18     2     1    2
    19     6     1    1
    20     1     7    1
    21     7    10    1
    22     7     8   am
    23     9     8    2
    24     8    11    1
    25    20    21    2
    26    20    19    1
    27    21    22    1
    28    19    18    2
    29    11    12    1
    30    11    16    1
    31    12    13    1
    32    13    14    1
    33    16    15    1
    34    14    17    1
    35    14    15    1
    36    22    23    2
    37    18    23    1
    38    18    17    1
    39    23    24    1
