@<TRIPOS>MOLECULE
62370_out_ligand_01.pdbqt
 36 38 0 0 0
SMALL
GASTEIGER

@<TRIPOS>ATOM
      1  C         20.3930  -22.7630  -11.0160 C.2     1  UNL1        0.0380
      2  C         21.7390  -22.8010  -11.3880 C.2     1  UNL1        0.0250
      3  C         22.2840  -21.7630  -12.1460 C.2     1  UNL1        0.0020
      4  C         21.4910  -20.6810  -12.5300 C.2     1  UNL1        0.0010
      5  C         20.1480  -20.6290  -12.1540 C.2     1  UNL1        0.0190
      6  C         19.5970  -21.6640  -11.3870 C.2     1  UNL1        0.0540
      7  C         18.1680  -21.6290  -10.9870 C.2     1  UNL1        0.2530
      8  O         17.4620  -20.6950  -11.3580 O.2     1  UNL1       -0.2680
      9  N         17.7130  -22.7020  -10.2540 N.am    1  UNL1       -0.3530
     10  H         18.2870  -23.5350  -10.2340 H       1  UNL1        0.1630
     11  C         16.2960  -22.9000  -10.0300 C.3     1  UNL1        0.1610
     12  C         16.0100  -23.1000   -8.5620 C.2     1  UNL1       -0.0400
     13  C         15.6260  -22.0190   -7.7530 C.2     1  UNL1        0.0100
     14  C         15.4110  -22.2000   -6.3850 C.2     1  UNL1        0.0250
     15  C         15.5840  -23.4670   -5.8220 C.2     1  UNL1        0.0740
     16  C         15.9760  -24.5500   -6.6100 C.2     1  UNL1        0.0250
     17  C         16.1790  -24.3640   -7.9770 C.2     1  UNL1        0.0100
     18  S         15.3520  -23.7040   -4.0860 S.O2    1  UNL1        0.2390
     19  O         15.0620  -22.4330   -3.4660 O.2     1  UNL1       -0.2060
     20  O         14.5370  -24.8770   -3.8660 O.2     1  UNL1       -0.2060
     21  N         16.8930  -24.1350   -3.5780 N.3     1  UNL1       -0.2250
     22  H         17.2270  -23.4660   -2.8840 H       1  UNL1        0.1360
     23  H         17.5070  -24.2360   -4.3870 H       1  UNL1        0.1360
     24  N         19.8850  -23.7980  -10.1610 N.pl3   1  UNL1       -0.1800
     25  H         18.9400  -23.5990   -9.7990 H       1  UNL1        0.1460
     26  S         20.8720  -24.2120   -8.8360 S.O2    1  UNL1        0.2460
     27  O         22.2420  -24.0280   -9.2680 O.2     1  UNL1       -0.2060
     28  O         20.4240  -25.4800   -8.3020 O.2     1  UNL1       -0.2060
     29  C         20.5140  -22.8800   -7.6940 C.2     1  UNL1        0.0810
     30  C         19.2740  -22.9620   -7.0290 C.2     1  UNL1        0.0280
     31  C         18.8990  -21.9800   -6.1140 C.2     1  UNL1        0.0440
     32  C         19.7570  -20.9190   -5.8690 C.2     1  UNL1        0.1170
     33  C         20.9810  -20.8200   -6.5260 C.2     1  UNL1        0.0500
     34  F         19.4040  -19.9740   -4.9890 F       1  UNL1       -0.2060
     35  C         21.3830  -21.7970   -7.4560 C.2     1  UNL1       -0.0360
     36  C         22.7110  -21.6190   -8.1340 C.3     1  UNL1        0.0500
@<TRIPOS>BOND
     1     4     5    1
     2     4     3    2
     3     5     6    2
     4     3     2    1
     5     2     1    2
     6     6     1    1
     7     6     7    1
     8     8     7    2
     9     1    24    1
    10     7     9   am
    11     9    10    1
    12     9    11    1
    13    24    25    1
    14    24    26    1
    15    11    12    1
    16    27    26    2
    17    26    28    2
    18    26    29    1
    19    12    17    2
    20    12    13    1
    21    36    35    1
    22    17    16    1
    23    13    14    2
    24    29    35    2
    25    29    30    1
    26    35    33    1
    27    30    31    2
    28    16    15    2
    29    33    32    2
    30    14    15    1
    31    31    32    1
    32    32    34    1
    33    15    18    1
    34    23    21    1
    35    18    20    2
    36    18    21    1
    37    18    19    2
    38    21    22    1
