@<TRIPOS>MOLECULE
62373_out_ligand_01.pdbqt
 31 33 0 0 0
SMALL
GASTEIGER

@<TRIPOS>ATOM
      1  C         20.9960  -22.3830  -10.3350 C.2     1  UNL1        0.0350
      2  C         21.4580  -22.4050   -9.0220 C.2     1  UNL1        0.0290
      3  C         22.8280  -22.4320   -8.7600 C.2     1  UNL1        0.0030
      4  C         23.7500  -22.4310   -9.8070 C.2     1  UNL1        0.0100
      5  C         23.3220  -22.3980  -11.1440 C.2     1  UNL1       -0.0190
      6  C         21.9320  -22.3890  -11.3840 C.2     1  UNL1        0.0390
      7  N         19.6320  -22.3460  -10.6920 N.am    1  UNL1       -0.3270
      8  C         18.9590  -21.3280  -11.3510 C.2     1  UNL1        0.2220
      9  O         19.4410  -20.2760  -11.7610 O.2     1  UNL1       -0.2730
     10  H         19.0880  -23.1610  -10.4250 H       1  UNL1        0.1690
     11  C         17.4960  -21.6580  -11.5860 C.3     1  UNL1        0.1130
     12  C         16.6540  -21.4630  -10.3280 C.3     1  UNL1        0.0880
     13  S         16.1660  -23.0370   -9.5150 S.3     1  UNL1       -0.1300
     14  C         16.7070  -22.7360   -7.8440 C.2     1  UNL1        0.0010
     15  C         18.0520  -22.5410   -7.5380 C.2     1  UNL1        0.0190
     16  C         18.4440  -22.2870   -6.2220 C.2     1  UNL1        0.0080
     17  C         17.4970  -22.2260   -5.1880 C.2     1  UNL1       -0.0560
     18  C         17.9590  -21.9520   -3.7830 C.3     1  UNL1        0.0490
     19  C         16.1380  -22.4610   -5.4840 C.2     1  UNL1       -0.0550
     20  C         15.7590  -22.7040   -6.8150 C.2     1  UNL1        0.0250
     21  C         15.0830  -22.4490   -4.4070 C.3     1  UNL1        0.0490
     22  C         24.3060  -22.4040  -12.3120 C.3     1  UNL1        0.1390
     23  C         23.7010  -21.7750  -13.5680 C.3     1  UNL1        0.0540
     24  N         24.8260  -23.7270  -12.6080 N.am    1  UNL1       -0.3210
     25  C         26.1710  -23.8390  -12.3780 C.2     1  UNL1        0.3240
     26  H         24.2960  -24.5000  -12.9870 H       1  UNL1        0.1650
     27  O         26.8380  -24.8340  -12.5980 O.2     1  UNL1       -0.2470
     28  N         26.6330  -22.6580  -11.9150 N.am    1  UNL1       -0.2770
     29  C         25.6500  -21.7150  -11.9610 C.2     1  UNL1        0.2580
     30  H         27.6080  -22.4590  -11.7720 H       1  UNL1        0.1730
     31  O         25.8300  -20.5220  -11.7620 O.2     1  UNL1       -0.2700
@<TRIPOS>BOND
     1    23    22    1
     2    26    24    1
     3    24    25   am
     4    24    22    1
     5    27    25    2
     6    25    28   am
     7    22    29    1
     8    22     5    1
     9    29    28   am
    10    29    31    2
    11    28    30    1
    12     9     8    2
    13    11     8    1
    14    11    12    1
    15     6     5    1
    16     6     1    2
    17     8     7   am
    18     5     4    2
    19     7    10    1
    20     7     1    1
    21     1     2    1
    22    12    13    1
    23     4     3    1
    24    13    14    1
    25     2     3    2
    26    14    15    2
    27    14    20    1
    28    15    16    1
    29    20    19    2
    30    16    17    2
    31    19    17    1
    32    19    21    1
    33    17    18    1
