@<TRIPOS>MOLECULE
62387_out_ligand_01.pdbqt
 35 39 0 0 0
SMALL
GASTEIGER

@<TRIPOS>ATOM
      1  C         19.9180  -22.6270  -10.2250 C.2     1  UNL1        0.0320
      2  C         20.3030  -23.5160   -9.2100 C.2     1  UNL1        0.0180
      3  C         19.3460  -24.0280   -8.3320 C.2     1  UNL1        0.0260
      4  C         18.0070  -23.6410   -8.4660 C.2     1  UNL1        0.0800
      5  C         17.6140  -22.7530   -9.4710 C.2     1  UNL1        0.0260
      6  C         18.5750  -22.2390  -10.3430 C.2     1  UNL1        0.0180
      7  C         20.9090  -22.0460  -11.1770 C.2     1  UNL1        0.2570
      8  N         22.1840  -22.5400  -11.0460 N.am    1  UNL1       -0.3010
      9  H         22.3750  -23.3080  -10.4170 H       1  UNL1        0.1710
     10  O         20.5050  -21.2220  -11.9880 O.2     1  UNL1       -0.2670
     11  C         23.2930  -22.1740  -11.7650 C.ar    1  UNL1        0.1740
     12  S         24.6900  -21.5200  -11.0590 S.2     1  UNL1       -0.0500
     13  C         25.4300  -21.4140  -12.6110 C.ar    1  UNL1        0.0400
     14  C         26.7040  -20.9310  -12.9430 C.2     1  UNL1        0.0210
     15  C         24.5430  -21.9040  -13.5730 C.ar    1  UNL1        0.1100
     16  C         27.0800  -20.9440  -14.2860 C.2     1  UNL1        0.0040
     17  C         26.2160  -21.4280  -15.2680 C.2     1  UNL1        0.0390
     18  C         24.9430  -21.9220  -14.9360 C.2     1  UNL1        0.0990
     19  N         23.3220  -22.3410  -13.0630 N.ar    1  UNL1       -0.2200
     20  O         24.0390  -22.4060  -15.8470 O.2     1  UNL1       -0.3490
     21  C         24.4610  -23.4830  -16.6790 C.3     1  UNL1        0.1710
     22  C         23.9120  -23.2390  -18.0740 C.3     1  UNL1        0.0340
     23  S         16.8020  -24.3100   -7.3310 S.O2    1  UNL1        0.2650
     24  O         15.7380  -24.8950   -8.1210 O.2     1  UNL1       -0.2000
     25  O         17.5640  -25.1090   -6.3950 O.2     1  UNL1       -0.2000
     26  N         16.2000  -22.8790   -6.5710 N.pl3   1  UNL1       -0.2710
     27  C         14.8060  -22.9730   -6.0510 C.3     1  UNL1        0.1420
     28  C         14.7880  -23.4740   -4.6160 C.3     1  UNL1        0.0260
     29  C         15.5540  -22.5200   -3.7160 C.3     1  UNL1        0.0420
     30  C         16.8610  -22.0730   -4.3140 C.2     1  UNL1       -0.0310
     31  C         17.7920  -21.4280   -3.4830 C.2     1  UNL1        0.0090
     32  C         17.1370  -22.2120   -5.6860 C.2     1  UNL1        0.0510
     33  C         18.9830  -20.9260   -4.0060 C.2     1  UNL1        0.0010
     34  C         19.2460  -21.0470   -5.3660 C.2     1  UNL1        0.0020
     35  C         18.3240  -21.6790   -6.2020 C.2     1  UNL1        0.0310
@<TRIPOS>BOND
     1    22    21    1
     2    21    20    1
     3    20    18    1
     4    17    18    2
     5    17    16    1
     6    18    15    1
     7    16    14    2
     8    15    19   ar
     9    15    13   ar
    10    19    11   ar
    11    14    13    1
    12    13    12   ar
    13    10     7    2
    14    11    12   ar
    15    11     8    1
    16     7     8   am
    17     7     1    1
    18     8     9    1
    19     6     1    2
    20     6     5    1
    21     1     2    1
    22     5     4    2
    23     2     3    2
    24     4     3    1
    25     4    23    1
    26    24    23    2
    27    23    26    1
    28    23    25    2
    29    26    27    1
    30    26    32    1
    31    35    32    1
    32    35    34    2
    33    27    28    1
    34    32    30    2
    35    34    33    1
    36    28    29    1
    37    30    29    1
    38    30    31    1
    39    33    31    2
