@<TRIPOS>MOLECULE
62399_out_ligand_01.pdbqt
 36 41 0 0 0
SMALL
GASTEIGER

@<TRIPOS>ATOM
      1  C         21.9290  -21.9090  -11.8460 C.2     1  UNL1        0.0320
      2  C         22.0370  -21.1650  -13.0300 C.2     1  UNL1        0.0180
      3  C         23.0360  -21.4720  -13.9580 C.2     1  UNL1        0.0260
      4  C         23.9140  -22.5320  -13.7020 C.2     1  UNL1        0.0800
      5  C         23.8120  -23.2820  -12.5280 C.2     1  UNL1        0.0260
      6  C         22.8110  -22.9740  -11.6050 C.2     1  UNL1        0.0180
      7  C         20.8730  -21.6230  -10.8330 C.2     1  UNL1        0.2570
      8  O         20.1370  -20.6650  -11.0320 O.2     1  UNL1       -0.2670
      9  N         20.8310  -22.5110   -9.7850 N.am    1  UNL1       -0.3010
     10  H         21.4130  -23.3370   -9.7940 H       1  UNL1        0.1710
     11  C         19.9870  -22.4780   -8.7040 C.ar    1  UNL1        0.1740
     12  N         20.2800  -21.7470   -7.6580 N.ar    1  UNL1       -0.2230
     13  C         19.2780  -21.8710   -6.7090 C.ar    1  UNL1        0.0770
     14  C         19.2650  -21.2300   -5.4550 C.2     1  UNL1        0.0340
     15  C         18.2100  -22.7040   -7.0580 C.ar    1  UNL1        0.0480
     16  C         18.1960  -21.4280   -4.5760 C.2     1  UNL1        0.0140
     17  C         17.1270  -22.2610   -4.9190 C.2     1  UNL1       -0.0250
     18  C         16.0520  -22.4630   -4.0380 C.2     1  UNL1        0.0120
     19  C         17.1130  -22.9190   -6.1730 C.2     1  UNL1       -0.0060
     20  C         14.9870  -23.2960   -4.3860 C.2     1  UNL1        0.0010
     21  C         14.9760  -23.9420   -5.6200 C.2     1  UNL1        0.0010
     22  C         16.0310  -23.7580   -6.5150 C.2     1  UNL1        0.0140
     23  S         18.5220  -23.3290   -8.6410 S.2     1  UNL1       -0.0490
     24  S         25.1820  -22.9040  -14.9030 S.O2    1  UNL1        0.2650
     25  O         24.9910  -24.2990  -15.2360 O.2     1  UNL1       -0.2000
     26  O         25.1280  -21.8770  -15.9240 O.2     1  UNL1       -0.2000
     27  N         26.6250  -22.6830  -13.9770 N.pl3   1  UNL1       -0.2710
     28  C         27.1210  -23.8980  -13.2710 C.3     1  UNL1        0.1420
     29  C         26.5100  -24.0160  -11.8840 C.3     1  UNL1        0.0260
     30  C         26.8810  -22.8080  -11.0400 C.3     1  UNL1        0.0420
     31  C         26.7470  -21.5080  -11.7890 C.2     1  UNL1       -0.0310
     32  C         26.7800  -20.3080  -11.0590 C.2     1  UNL1        0.0090
     33  C         26.6690  -21.4620  -13.1920 C.2     1  UNL1        0.0510
     34  C         26.7380  -19.0780  -11.7110 C.2     1  UNL1        0.0010
     35  C         26.6800  -19.0330  -13.1000 C.2     1  UNL1        0.0020
     36  C         26.6540  -20.2200  -13.8350 C.2     1  UNL1        0.0310
@<TRIPOS>BOND
     1    26    24    2
     2    25    24    2
     3    24    27    1
     4    24     4    1
     5    27    28    1
     6    27    33    1
     7     3     4    2
     8     3     2    1
     9    36    33    1
    10    36    35    2
    11     4     5    1
    12    28    29    1
    13    33    31    2
    14    35    34    1
    15     2     1    2
    16     5     6    2
    17    29    30    1
    18     1     6    1
    19     1     7    1
    20    31    32    1
    21    31    30    1
    22    34    32    2
    23     8     7    2
    24     7     9   am
    25    10     9    1
    26     9    11    1
    27    11    23   ar
    28    11    12   ar
    29    23    15   ar
    30    12    13   ar
    31    15    13   ar
    32    15    19    1
    33    13    14    1
    34    22    19    1
    35    22    21    2
    36    19    17    2
    37    21    20    1
    38    14    16    2
    39    17    16    1
    40    17    18    1
    41    20    18    2
