@<TRIPOS>MOLECULE
623_out_ligand_01.pdbqt
 36 39 0 0 0
SMALL
GASTEIGER

@<TRIPOS>ATOM
      1  C         19.3860  -22.4240   -9.8080 C.2     1  UNL1        0.0550
      2  C         18.6410  -23.2620   -8.9690 C.2     1  UNL1        0.0450
      3  C         17.2390  -23.2600   -9.0340 C.2     1  UNL1        0.1020
      4  C         16.5840  -22.4060   -9.9220 C.2     1  UNL1        0.0590
      5 CL         14.8670  -22.2680  -10.0420 Cl      1  UNL1       -0.0830
      6  C         17.3370  -21.5660  -10.7560 C.2     1  UNL1        0.0500
      7  C         18.7350  -21.5740  -10.7040 C.2     1  UNL1        0.0510
      8 CL         19.5860  -20.4950  -11.7490 Cl      1  UNL1       -0.0830
      9  S         16.3540  -24.3980   -8.0020 S.O2    1  UNL1        0.2640
     10  O         17.3130  -25.1070   -7.1830 O.2     1  UNL1       -0.2000
     11  O         15.4390  -25.1330   -8.8450 O.2     1  UNL1       -0.2000
     12  N         15.4260  -23.3910   -7.0090 N.pl3   1  UNL1       -0.2810
     13  H         14.4380  -23.6420   -7.0570 H       1  UNL1        0.1790
     14  C         15.9630  -23.0440   -5.7400 C.2     1  UNL1        0.0430
     15  C         15.3080  -23.4570   -4.5810 C.2     1  UNL1        0.0300
     16  C         15.7970  -23.0660   -3.3350 C.2     1  UNL1        0.0030
     17  C         16.9300  -22.2530   -3.2490 C.2     1  UNL1        0.0160
     18  C         17.5860  -21.8210   -4.4110 C.2     1  UNL1        0.0500
     19  C         17.0960  -22.2320   -5.6610 C.2     1  UNL1        0.0460
     20  C         18.8080  -20.9430   -4.3150 C.3     1  UNL1        0.4170
     21  F         18.5110  -19.6130   -4.3570 F       1  UNL1       -0.1660
     22  F         19.7090  -21.1570   -5.3160 F       1  UNL1       -0.1660
     23  F         19.4890  -21.1380   -3.1540 F       1  UNL1       -0.1660
     24  C         20.8550  -22.4580   -9.6630 C.2     1  UNL1        0.2570
     25  O         21.2960  -22.7490   -8.5610 O.2     1  UNL1       -0.2670
     26  N         21.5500  -22.2230  -10.8320 N.am    1  UNL1       -0.3230
     27  H         21.0060  -22.0570  -11.6700 H       1  UNL1        0.1690
     28  C         22.9500  -22.2440  -11.0120 C.2     1  UNL1        0.0350
     29  C         23.8400  -21.4420  -10.2800 C.2     1  UNL1        0.0300
     30  C         25.2220  -21.5120  -10.4980 C.2     1  UNL1        0.0100
     31  C         25.6990  -22.4020  -11.4410 C.2     1  UNL1       -0.0520
     32  C         24.8220  -23.2040  -12.1740 C.2     1  UNL1       -0.0500
     33  C         27.1160  -22.6380  -11.8600 C.3     1  UNL1        0.0390
     34  C         23.4520  -23.1260  -11.9810 C.2     1  UNL1        0.0370
     35  C         25.5710  -24.0590  -13.1490 C.3     1  UNL1        0.0390
     36  C         26.9920  -23.9940  -12.5700 C.3     1  UNL1        0.0090
@<TRIPOS>BOND
     1    35    36    1
     2    35    32    1
     3    36    33    1
     4    32    34    1
     5    32    31    2
     6    34    28    2
     7    33    31    1
     8     8     7    1
     9    27    26    1
    10    31    30    1
    11    28    26    1
    12    28    29    1
    13    26    24   am
    14     6     7    1
    15     6     4    2
    16     7     1    2
    17    30    29    2
    18     5     4    1
    19     4     3    1
    20     1    24    1
    21     1     2    1
    22    24    25    2
    23     3     2    2
    24     3     9    1
    25    11     9    2
    26     9    10    2
    27     9    12    1
    28    13    12    1
    29    12    14    1
    30    14    19    2
    31    14    15    1
    32    19    18    1
    33    22    20    1
    34    15    16    2
    35    18    20    1
    36    18    17    2
    37    21    20    1
    38    20    23    1
    39    16    17    1
