@<TRIPOS>MOLECULE
62405_out_ligand_01.pdbqt
 31 33 0 0 0
SMALL
GASTEIGER

@<TRIPOS>ATOM
      1  C         20.8430  -22.3980   -7.6480 C.2     1  UNL1        0.0340
      2  C         20.9510  -21.3580   -6.7120 C.2     1  UNL1        0.0170
      3  C         19.8450  -20.9920   -5.9400 C.2     1  UNL1        0.0030
      4  C         18.6350  -21.6700   -6.0850 C.2     1  UNL1        0.0250
      5  C         18.5390  -22.7260   -6.9960 C.2     1  UNL1        0.0800
      6  C         19.6330  -23.0850   -7.7910 C.2     1  UNL1        0.0420
      7  S         16.9950  -23.5920   -7.1820 S.O2    1  UNL1        0.2630
      8  O         15.9310  -22.6820   -6.8200 O.2     1  UNL1       -0.2000
      9  O         17.1400  -24.8760   -6.5290 O.2     1  UNL1       -0.2000
     10  N         16.9380  -23.9130   -8.8390 N.pl3   1  UNL1       -0.2810
     11  H         17.2140  -24.8680   -9.0580 H       1  UNL1        0.1790
     12  C         17.2770  -22.8840   -9.7590 C.2     1  UNL1        0.0430
     13  C         16.3520  -21.8990  -10.0980 C.2     1  UNL1        0.0300
     14  C         16.7200  -20.8620  -10.9540 C.2     1  UNL1        0.0030
     15  C         18.0160  -20.8070  -11.4690 C.2     1  UNL1        0.0160
     16  C         18.9570  -21.7900  -11.1320 C.2     1  UNL1        0.0500
     17  C         18.5720  -22.8360  -10.2760 C.2     1  UNL1        0.0460
     18  C         20.3620  -21.7470  -11.6760 C.3     1  UNL1        0.4170
     19  F         21.0890  -22.8670  -11.4120 F       1  UNL1       -0.1660
     20  F         21.0790  -20.7040  -11.1700 F       1  UNL1       -0.1660
     21  F         20.3900  -21.5920  -13.0300 F       1  UNL1       -0.1660
     22  C         21.9960  -22.8190   -8.4860 C.2     1  UNL1        0.2700
     23  O         22.1200  -24.0030   -8.7930 O.2     1  UNL1       -0.2670
     24  N         22.8460  -21.8110   -8.8800 N.am    1  UNL1       -0.1520
     25  H         22.6690  -20.8370   -8.6740 H       1  UNL1        0.1870
     26  C         23.9380  -22.0500   -9.6730 C.2     1  UNL1        0.7260
     27  N         24.5270  -21.1800  -10.4600 N.2     1  UNL1        0.0430
     28  N         25.5800  -21.8190  -11.0830 N.2     1  UNL1       -0.1290
     29  C         25.5990  -23.0610  -10.6560 C.2     1  UNL1        0.2490
     30  N         24.5890  -23.2490   -9.7660 N.pl3   1  UNL1       -0.1810
     31  H         24.3290  -24.0890   -9.2670 H       1  UNL1        0.1850
@<TRIPOS>BOND
     1    21    18    1
     2    18    19    1
     3    18    20    1
     4    18    16    1
     5    15    16    2
     6    15    14    1
     7    16    17    1
     8    28    29    2
     9    28    27    1
    10    14    13    2
    11    29    30    1
    12    27    26    2
    13    17    12    2
    14    13    12    1
    15    30    26    1
    16    30    31    1
    17    12    10    1
    18    26    24    1
    19    11    10    1
    20    24    25    1
    21    24    22   am
    22    10     7    1
    23    23    22    2
    24    22     1    1
    25     6     1    2
    26     6     5    1
    27     1     2    1
    28     7     5    1
    29     7     8    2
    30     7     9    2
    31     5     4    2
    32     2     3    2
    33     4     3    1
