@<TRIPOS>MOLECULE
62416_out_ligand_01.pdbqt
 30 33 0 0 0
SMALL
GASTEIGER

@<TRIPOS>ATOM
      1  C         20.6990  -22.1700   -7.4410 C.2     1  UNL1        0.2480
      2  O         21.6940  -21.4570   -7.2700 O.2     1  UNL1       -0.2710
      3  N         19.4750  -21.8690   -6.8330 N.am    1  UNL1       -0.3160
      4  C         19.5120  -20.9970   -5.6600 C.3     1  UNL1        0.1320
      5  C         18.7690  -21.6570   -4.5160 C.3     1  UNL1        0.0250
      6  C         17.3110  -21.8670   -4.8970 C.3     1  UNL1        0.0430
      7  C         17.1030  -22.2970   -6.3350 C.2     1  UNL1       -0.0150
      8  C         15.8120  -22.6580   -6.7890 C.2     1  UNL1        0.0400
      9  C         15.5940  -23.0090   -8.1280 C.2     1  UNL1        0.0180
     10  C         16.6440  -22.9650   -9.0350 C.2     1  UNL1        0.0030
     11  C         17.9160  -22.5870   -8.6060 C.2     1  UNL1        0.0300
     12  C         18.1740  -22.2820   -7.2610 C.2     1  UNL1        0.0440
     13  C         20.8090  -23.4860   -8.2350 C.3     1  UNL1        0.2790
     14  O         21.8710  -23.5130   -9.1790 O.2     1  UNL1       -0.3390
     15  C         21.7200  -22.8140  -10.3420 C.2     1  UNL1        0.1030
     16  C         20.5230  -22.3110  -10.8600 C.2     1  UNL1        0.0400
     17  C         20.5060  -21.6070  -12.0810 C.2     1  UNL1        0.0030
     18  C         21.6820  -21.3950  -12.8020 C.2     1  UNL1        0.0100
     19  C         22.8630  -21.8850  -12.2760 C.2     1  UNL1       -0.0190
     20  C         24.2270  -21.8430  -12.8500 C.3     1  UNL1        0.0790
     21  C         22.8770  -22.5760  -11.0740 C.2     1  UNL1        0.1090
     22  C         25.0420  -22.3580  -11.6430 C.3     1  UNL1        0.0650
     23  C         25.7480  -21.2120  -10.9070 C.3     1  UNL1        0.0460
     24  C         26.0680  -23.4070  -12.0760 C.3     1  UNL1        0.0460
     25  O         24.1330  -22.9940  -10.7030 O.2     1  UNL1       -0.3370
     26  C         14.6360  -22.6740   -5.8770 C.2     1  UNL1        0.2490
     27  N         14.3970  -23.8570   -5.2340 N.am    1  UNL1       -0.3660
     28  H         13.5440  -23.9150   -4.6900 H       1  UNL1        0.1590
     29  H         14.8530  -24.7190   -5.4980 H       1  UNL1        0.1590
     30  O         13.9140  -21.7020   -5.7120 O.2     1  UNL1       -0.2680
@<TRIPOS>BOND
     1    20    19    1
     2    20    22    1
     3    18    19    2
     4    18    17    1
     5    19    21    1
     6    17    16    2
     7    24    22    1
     8    22    23    1
     9    22    25    1
    10    21    25    1
    11    21    15    2
    12    16    15    1
    13    15    14    1
    14    14    13    1
    15    10    11    2
    16    10     9    1
    17    11    12    1
    18    13     1    1
    19     9     8    2
    20     1     2    2
    21     1     3   am
    22    12     3    1
    23    12     7    2
    24     3     4    1
    25     8     7    1
    26     8    26    1
    27     7     6    1
    28    26    30    2
    29    26    27   am
    30     4     5    1
    31    29    27    1
    32    27    28    1
    33     6     5    1
