@<TRIPOS>MOLECULE
6242_out_ligand_01.pdbqt
 27 29 0 0 0
SMALL
GASTEIGER

@<TRIPOS>ATOM
      1  N         20.2060  -22.7940   -9.5170 N.am    1  UNL1       -0.3230
      2  C         20.4350  -22.6300   -8.1640 C.2     1  UNL1        0.2570
      3  O         21.4210  -22.1550   -7.6170 O.2     1  UNL1       -0.2670
      4  H         19.2980  -23.1580   -9.7800 H       1  UNL1        0.1690
      5  C         21.0840  -22.4880  -10.5760 C.2     1  UNL1        0.0350
      6  C         22.3870  -22.9820  -10.6750 C.2     1  UNL1        0.0310
      7  C         23.1990  -22.6350  -11.7610 C.2     1  UNL1        0.0270
      8  C         22.7000  -21.7970  -12.7580 C.2     1  UNL1        0.0740
      9  C         21.4050  -21.2850  -12.6680 C.2     1  UNL1        0.0270
     10  C         20.6000  -21.6360  -11.5800 C.2     1  UNL1        0.0310
     11  S         23.7380  -21.3350  -14.1130 S.O2    1  UNL1        0.2390
     12  O         23.6610  -22.3480  -15.1390 O.2     1  UNL1       -0.2060
     13  O         24.9950  -20.8410  -13.6020 O.2     1  UNL1       -0.2060
     14  N         22.9340  -19.9930  -14.7240 N.3     1  UNL1       -0.2250
     15  H         22.5410  -20.2130  -15.6400 H       1  UNL1        0.1360
     16  H         23.5600  -19.1870  -14.7270 H       1  UNL1        0.1360
     17  C         19.2960  -23.0560   -7.3150 C.2     1  UNL1        0.0430
     18  C         18.6470  -24.2310   -7.7100 C.2     1  UNL1        0.0180
     19  C         17.6090  -24.7320   -6.9390 C.2     1  UNL1        0.0020
     20  C         17.2230  -24.0570   -5.7800 C.2     1  UNL1        0.0140
     21  C         17.8450  -22.8540   -5.3640 C.2     1  UNL1       -0.0030
     22  C         17.4600  -22.1400   -4.1990 C.2     1  UNL1        0.0450
     23  C         18.9020  -22.3320   -6.1580 C.2     1  UNL1       -0.0090
     24 CL         16.1940  -22.7010   -3.1530 Cl      1  UNL1       -0.0830
     25  C         18.0830  -20.9440   -3.8340 C.2     1  UNL1        0.0240
     26  C         19.0970  -20.4230   -4.6230 C.2     1  UNL1        0.0030
     27  C         19.4980  -21.1070   -5.7700 C.2     1  UNL1        0.0130
@<TRIPOS>BOND
     1    15    14    1
     2    12    11    2
     3    16    14    1
     4    14    11    1
     5    11    13    2
     6    11     8    1
     7     8     9    2
     8     8     7    1
     9     9    10    1
    10     7     6    2
    11    10     5    2
    12     6     5    1
    13     5     1    1
    14     4     1    1
    15     1     2   am
    16     2     3    2
    17     2    17    1
    18    18    17    2
    19    18    19    1
    20    17    23    1
    21    19    20    2
    22    23    27    1
    23    23    21    2
    24    20    21    1
    25    27    26    2
    26    21    22    1
    27    26    25    1
    28    22    25    2
    29    22    24    1
