@<TRIPOS>MOLECULE
62433_out_ligand_01.pdbqt
 35 38 0 0 0
SMALL
GASTEIGER

@<TRIPOS>ATOM
      1  C         20.7840  -20.7900  -13.0000 C.3     1  UNL1        0.0500
      2  C         20.4000  -21.4640  -11.7080 C.2     1  UNL1       -0.0350
      3  C         19.0750  -21.3140  -11.2530 C.2     1  UNL1        0.0100
      4  C         18.6570  -21.9070  -10.0650 C.2     1  UNL1        0.0260
      5  C         19.5680  -22.6540   -9.3250 C.2     1  UNL1        0.0820
      6  C         20.8900  -22.8120   -9.7550 C.2     1  UNL1        0.0550
      7  C         21.3190  -22.2270  -10.9500 C.2     1  UNL1        0.0420
      8  N         22.6400  -22.3690  -11.4340 N.am    1  UNL1       -0.3260
      9  C         23.8120  -21.8380  -10.9080 C.2     1  UNL1        0.2350
     10  O         23.8950  -21.1450   -9.9000 O.2     1  UNL1       -0.2720
     11  H         22.7440  -22.8760  -12.3030 H       1  UNL1        0.1690
     12  C         25.0680  -22.2210  -11.7400 C.3     1  UNL1        0.0680
     13  C         26.1760  -22.8260  -10.8450 C.3     1  UNL1        0.0240
     14  C         27.0020  -23.6920  -11.7880 C.3     1  UNL1        0.0020
     15  C         26.0090  -24.2390  -12.8070 C.3     1  UNL1        0.0020
     16  C         24.7110  -23.4540  -12.6070 C.3     1  UNL1        0.0240
     17  C         25.6070  -20.9890  -12.4900 C.2     1  UNL1       -0.0400
     18  C         26.5710  -20.1190  -11.9540 C.2     1  UNL1        0.0100
     19  C         27.0360  -19.0220  -12.6860 C.2     1  UNL1        0.0240
     20  C         26.5430  -18.7760  -13.9640 C.2     1  UNL1        0.0340
     21 CL         27.1200  -17.4260  -14.8600 Cl      1  UNL1       -0.0840
     22  C         25.5860  -19.6170  -14.5170 C.2     1  UNL1        0.0240
     23  C         25.1210  -20.7130  -13.7840 C.2     1  UNL1        0.0100
     24  S         19.0590  -23.4170   -7.8070 S.O2    1  UNL1        0.2630
     25  O         19.3820  -22.5330   -6.7080 O.2     1  UNL1       -0.2000
     26  O         19.5390  -24.7830   -7.8340 O.2     1  UNL1       -0.2000
     27  N         17.3780  -23.5000   -7.9740 N.pl3   1  UNL1       -0.2810
     28  H         17.1140  -24.2550   -8.6050 H       1  UNL1        0.1790
     29  C         16.5800  -23.2840   -6.8180 C.2     1  UNL1        0.0440
     30  C         16.8700  -23.9690   -5.6360 C.2     1  UNL1        0.0300
     31  C         16.0630  -23.7910   -4.5110 C.2     1  UNL1        0.0040
     32  C         14.9620  -22.9360   -4.5730 C.2     1  UNL1        0.0240
     33  C         14.6740  -22.2630   -5.7610 C.2     1  UNL1        0.0360
     34 CL         13.3140  -21.2130   -5.8360 Cl      1  UNL1       -0.0840
     35  C         15.4770  -22.4360   -6.8880 C.2     1  UNL1        0.0540
@<TRIPOS>BOND
     1    21    20    1
     2    22    20    2
     3    22    23    1
     4    20    19    1
     5    23    17    2
     6     1     2    1
     7    15    16    1
     8    15    14    1
     9    19    18    2
    10    16    12    1
    11    17    18    1
    12    17    12    1
    13    11     8    1
    14    14    13    1
    15    12     9    1
    16    12    13    1
    17     2     3    2
    18     2     7    1
    19     8     7    1
    20     8     9   am
    21     3     4    1
    22     7     6    2
    23     9    10    2
    24     4     5    2
    25     6     5    1
    26     5    24    1
    27    28    27    1
    28    27    24    1
    29    27    29    1
    30    26    24    2
    31    24    25    2
    32    35    29    2
    33    35    33    1
    34    29    30    1
    35    34    33    1
    36    33    32    2
    37    30    31    2
    38    32    31    1
