@<TRIPOS>MOLECULE
62450_out_ligand_01.pdbqt
 28 30 0 0 0
SMALL
GASTEIGER

@<TRIPOS>ATOM
      1  C         17.6190  -23.1170   -8.9210 C.2     1  UNL1        0.0800
      2  C         16.9080  -22.2520   -9.7550 C.2     1  UNL1        0.0260
      3  C         17.5730  -21.5770  -10.7810 C.2     1  UNL1        0.0090
      4  C         18.9530  -21.7540  -10.9830 C.2     1  UNL1       -0.0460
      5  C         19.6170  -21.0450  -12.1300 C.3     1  UNL1        0.0490
      6  C         19.6610  -22.5910  -10.0960 C.2     1  UNL1        0.0390
      7  C         18.9960  -23.2760   -9.0710 C.2     1  UNL1        0.0420
      8  S         16.7800  -23.9960   -7.6240 S.O2    1  UNL1        0.2630
      9  O         17.7610  -24.7930   -6.9180 O.2     1  UNL1       -0.2000
     10  O         15.6090  -24.6110   -8.2140 O.2     1  UNL1       -0.2000
     11  N         16.2150  -22.7630   -6.6230 N.pl3   1  UNL1       -0.2800
     12  H         15.6590  -22.0780   -7.1290 H       1  UNL1        0.1790
     13  C         17.0090  -22.3120   -5.5270 C.2     1  UNL1        0.0480
     14  C         18.1250  -21.5040   -5.7660 C.2     1  UNL1        0.0300
     15  C         18.8990  -21.0330   -4.7070 C.2     1  UNL1        0.0020
     16  C         18.5650  -21.3730   -3.4010 C.2     1  UNL1        0.0010
     17  C         17.4610  -22.1910   -3.1540 C.2     1  UNL1        0.0090
     18  C         16.6720  -22.6730   -4.2100 C.2     1  UNL1       -0.0350
     19  C         15.5030  -23.5660   -3.8960 C.3     1  UNL1        0.0500
     20  C         21.1200  -22.8270  -10.2120 C.2     1  UNL1        0.2580
     21  O         21.5600  -23.8740   -9.7550 O.2     1  UNL1       -0.2670
     22  N         21.8020  -21.7890  -10.7930 N.am    1  UNL1       -0.3010
     23  H         21.3110  -20.9430  -11.0470 H       1  UNL1        0.1710
     24  C         23.1470  -21.7210  -11.0470 C.2     1  UNL1        0.1730
     25  N         23.9850  -21.3110  -10.1230 N.2     1  UNL1       -0.2360
     26  C         25.2710  -21.3320  -10.6280 C.2     1  UNL1        0.1260
     27  C         25.3870  -21.7500  -11.9360 C.2     1  UNL1        0.0720
     28  S         23.8350  -22.1300  -12.5510 S.3     1  UNL1       -0.0620
@<TRIPOS>BOND
     1    28    27    1
     2    28    24    1
     3     5     4    1
     4    27    26    2
     5    24    22    1
     6    24    25    2
     7    23    22    1
     8     4     3    2
     9     4     6    1
    10    22    20   am
    11     3     2    1
    12    26    25    1
    13    20     6    1
    14    20    21    2
    15     6     7    2
    16     2     1    2
    17     7     1    1
    18     1     8    1
    19    10     8    2
    20     8     9    2
    21     8    11    1
    22    12    11    1
    23    11    13    1
    24    14    13    2
    25    14    15    1
    26    13    18    1
    27    15    16    2
    28    18    19    1
    29    18    17    2
    30    16    17    1
