@<TRIPOS>MOLECULE
62452_out_ligand_01.pdbqt
 34 37 0 0 0
SMALL
GASTEIGER

@<TRIPOS>ATOM
      1  N         22.2210  -20.8620  -14.3400 N.1     1  UNL1       -0.1910
      2  C         22.8060  -21.4010  -13.4950 C.1     1  UNL1        0.1030
      3  C         23.4710  -22.0800  -12.4270 C.ar    1  UNL1        0.0850
      4  C         22.8200  -22.5690  -11.2970 C.ar    1  UNL1        0.0980
      5  S         23.9160  -23.3470  -10.2220 S.2     1  UNL1       -0.0750
      6  C         25.2010  -23.0190  -11.2340 C.ar    1  UNL1       -0.0070
      7  C         24.8560  -22.3470  -12.3720 C.ar    1  UNL1       -0.0210
      8  C         26.0470  -22.0930  -13.2220 C.3     1  UNL1        0.0420
      9  C         27.1200  -23.0270  -12.5790 C.3     1  UNL1        0.0100
     10  C         26.6460  -23.3260  -11.1230 C.3     1  UNL1        0.0470
     11  N         21.4600  -22.4910  -11.0180 N.am    1  UNL1       -0.3160
     12  C         20.8800  -22.3320   -9.7720 C.2     1  UNL1        0.2560
     13  O         21.4320  -22.1700   -8.6930 O.2     1  UNL1       -0.2670
     14  H         20.8450  -22.4800  -11.8230 H       1  UNL1        0.1690
     15  C         19.3900  -22.3280   -9.7820 C.2     1  UNL1        0.0340
     16  C         18.6610  -21.6020  -10.7250 C.2     1  UNL1        0.0190
     17  C         17.2630  -21.6520  -10.7070 C.2     1  UNL1        0.0260
     18  C         16.5750  -22.4260   -9.7590 C.2     1  UNL1        0.0570
     19 CL         14.8580  -22.4150   -9.8990 Cl      1  UNL1       -0.0830
     20  C         17.3060  -23.1640   -8.8260 C.2     1  UNL1        0.0970
     21  C         18.7130  -23.1120   -8.8410 C.2     1  UNL1        0.0430
     22  S         16.5670  -24.1560   -7.5510 S.O2    1  UNL1        0.2470
     23  O         15.4470  -24.8430   -8.1620 O.2     1  UNL1       -0.2050
     24  O         17.5660  -24.9030   -6.8250 O.2     1  UNL1       -0.2050
     25  N         15.8740  -22.9810   -6.5340 N.pl3   1  UNL1       -0.1800
     26  H         14.9730  -23.3410   -6.2050 H       1  UNL1        0.1460
     27  C         16.7230  -22.4380   -5.5140 C.2     1  UNL1        0.0460
     28  C         17.8210  -21.6650   -5.8960 C.2     1  UNL1        0.0490
     29  C         18.7030  -21.1930   -4.9260 C.2     1  UNL1        0.0350
     30 CL         20.0580  -20.2460   -5.3990 Cl      1  UNL1       -0.0840
     31  C         18.4990  -21.4840   -3.5770 C.2     1  UNL1        0.0260
     32  C         17.3980  -22.2520   -3.1900 C.2     1  UNL1        0.0270
     33  C         16.5120  -22.7300   -4.1580 C.2     1  UNL1        0.0560
     34 CL         15.1460  -23.6540   -3.6440 Cl      1  UNL1       -0.0820
@<TRIPOS>BOND
     1     1     2    3
     2     2     3    1
     3     8     9    1
     4     8     7    1
     5     9    10    1
     6     3     7   ar
     7     3     4   ar
     8     7     6   ar
     9    14    11    1
    10     4    11    1
    11     4     5   ar
    12     6    10    1
    13     6     5   ar
    14    11    12   am
    15    16    17    1
    16    16    15    2
    17    17    18    2
    18    19    18    1
    19    15    12    1
    20    15    21    1
    21    12    13    2
    22    18    20    1
    23    21    20    2
    24    20    22    1
    25    23    22    2
    26    22    24    2
    27    22    25    1
    28    25    26    1
    29    25    27    1
    30    28    27    2
    31    28    29    1
    32    27    33    1
    33    30    29    1
    34    29    31    2
    35    33    34    1
    36    33    32    2
    37    31    32    1
