@<TRIPOS>MOLECULE
62460_out_ligand_01.pdbqt
 34 36 0 0 0
SMALL
GASTEIGER

@<TRIPOS>ATOM
      1  C         21.0860  -22.3580  -10.2400 C.2     1  UNL1        0.0800
      2  C         20.9080  -21.5570  -11.3740 C.2     1  UNL1        0.0260
      3  C         19.6220  -21.1400  -11.7270 C.2     1  UNL1        0.0090
      4  C         18.5080  -21.5020  -10.9480 C.2     1  UNL1       -0.0460
      5  C         17.1450  -21.0160  -11.3530 C.3     1  UNL1        0.0490
      6  C         18.7120  -22.3200   -9.8170 C.2     1  UNL1        0.0390
      7  C         19.9970  -22.7350   -9.4520 C.2     1  UNL1        0.0420
      8  C         17.5980  -22.7530   -8.9420 C.2     1  UNL1        0.2560
      9  O         16.6920  -23.4000   -9.4510 O.2     1  UNL1       -0.2670
     10  N         17.7160  -22.3250   -7.6390 N.am    1  UNL1       -0.3220
     11  H         18.5320  -21.7490   -7.4140 H       1  UNL1        0.1690
     12  C         16.8640  -22.5980   -6.5430 C.2     1  UNL1        0.0500
     13  C         15.6530  -23.2850   -6.6950 C.2     1  UNL1        0.0300
     14  C         14.8450  -23.5700   -5.5900 C.2     1  UNL1        0.0020
     15  C         15.2400  -23.1850   -4.3120 C.2     1  UNL1        0.0010
     16  C         16.4380  -22.4940   -4.1380 C.2     1  UNL1        0.0190
     17  C         17.2460  -22.1780   -5.2460 C.2     1  UNL1        0.0580
     18  C         18.5080  -21.4030   -5.0370 C.2     1  UNL1        0.2510
     19  N         18.6130  -20.6520   -3.8980 N.am    1  UNL1       -0.3660
     20  H         19.4160  -20.0410   -3.8430 H       1  UNL1        0.1590
     21  H         17.8080  -20.3960   -3.3480 H       1  UNL1        0.1590
     22  O         19.4080  -21.3890   -5.8680 O.2     1  UNL1       -0.2680
     23  S         22.7140  -22.9180   -9.8060 S.O2    1  UNL1        0.2630
     24  O         23.4240  -21.7680   -9.2890 O.2     1  UNL1       -0.2000
     25  O         22.5910  -24.1370   -9.0360 O.2     1  UNL1       -0.2000
     26  N         23.4230  -23.2800  -11.2750 N.pl3   1  UNL1       -0.2810
     27  H         23.0020  -24.0740  -11.7500 H       1  UNL1        0.1790
     28  C         24.6120  -22.6980  -11.7960 C.2     1  UNL1        0.0430
     29  C         25.9000  -23.0500  -11.3980 C.2     1  UNL1        0.0300
     30  C         27.0100  -22.4110  -11.9580 C.2     1  UNL1        0.0030
     31  C         26.8400  -21.4000  -12.9010 C.2     1  UNL1        0.0070
     32  C         25.5560  -21.0210  -13.2980 C.2     1  UNL1       -0.0600
     33  C         25.3500  -19.8760  -14.2490 C.3     1  UNL1        0.0480
     34  C         24.4490  -21.6720  -12.7340 C.2     1  UNL1        0.0370
@<TRIPOS>BOND
     1    33    32    1
     2    32    31    2
     3    32    34    1
     4    31    30    1
     5    34    28    2
     6    30    29    2
     7    28    29    1
     8    28    26    1
     9    27    26    1
    10     3     2    1
    11     3     4    2
    12     2     1    2
    13     5     4    1
    14    26    23    1
    15     4     6    1
    16     1    23    1
    17     1     7    1
    18     6     7    2
    19     6     8    1
    20    23    24    2
    21    23    25    2
    22     9     8    2
    23     8    10   am
    24    10    11    1
    25    10    12    1
    26    13    12    2
    27    13    14    1
    28    12    17    1
    29    22    18    2
    30    14    15    2
    31    17    18    1
    32    17    16    2
    33    18    19   am
    34    15    16    1
    35    19    20    1
    36    19    21    1
