@<TRIPOS>MOLECULE
62464_out_ligand_01.pdbqt
 25 27 0 0 0
SMALL
GASTEIGER

@<TRIPOS>ATOM
      1  C         19.9860  -21.7320  -11.4640 C.2     1  UNL1        0.0400
      2  C         19.0270  -20.8920  -12.0340 C.2     1  UNL1        0.0180
      3  C         17.7490  -20.8540  -11.5000 C.2     1  UNL1        0.0030
      4  C         17.4250  -21.6670  -10.4090 C.2     1  UNL1        0.0300
      5  C         18.3640  -22.5280   -9.8150 C.2     1  UNL1        0.0440
      6  C         19.6870  -22.5140  -10.3230 C.2     1  UNL1       -0.0150
      7  C         20.7650  -23.3170   -9.6460 C.3     1  UNL1        0.0430
      8  C         20.4700  -23.4150   -8.1660 C.3     1  UNL1        0.0250
      9  C         19.1040  -24.0410   -7.9750 C.3     1  UNL1        0.1320
     10  N         18.0110  -23.3760   -8.6940 N.am    1  UNL1       -0.3170
     11  C         16.6740  -23.7470   -8.4340 C.2     1  UNL1        0.2280
     12  O         15.7090  -23.4530   -9.1460 O.2     1  UNL1       -0.2730
     13  C         16.3880  -24.5880   -7.1880 C.3     1  UNL1        0.1450
     14  C         16.0820  -23.7600   -5.9660 C.2     1  UNL1       -0.0110
     15  C         14.9040  -23.0030   -5.8810 C.2     1  UNL1        0.0110
     16  C         14.6240  -22.2530   -4.7360 C.2     1  UNL1        0.0010
     17  C         15.5100  -22.2580   -3.6580 C.2     1  UNL1        0.0030
     18  C         16.6760  -23.0160   -3.7250 C.2     1  UNL1        0.0430
     19  C         16.9500  -23.7610   -4.8700 C.2     1  UNL1        0.1230
     20  F         18.0780  -24.4830   -4.9130 F       1  UNL1       -0.2060
     21  C         21.3130  -21.7440  -12.1250 C.2     1  UNL1        0.2490
     22  N         21.5070  -20.8060  -13.0980 N.am    1  UNL1       -0.3660
     23  H         20.8770  -20.0230  -13.2060 H       1  UNL1        0.1590
     24  H         22.4540  -20.7030  -13.4410 H       1  UNL1        0.1590
     25  O         22.2020  -22.5040  -11.7710 O.2     1  UNL1       -0.2680
@<TRIPOS>BOND
     1    24    22    1
     2    23    22    1
     3    22    21   am
     4    21    25    2
     5    21     1    1
     6     2     3    1
     7     2     1    2
     8     3     4    2
     9     1     6    1
    10     4     5    1
    11     6     5    2
    12     6     7    1
    13     5    10    1
    14     7     8    1
    15    12    11    2
    16    10    11   am
    17    10     9    1
    18    11    13    1
    19     8     9    1
    20    13    14    1
    21    14    15    2
    22    14    19    1
    23    15    16    1
    24    20    19    1
    25    19    18    2
    26    16    17    2
    27    18    17    1
