@<TRIPOS>MOLECULE
62481_out_ligand_01.pdbqt
 27 29 0 0 0
SMALL
GASTEIGER

@<TRIPOS>ATOM
      1  C         21.8280  -22.0780  -10.8410 C.2     1  UNL1        0.0400
      2  C         21.3510  -21.1560  -11.7750 C.2     1  UNL1        0.0180
      3  C         19.9870  -20.9580  -11.8990 C.2     1  UNL1        0.0030
      4  C         19.0980  -21.6860  -11.1020 C.2     1  UNL1        0.0300
      5  C         19.5410  -22.6550  -10.1820 C.2     1  UNL1        0.0440
      6  C         20.9400  -22.8550  -10.0570 C.2     1  UNL1       -0.0150
      7  C         21.4960  -23.8870   -9.1060 C.3     1  UNL1        0.0430
      8  C         20.4660  -24.9400   -8.7630 C.3     1  UNL1        0.0250
      9  C         19.1940  -24.2530   -8.3110 C.3     1  UNL1        0.1320
     10  N         18.6150  -23.4010   -9.3550 N.am    1  UNL1       -0.3160
     11  C         17.2140  -23.3250   -9.5120 C.2     1  UNL1        0.2480
     12  O         16.6420  -22.9510  -10.5360 O.2     1  UNL1       -0.2710
     13  C         16.3760  -23.7270   -8.2780 C.3     1  UNL1        0.2780
     14  O         15.9620  -22.6560   -7.4390 O.2     1  UNL1       -0.3420
     15  C         16.8110  -22.2400   -6.4510 C.2     1  UNL1        0.0710
     16  C         16.3490  -22.4900   -5.1530 C.2     1  UNL1        0.0400
     17  C         17.1090  -22.1210   -4.0410 C.2     1  UNL1        0.0470
     18  C         18.3370  -21.4990   -4.2310 C.2     1  UNL1        0.1380
     19  F         19.0580  -21.1510   -3.1550 F       1  UNL1       -0.2040
     20  C         18.8070  -21.2440   -5.5170 C.2     1  UNL1        0.0750
     21 CL         20.3300  -20.4750   -5.7570 Cl      1  UNL1       -0.0810
     22  C         18.0470  -21.6150   -6.6300 C.2     1  UNL1        0.0630
     23  C         23.3010  -22.1850  -10.7280 C.2     1  UNL1        0.2490
     24  N         23.8810  -23.2090  -11.4210 N.am    1  UNL1       -0.3660
     25  H         24.8580  -23.3860  -11.2210 H       1  UNL1        0.1590
     26  H         23.3290  -23.9720  -11.7890 H       1  UNL1        0.1590
     27  O         23.9470  -21.4390  -10.0080 O.2     1  UNL1       -0.2680
@<TRIPOS>BOND
     1     3     2    1
     2     3     4    2
     3    26    24    1
     4     2     1    2
     5    24    25    1
     6    24    23   am
     7     4     5    1
     8     1    23    1
     9     1     6    1
    10    23    27    2
    11    12    11    2
    12     5     6    2
    13     5    10    1
    14     6     7    1
    15    11    10   am
    16    11    13    1
    17    10     9    1
    18     7     8    1
    19     8     9    1
    20    13    14    1
    21    14    15    1
    22    22    15    2
    23    22    20    1
    24    15    16    1
    25    21    20    1
    26    20    18    2
    27    16    17    2
    28    18    17    1
    29    18    19    1
