@<TRIPOS>MOLECULE
62480_out_ligand_01.pdbqt
 37 41 0 0 0
SMALL
GASTEIGER

@<TRIPOS>ATOM
      1  N         19.4980  -20.2590   -4.9440 N.1     1  UNL1       -0.1910
      2  C         18.9500  -21.0660   -5.5750 C.1     1  UNL1        0.1030
      3  C         18.1900  -22.1000   -6.2250 C.ar    1  UNL1        0.0850
      4  C         18.6030  -22.8400   -7.3110 C.ar    1  UNL1        0.0980
      5  S         17.5190  -24.0960   -7.6860 S.2     1  UNL1       -0.0750
      6  C         16.4190  -23.6230   -6.4620 C.ar    1  UNL1       -0.0070
      7  C         16.8900  -22.5350   -5.7430 C.ar    1  UNL1       -0.0210
      8  C         16.1410  -21.8960   -4.6060 C.3     1  UNL1        0.0410
      9  C         15.8780  -22.8410   -3.4330 C.3     1  UNL1        0.0050
     10  C         15.1560  -24.1560   -3.7580 C.3     1  UNL1        0.0010
     11  C         14.3320  -24.1430   -5.0450 C.3     1  UNL1        0.0050
     12  C         15.1560  -24.4280   -6.3030 C.3     1  UNL1        0.0470
     13  N         19.6840  -22.8530   -8.1670 N.am    1  UNL1       -0.3160
     14  C         19.6940  -22.2770   -9.4190 C.2     1  UNL1        0.2560
     15  O         18.7290  -21.7800   -9.9840 O.2     1  UNL1       -0.2670
     16  H         20.4160  -23.5070   -7.9240 H       1  UNL1        0.1690
     17  C         20.9930  -22.3670  -10.1530 C.2     1  UNL1        0.0320
     18  C         22.0630  -23.0290   -9.5350 C.2     1  UNL1        0.0190
     19  C         23.2940  -23.1410  -10.1850 C.2     1  UNL1        0.0250
     20  C         23.4620  -22.5850  -11.4510 C.2     1  UNL1        0.0220
     21  C         22.3960  -21.9510  -12.0910 C.2     1  UNL1        0.0250
     22  C         21.1600  -21.8430  -11.4440 C.2     1  UNL1        0.0190
     23  N         24.7150  -22.7470  -12.1190 N.pl3   1  UNL1       -0.1810
     24  H         25.1390  -23.6540  -11.9160 H       1  UNL1        0.1460
     25  S         25.8940  -21.5780  -11.7250 S.O2    1  UNL1        0.2450
     26  O         27.1210  -22.3230  -11.5320 O.2     1  UNL1       -0.2060
     27  O         25.3960  -20.6560  -10.7300 O.2     1  UNL1       -0.2060
     28  C         26.0130  -20.7010  -13.2620 C.2     1  UNL1        0.0770
     29  C         26.5850  -19.4240  -13.3010 C.2     1  UNL1        0.0280
     30  C         26.6610  -18.7430  -14.5170 C.2     1  UNL1        0.0410
     31  C         26.1650  -19.3370  -15.6790 C.2     1  UNL1        0.1020
     32  C         25.5620  -20.6000  -15.6240 C.2     1  UNL1        0.1030
     33  O         26.2940  -18.6150  -16.8390 O.2     1  UNL1       -0.3460
     34  C         25.4930  -21.2910  -14.4180 C.2     1  UNL1        0.0640
     35  O         25.0220  -21.2210  -16.7200 O.2     1  UNL1       -0.3460
     36  C         24.8220  -20.2960  -17.7960 C.3     1  UNL1        0.2020
     37  C         26.0550  -19.4300  -17.9920 C.3     1  UNL1        0.2020
@<TRIPOS>BOND
     1    37    36    1
     2    37    33    1
     3    36    35    1
     4    33    31    1
     5    35    32    1
     6    31    32    2
     7    31    30    1
     8    32    34    1
     9    30    29    2
    10    34    28    2
    11    29    28    1
    12    28    25    1
    13    23    24    1
    14    23    25    1
    15    23    20    1
    16    21    20    2
    17    21    22    1
    18    25    26    2
    19    25    27    2
    20    20    19    1
    21    22    17    2
    22    19    18    2
    23    17    18    1
    24    17    14    1
    25    15    14    2
    26    14    13   am
    27    13    16    1
    28    13     4    1
    29     5     4   ar
    30     5     6   ar
    31     4     3   ar
    32     6    12    1
    33     6     7   ar
    34    12    11    1
    35     3     7   ar
    36     3     2    1
    37     7     8    1
    38     2     1    3
    39    11    10    1
    40     8     9    1
    41    10     9    1
