@<TRIPOS>MOLECULE
62499_out_ligand_01.pdbqt
 28 30 0 0 0
SMALL
GASTEIGER

@<TRIPOS>ATOM
      1  C         18.9000  -22.5320   -9.7900 C.2     1  UNL1        0.0340
      2  C         18.1060  -21.7560  -10.6400 C.2     1  UNL1        0.0170
      3  C         18.6910  -21.1160  -11.7300 C.2     1  UNL1        0.0030
      4  C         20.0640  -21.2480  -11.9620 C.2     1  UNL1        0.0290
      5  C         20.8680  -22.0160  -11.1080 C.2     1  UNL1        0.0350
      6  C         20.2750  -22.6710  -10.0270 C.2     1  UNL1        0.0460
      7  C         18.3010  -23.2410   -8.6320 C.2     1  UNL1        0.2520
      8  N         17.2260  -22.6140   -8.0510 N.am    1  UNL1       -0.3530
      9  H         17.0150  -21.6570   -8.2990 H       1  UNL1        0.1630
     10  O         18.7790  -24.2930   -8.2300 O.2     1  UNL1       -0.2680
     11  C         16.6230  -23.1500   -6.8520 C.3     1  UNL1        0.1620
     12  C         17.2520  -22.5370   -5.6250 C.2     1  UNL1       -0.0350
     13  C         18.3090  -21.6230   -5.8020 C.2     1  UNL1        0.0090
     14  C         18.9110  -21.0030   -4.7090 C.2     1  UNL1        0.0010
     15  C         18.4630  -21.2830   -3.4220 C.2     1  UNL1        0.0010
     16  C         17.4060  -22.1740   -3.2310 C.2     1  UNL1        0.0070
     17  C         16.7790  -22.7960   -4.3230 C.2     1  UNL1       -0.0540
     18  C         15.6510  -23.7580   -4.0640 C.3     1  UNL1        0.0490
     19  N         22.2440  -22.0890  -11.4150 N.am    1  UNL1       -0.3230
     20  C         23.2960  -21.6800  -10.6140 C.2     1  UNL1        0.2570
     21  O         23.2200  -21.0980   -9.5400 O.2     1  UNL1       -0.2670
     22  H         22.4680  -22.3730  -12.3600 H       1  UNL1        0.1690
     23  C         24.6460  -21.9420  -11.1670 C.2     1  UNL1        0.0490
     24  C         25.7200  -21.0610  -11.0130 C.2     1  UNL1        0.0200
     25  C         26.9520  -21.3860  -11.5810 C.2     1  UNL1        0.0200
     26  C         27.0650  -22.5780  -12.2800 C.2     1  UNL1        0.1160
     27  N         26.0450  -23.4450  -12.4530 N.2     1  UNL1       -0.2720
     28  C         24.8530  -23.1020  -11.9040 C.2     1  UNL1        0.1330
@<TRIPOS>BOND
     1    27    26    2
     2    27    28    1
     3    22    19    1
     4    26    25    1
     5     4     3    2
     6     4     5    1
     7    28    23    2
     8     3     2    1
     9    25    24    2
    10    19     5    1
    11    19    20   am
    12    23    24    1
    13    23    20    1
    14     5     6    2
    15     2     1    2
    16    20    21    2
    17     6     1    1
    18     1     7    1
    19     7    10    2
    20     7     8   am
    21     9     8    1
    22     8    11    1
    23    11    12    1
    24    13    12    2
    25    13    14    1
    26    12    17    1
    27    14    15    2
    28    17    18    1
    29    17    16    2
    30    15    16    1
