@<TRIPOS>MOLECULE
62514_out_ligand_01.pdbqt
 30 33 0 0 0
SMALL
GASTEIGER

@<TRIPOS>ATOM
      1  C         21.4820  -22.8530   -8.6200 C.2     1  UNL1        0.0320
      2  C         20.7410  -21.9560   -7.8440 C.2     1  UNL1        0.0170
      3  C         19.5620  -22.3740   -7.2230 C.2     1  UNL1        0.0110
      4  C         19.0890  -23.6880   -7.3860 C.2     1  UNL1       -0.0250
      5  C         19.8360  -24.5760   -8.1810 C.2     1  UNL1        0.0110
      6  C         21.0220  -24.1620   -8.7970 C.2     1  UNL1        0.0170
      7  C         17.8110  -24.1690   -6.7250 C.3     1  UNL1        0.1830
      8  S         17.8280  -23.8640   -4.9410 S.3     1  UNL1       -0.1300
      9  C         16.5240  -22.6180   -5.0230 C.3     1  UNL1        0.1790
     10  C         15.9050  -22.7160   -6.3970 C.2     1  UNL1        0.2300
     11  O         14.8860  -22.1120   -6.7180 O.2     1  UNL1       -0.2730
     12  N         16.6150  -23.5450   -7.2440 N.am    1  UNL1       -0.3340
     13  C         16.1420  -23.8490   -8.5910 C.3     1  UNL1        0.1320
     14  C         15.8040  -22.6030   -9.4130 C.3     1  UNL1        0.0580
     15  C         16.9910  -22.1520  -10.2310 C.2     1  UNL1       -0.0570
     16  C         17.9920  -23.0630  -10.5940 C.2     1  UNL1        0.0070
     17  C         19.0730  -22.6480  -11.3720 C.2     1  UNL1        0.0010
     18  C         19.1610  -21.3220  -11.7960 C.2     1  UNL1        0.0000
     19  C         18.1700  -20.4090  -11.4410 C.2     1  UNL1        0.0010
     20  C         17.0860  -20.8210  -10.6630 C.2     1  UNL1        0.0070
     21  C         22.7320  -22.3720   -9.2590 C.2     1  UNL1        0.2520
     22  O         23.1210  -21.2280   -9.0610 O.2     1  UNL1       -0.2680
     23  N         23.4060  -23.2950  -10.0310 N.am    1  UNL1       -0.3520
     24  H         23.0570  -24.2410  -10.0970 H       1  UNL1        0.1630
     25  C         24.6170  -22.9500  -10.7630 C.3     1  UNL1        0.0840
     26  C         25.8140  -23.7270  -10.2050 C.3     1  UNL1        0.0250
     27  C         27.0910  -23.4450  -10.9940 C.3     1  UNL1        0.0020
     28  C         26.9040  -23.7160  -12.4830 C.3     1  UNL1        0.0000
     29  C         25.7130  -22.9470  -13.0490 C.3     1  UNL1        0.0020
     30  C         24.4340  -23.2270  -12.2630 C.3     1  UNL1        0.0250
@<TRIPOS>BOND
     1    29    28    1
     2    29    30    1
     3    28    27    1
     4    30    25    1
     5    18    19    2
     6    18    17    1
     7    19    20    1
     8    17    16    2
     9    27    26    1
    10    25    26    1
    11    25    23    1
    12    20    15    2
    13    16    15    1
    14    15    14    1
    15    24    23    1
    16    23    21   am
    17    14    13    1
    18    21    22    2
    19    21     1    1
    20     6     1    2
    21     6     5    1
    22     1     2    1
    23    13    12    1
    24     5     4    2
    25     2     3    2
    26     4     3    1
    27     4     7    1
    28    12     7    1
    29    12    10   am
    30     7     8    1
    31    11    10    2
    32    10     9    1
    33     9     8    1
