@<TRIPOS>MOLECULE
6252_out_ligand_01.pdbqt
 30 34 0 0 0
SMALL
GASTEIGER

@<TRIPOS>ATOM
      1  C         19.2600  -21.9890  -10.0150 C.2     1  UNL1        0.0350
      2  C         18.6490  -21.2830  -11.0570 C.2     1  UNL1        0.0290
      3  C         19.3750  -20.9160  -12.1910 C.2     1  UNL1        0.0030
      4  C         20.7250  -21.2520  -12.2910 C.2     1  UNL1        0.0150
      5  C         21.3590  -21.9590  -11.2620 C.2     1  UNL1        0.0120
      6  C         20.6110  -22.3280  -10.1280 C.2     1  UNL1        0.0440
      7  N         18.4500  -22.3240   -8.9110 N.am    1  UNL1       -0.3230
      8  C         18.4840  -23.4840   -8.1620 C.2     1  UNL1        0.2570
      9  O         19.2720  -24.4160   -8.2510 O.2     1  UNL1       -0.2670
     10  H         17.7840  -21.6200   -8.6160 H       1  UNL1        0.1690
     11  C         17.4670  -23.5240   -7.0810 C.2     1  UNL1        0.0430
     12  C         16.3520  -24.3400   -7.3140 C.2     1  UNL1        0.0180
     13  C         15.3830  -24.4860   -6.3280 C.2     1  UNL1        0.0020
     14  C         15.5270  -23.8160   -5.1130 C.2     1  UNL1        0.0120
     15  C         16.6260  -22.9740   -4.8710 C.2     1  UNL1       -0.0250
     16  C         16.7400  -22.2950   -3.6470 C.2     1  UNL1        0.0120
     17  C         17.6180  -22.8020   -5.8690 C.2     1  UNL1       -0.0100
     18  C         17.8100  -21.4360   -3.3980 C.2     1  UNL1        0.0010
     19  C         18.7770  -21.2360   -4.3740 C.2     1  UNL1        0.0010
     20  C         18.6810  -21.9060   -5.5950 C.2     1  UNL1        0.0130
     21  C         22.7750  -22.3350  -11.3440 C.ar    1  UNL1        0.1390
     22  N         23.5050  -22.8420  -10.3680 N.ar    1  UNL1       -0.2280
     23  C         24.7630  -23.0270  -10.8840 C.ar    1  UNL1        0.0860
     24  C         25.9180  -23.5390  -10.2750 C.2     1  UNL1        0.0340
     25  C         24.8190  -22.6200  -12.2090 C.ar    1  UNL1        0.0620
     26  C         27.0940  -23.6230  -11.0310 C.2     1  UNL1        0.0020
     27  C         27.1190  -23.2040  -12.3640 C.2     1  UNL1        0.0020
     28  C         25.9750  -22.6890  -12.9870 C.2     1  UNL1        0.0320
     29  N         23.5480  -22.1800  -12.4750 N.ar    1  UNL1       -0.3380
     30  H         23.2350  -21.7820  -13.3460 H       1  UNL1        0.1670
@<TRIPOS>BOND
     1    30    29    1
     2    28    27    2
     3    28    25    1
     4    29    25   ar
     5    29    21   ar
     6    27    26    1
     7     4     3    2
     8     4     5    1
     9    25    23   ar
    10     3     2    1
    11    21     5    1
    12    21    22   ar
    13     5     6    2
    14     2     1    2
    15    26    24    2
    16    23    22   ar
    17    23    24    1
    18     6     1    1
    19     1     7    1
    20     7    10    1
    21     7     8   am
    22     9     8    2
    23     8    11    1
    24    12    11    2
    25    12    13    1
    26    11    17    1
    27    13    14    2
    28    17    20    1
    29    17    15    2
    30    20    19    2
    31    14    15    1
    32    15    16    1
    33    19    18    1
    34    16    18    2
