@<TRIPOS>MOLECULE
62529_out_ligand_01.pdbqt
 34 36 0 0 0
SMALL
GASTEIGER

@<TRIPOS>ATOM
      1  C         20.7900  -23.4740   -8.3450 C.2     1  UNL1        0.0800
      2  C         20.8700  -22.2690   -7.6510 C.2     1  UNL1        0.0370
      3  C         22.0400  -21.5180   -7.7250 C.2     1  UNL1        0.0050
      4  C         23.1180  -21.9720   -8.4920 C.2     1  UNL1        0.0300
      5  C         23.0270  -23.1690   -9.2070 C.2     1  UNL1        0.0450
      6  C         21.8690  -23.9400   -9.0970 C.2     1  UNL1        0.0670
      7  O         19.6710  -24.2590   -8.2080 O.2     1  UNL1       -0.2910
      8  C         18.4910  -23.6640   -8.6250 C.2     1  UNL1        0.1850
      9  N         18.4080  -23.3290   -9.9430 N.2     1  UNL1       -0.2360
     10  C         17.2500  -22.7780  -10.3640 C.2     1  UNL1        0.1190
     11  C         16.1640  -22.5530   -9.5380 C.2     1  UNL1        0.0200
     12  C         16.2680  -22.9200   -8.1990 C.2     1  UNL1        0.0230
     13  C         17.4470  -23.5040   -7.7160 C.2     1  UNL1        0.0850
     14  C         17.5020  -23.8710   -6.2740 C.2     1  UNL1        0.2560
     15  N         17.5040  -22.8550   -5.3420 N.am    1  UNL1       -0.3530
     16  H         17.3680  -21.9000   -5.6530 H       1  UNL1        0.1630
     17  O         17.5530  -25.0560   -5.9580 O.2     1  UNL1       -0.2680
     18  C         17.4170  -23.1130   -3.9080 C.3     1  UNL1        0.0800
     19  C         18.1570  -22.0100   -3.1550 C.3     1  UNL1        0.0320
     20  C         15.9410  -23.2250   -3.4900 C.3     1  UNL1        0.0200
     21  C         15.0190  -22.2910   -4.2600 C.3     1  UNL1        0.0070
     22  N         24.0960  -23.7010   -9.9830 N.pl3   1  UNL1       -0.2810
     23  H         24.0470  -24.6730  -10.2860 H       1  UNL1        0.1790
     24  S         25.0570  -22.7610  -10.9970 S.O2    1  UNL1        0.2630
     25  O         25.8750  -23.6930  -11.7450 O.2     1  UNL1       -0.2000
     26  O         25.6600  -21.7210  -10.1910 O.2     1  UNL1       -0.2000
     27  C         23.9000  -22.0440  -12.1590 C.2     1  UNL1        0.0860
     28  C         22.5510  -21.9900  -11.7570 C.2     1  UNL1        0.0320
     29  C         21.5800  -21.4130  -12.5820 C.2     1  UNL1       -0.0600
     30  C         20.1530  -21.3090  -12.1320 C.3     1  UNL1        0.0480
     31  C         21.9710  -20.8830  -13.8130 C.2     1  UNL1        0.0070
     32  C         23.3030  -20.9560  -14.2260 C.2     1  UNL1        0.0090
     33  C         24.2880  -21.5480  -13.4160 C.2     1  UNL1       -0.0390
     34  C         25.6930  -21.6070  -13.9430 C.3     1  UNL1        0.0500
@<TRIPOS>BOND
     1    32    31    2
     2    32    33    1
     3    34    33    1
     4    31    29    1
     5    33    27    2
     6    29    30    1
     7    29    28    2
     8    27    28    1
     9    27    24    1
    10    25    24    2
    11    24    26    2
    12    24    22    1
    13    10     9    1
    14    10    11    2
    15    23    22    1
    16    22     5    1
    17     9     8    2
    18    11    12    1
    19     5     6    1
    20     5     4    2
    21     6     1    2
    22     8     7    1
    23     8    13    1
    24     4     3    1
    25     1     7    1
    26     1     2    1
    27    12    13    2
    28     3     2    2
    29    13    14    1
    30    14    17    2
    31    14    15   am
    32    16    15    1
    33    15    18    1
    34    21    20    1
    35    18    20    1
    36    18    19    1
