@<TRIPOS>MOLECULE
62538_out_ligand_01.pdbqt
 36 39 0 0 0
SMALL
GASTEIGER

@<TRIPOS>ATOM
      1  C         23.7170  -22.5600   -9.2760 C.3     1  UNL1        0.1250
      2  C         24.4160  -22.1700  -10.5630 C.2     1  UNL1        0.2230
      3  N         24.2560  -23.1220  -11.5610 N.am    1  UNL1       -0.3270
      4  H         23.7940  -23.9760  -11.2820 H       1  UNL1        0.1690
      5  O         25.0400  -21.1140  -10.6420 O.2     1  UNL1       -0.2730
      6  C         24.6610  -23.0410  -12.9060 C.2     1  UNL1        0.0350
      7  C         25.0170  -24.2390  -13.5320 C.2     1  UNL1        0.0320
      8  C         25.4360  -24.2540  -14.8650 C.2     1  UNL1        0.0400
      9  C         25.4900  -23.0700  -15.6110 C.2     1  UNL1        0.0840
     10  C         25.1420  -21.8540  -14.9850 C.2     1  UNL1        0.0670
     11  C         24.7210  -21.8580  -13.6390 C.2     1  UNL1        0.0490
     12  O         25.8870  -23.0300  -16.9220 O.2     1  UNL1       -0.3550
     13  C         24.8870  -23.2630  -17.9110 C.3     1  UNL1        0.2100
     14  C         25.1720  -20.5200  -15.6670 C.2     1  UNL1        0.2520
     15  N         24.2240  -20.2590  -16.6130 N.am    1  UNL1       -0.3660
     16  H         23.4810  -20.9190  -16.8150 H       1  UNL1        0.1590
     17  H         24.2230  -19.3490  -17.0520 H       1  UNL1        0.1590
     18  O         26.0220  -19.6770  -15.4150 O.2     1  UNL1       -0.2680
     19  C         22.6820  -23.6480   -9.5260 C.3     1  UNL1        0.1640
     20  N         21.3010  -23.1560   -9.5300 N.ar    1  UNL1       -0.2330
     21  N         20.6600  -23.2000   -8.3210 N.ar    1  UNL1       -0.1680
     22  C         19.4410  -22.7730   -8.2190 C.ar    1  UNL1        0.0980
     23  C         18.6710  -22.2840   -9.3800 C.ar    1  UNL1        0.0110
     24  C         17.3060  -21.9810   -9.3250 C.2     1  UNL1        0.0150
     25  C         19.3510  -22.1580  -10.5860 C.ar    1  UNL1        0.0460
     26  C         16.6450  -21.5050  -10.4610 C.2     1  UNL1        0.0010
     27  C         17.3390  -21.3420  -11.6580 C.2     1  UNL1        0.0010
     28  C         18.6930  -21.6740  -11.7240 C.2     1  UNL1        0.0180
     29  C         20.7640  -22.5700  -10.6680 C.ar    1  UNL1        0.2740
     30  O         21.3980  -22.3810  -11.7050 O.2     1  UNL1       -0.2660
     31  C         18.8420  -22.7810   -6.8630 C.2     1  UNL1       -0.0050
     32  C         18.9480  -21.6360   -6.0700 C.2     1  UNL1        0.0140
     33  C         18.3730  -21.6200   -4.7990 C.2     1  UNL1        0.0010
     34  C         17.6870  -22.7400   -4.3310 C.2     1  UNL1        0.0000
     35  C         17.5620  -23.8750   -5.1340 C.2     1  UNL1        0.0010
     36  C         18.1340  -23.8960   -6.4070 C.2     1  UNL1        0.0140
@<TRIPOS>BOND
     1    13    12    1
     2    17    15    1
     3    12     9    1
     4    16    15    1
     5    15    14   am
     6    14    18    2
     7    14    10    1
     8     9    10    2
     9     9     8    1
    10    10    11    1
    11     8     7    2
    12    11     6    2
    13     7     6    1
    14     6     3    1
    15    28    27    2
    16    28    25    1
    17    30    29    2
    18    27    26    1
    19     3     4    1
    20     3     2   am
    21    29    25   ar
    22    29    20   ar
    23     5     2    2
    24    25    23   ar
    25     2     1    1
    26    26    24    2
    27    20    19    1
    28    20    21   ar
    29    19     1    1
    30    23    24    1
    31    23    22   ar
    32    21    22   ar
    33    22    31    1
    34    31    36    2
    35    31    32    1
    36    36    35    1
    37    32    33    2
    38    35    34    2
    39    33    34    1
