@<TRIPOS>MOLECULE
62535_out_ligand_01.pdbqt
 46 51 0 0 0
SMALL
GASTEIGER

@<TRIPOS>ATOM
      1  C         23.0070  -22.2690  -12.3110 C.2     1  UNL1        0.0350
      2  C         23.3220  -22.9970  -11.1670 C.2     1  UNL1        0.0320
      3  C         22.3740  -23.2240  -10.1540 C.2     1  UNL1        0.0330
      4  C         21.0780  -22.7110  -10.3210 C.2     1  UNL1        0.0450
      5  C         20.7370  -21.9790  -11.4590 C.2     1  UNL1       -0.0050
      6  C         21.7150  -21.7410  -12.4430 C.2     1  UNL1        0.0430
      7  C         19.3650  -21.6530  -11.3600 C.2     1  UNL1        0.0490
      8  C         18.8720  -22.2110  -10.1960 C.2     1  UNL1        0.1040
      9  N         19.9450  -22.7650   -9.5240 N.pl3   1  UNL1       -0.3370
     10  N         23.8910  -22.0470  -13.3890 N.am    1  UNL1       -0.3230
     11  C         23.7140  -21.1990  -14.4640 C.2     1  UNL1        0.2570
     12  O         22.7000  -20.5770  -14.7600 O.2     1  UNL1       -0.2670
     13  H         24.7970  -22.5000  -13.3170 H       1  UNL1        0.1690
     14  C         24.8830  -21.0940  -15.3790 C.2     1  UNL1        0.0490
     15  C         25.2860  -19.7850  -15.7020 C.2     1  UNL1        0.0180
     16  C         26.3930  -19.5650  -16.5170 C.2     1  UNL1        0.0010
     17  C         27.1210  -20.6470  -16.9990 C.2     1  UNL1        0.0010
     18  C         26.7410  -21.9500  -16.6690 C.2     1  UNL1        0.0190
     19  C         25.6060  -22.1990  -15.8780 C.2     1  UNL1        0.0160
     20  S         25.2200  -23.8980  -15.4520 S.3     1  UNL1       -0.1240
     21  C         26.6770  -24.4040  -14.4700 C.3     1  UNL1        0.1170
     22  C         26.7630  -23.7220  -13.1280 C.2     1  UNL1       -0.0490
     23  C         27.0600  -22.3550  -13.0470 C.2     1  UNL1        0.0080
     24  C         27.1160  -21.7120  -11.8070 C.2     1  UNL1        0.0010
     25  C         26.8980  -22.4370  -10.6370 C.2     1  UNL1        0.0000
     26  C         26.6230  -23.8000  -10.7020 C.2     1  UNL1        0.0010
     27  C         26.5480  -24.4390  -11.9410 C.2     1  UNL1        0.0080
     28  C         19.8710  -23.3920   -8.2060 C.3     1  UNL1        0.1680
     29  C         19.7740  -22.3690   -7.1020 C.2     1  UNL1       -0.0370
     30  C         18.6520  -22.3310   -6.2560 C.2     1  UNL1        0.0090
     31  C         18.5460  -21.3710   -5.2460 C.2     1  UNL1        0.0040
     32  C         19.5610  -20.4360   -5.0660 C.2     1  UNL1        0.0420
     33  C         20.6720  -20.4690   -5.8990 C.2     1  UNL1        0.1170
     34  F         21.6500  -19.5710   -5.7290 F       1  UNL1       -0.2060
     35  C         20.7890  -21.4210   -6.9090 C.2     1  UNL1        0.0510
     36  C         17.4970  -22.2240   -9.7690 C.2     1  UNL1        0.2680
     37  O         16.6620  -21.4020  -10.1290 O.2     1  UNL1       -0.2660
     38  N         17.2160  -23.3100   -8.9770 N.am    1  UNL1       -0.3510
     39  H         17.9290  -24.0260   -8.9230 H       1  UNL1        0.1630
     40  C         15.8530  -23.7130   -8.7230 C.3     1  UNL1        0.1610
     41  C         15.4700  -23.4150   -7.2950 C.2     1  UNL1       -0.0410
     42  C         15.8410  -24.2910   -6.2660 C.2     1  UNL1        0.0090
     43  C         15.5290  -23.9970   -4.9400 C.2     1  UNL1        0.0010
     44  C         14.8330  -22.8320   -4.6280 C.2     1  UNL1        0.0000
     45  C         14.4430  -21.9610   -5.6420 C.2     1  UNL1        0.0010
     46  C         14.7640  -22.2470   -6.9710 C.2     1  UNL1        0.0090
@<TRIPOS>BOND
     1    17    18    2
     2    17    16    1
     3    18    19    1
     4    16    15    2
     5    19    20    1
     6    19    14    2
     7    15    14    1
     8    20    21    1
     9    14    11    1
    10    12    11    2
    11    21    22    1
    12    11    10   am
    13    10    13    1
    14    10     1    1
    15    22    23    2
    16    22    27    1
    17    23    24    1
    18     6     1    2
    19     6     5    1
    20     1     2    1
    21    27    26    2
    22    24    25    2
    23     5     7    1
    24     5     4    2
    25     7     8    2
    26     2     3    2
    27    26    25    1
    28     4     3    1
    29     4     9    1
    30     8    36    1
    31     8     9    1
    32    37    36    2
    33    36    38   am
    34     9    28    1
    35    38    39    1
    36    38    40    1
    37    40    41    1
    38    28    29    1
    39    41    46    2
    40    41    42    1
    41    29    35    2
    42    29    30    1
    43    46    45    1
    44    35    33    1
    45    42    43    2
    46    30    31    2
    47    33    34    1
    48    33    32    2
    49    45    44    2
    50    31    32    1
    51    43    44    1
