@<TRIPOS>MOLECULE
6254_out_ligand_01.pdbqt
 31 35 0 0 0
SMALL
GASTEIGER

@<TRIPOS>ATOM
      1  C         23.6060  -23.6480   -9.3050 C.3     1  UNL1        0.1610
      2  N         23.8060  -22.8360  -10.4810 N.am    1  UNL1       -0.3530
      3  C         25.0170  -22.7870  -11.1320 C.2     1  UNL1        0.2520
      4  O         26.0570  -23.2780  -10.7150 O.2     1  UNL1       -0.2680
      5  H         22.9900  -22.4420  -10.9310 H       1  UNL1        0.1630
      6  C         25.0080  -22.0280  -12.4050 C.2     1  UNL1        0.0430
      7  C         24.2700  -22.6000  -13.4450 C.2     1  UNL1        0.0180
      8  C         24.2510  -21.9880  -14.6880 C.2     1  UNL1        0.0020
      9  C         24.9660  -20.8060  -14.8860 C.2     1  UNL1        0.0130
     10  C         25.7050  -20.1840  -13.8470 C.2     1  UNL1       -0.0070
     11  C         26.4270  -18.9720  -14.0130 C.2     1  UNL1        0.0220
     12  C         25.7150  -20.8050  -12.5690 C.2     1  UNL1       -0.0090
     13 BR         26.5120  -18.0490  -15.6810 Br      1  UNL1       -0.0500
     14  C         27.1210  -18.3810  -12.9530 C.2     1  UNL1        0.0200
     15  C         27.1060  -18.9750  -11.7010 C.2     1  UNL1        0.0020
     16  C         26.4100  -20.1670  -11.5130 C.2     1  UNL1        0.0130
     17  C         22.2170  -23.4410   -8.7580 C.2     1  UNL1       -0.0400
     18  C         21.9150  -22.2960   -8.0110 C.2     1  UNL1        0.0100
     19  C         20.6420  -22.1190   -7.4630 C.2     1  UNL1        0.0160
     20  C         19.6410  -23.0840   -7.6430 C.2     1  UNL1        0.0170
     21  C         19.9480  -24.2330   -8.3870 C.2     1  UNL1        0.0160
     22  C         21.2230  -24.4120   -8.9350 C.2     1  UNL1        0.0100
     23  C         18.3210  -22.8720   -7.0540 C.ar    1  UNL1        0.1800
     24  N         17.1420  -22.8260   -7.6510 N.ar    1  UNL1       -0.2210
     25  C         16.2620  -22.6020   -6.6240 C.ar    1  UNL1        0.0930
     26  C         14.8690  -22.4570   -6.6170 C.2     1  UNL1        0.0340
     27  C         16.9510  -22.5160   -5.4260 C.ar    1  UNL1        0.1060
     28  C         14.2340  -22.2310   -5.3860 C.2     1  UNL1        0.0020
     29  C         14.9690  -22.1520   -4.1950 C.2     1  UNL1        0.0030
     30  C         16.3620  -22.2940   -4.1860 C.2     1  UNL1        0.0400
     31  O         18.2770  -22.6890   -5.6920 O.2     1  UNL1       -0.2890
@<TRIPOS>BOND
     1    13    11    1
     2     9     8    2
     3     9    10    1
     4     8     7    1
     5    11    10    2
     6    11    14    1
     7    10    12    1
     8     7     6    2
     9    14    15    2
    10    12     6    1
    11    12    16    2
    12     6     3    1
    13    15    16    1
    14     3     4    2
    15     3     2   am
    16     5     2    1
    17     2     1    1
    18     1    17    1
    19    22    17    2
    20    22    21    1
    21    17    18    1
    22    21    20    2
    23    18    19    2
    24    24    23   ar
    25    24    25   ar
    26    20    19    1
    27    20    23    1
    28    23    31   ar
    29    25    26    2
    30    25    27   ar
    31    26    28    1
    32    31    27   ar
    33    27    30    2
    34    28    29    2
    35    29    30    1
