@<TRIPOS>MOLECULE
62549_out_ligand_01.pdbqt
 34 37 0 0 0
SMALL
GASTEIGER

@<TRIPOS>ATOM
      1  C         20.9570  -22.8600  -10.3820 C.2     1  UNL1       -0.0380
      2  C         21.6410  -23.3610   -9.2550 C.2     1  UNL1        0.0090
      3  C         23.0360  -23.3980   -9.2190 C.2     1  UNL1        0.0100
      4  C         23.7360  -22.9180  -10.3150 C.2     1  UNL1       -0.0300
      5  C         23.0720  -22.4160  -11.4350 C.2     1  UNL1        0.0440
      6  C         21.6890  -22.3910  -11.4870 C.2     1  UNL1        0.0390
      7  N         24.0020  -21.9690  -12.3910 N.am    1  UNL1       -0.3130
      8  C         23.6870  -21.4620  -13.6420 C.2     1  UNL1        0.2580
      9  O         22.5720  -21.4240  -14.1530 O.2     1  UNL1       -0.2670
     10  C         25.3550  -22.1210  -11.8230 C.2     1  UNL1        0.1370
     11  C         25.2170  -22.8950  -10.5050 C.2     1  UNL1        0.0610
     12  C         19.4490  -22.8550  -10.4130 C.3     1  UNL1        0.1630
     13  N         18.9110  -22.1690   -9.2590 N.am    1  UNL1       -0.3390
     14  C         18.1630  -22.8480   -8.3190 C.2     1  UNL1        0.3210
     15  O         17.9850  -24.0580   -8.3700 O.2     1  UNL1       -0.2470
     16  N         17.7080  -21.9860   -7.3440 N.am    1  UNL1       -0.3080
     17  H         18.0890  -21.0500   -7.4110 H       1  UNL1        0.1700
     18  H         18.6920  -21.1940   -9.4000 H       1  UNL1        0.1640
     19  C         16.8930  -22.2790   -6.2210 C.2     1  UNL1        0.0510
     20  C         15.6490  -22.9120   -6.3590 C.2     1  UNL1        0.0300
     21  C         14.8510  -23.2030   -5.2490 C.2     1  UNL1        0.0020
     22  C         15.2790  -22.8610   -3.9750 C.2     1  UNL1        0.0010
     23  C         16.5070  -22.2240   -3.8140 C.2     1  UNL1        0.0180
     24  C         17.3250  -21.9210   -4.9260 C.2     1  UNL1        0.0740
     25  C         18.6430  -21.2470   -4.6390 C.3     1  UNL1        0.4190
     26  F         18.5670  -19.8880   -4.7270 F       1  UNL1       -0.1660
     27  F         19.6580  -21.6080   -5.4810 F       1  UNL1       -0.1660
     28  F         19.1000  -21.5130   -3.3840 F       1  UNL1       -0.1660
     29  C         24.8060  -20.9440  -14.4550 C.2     1  UNL1        0.0320
     30  C         25.3240  -19.6670  -14.2140 C.2     1  UNL1        0.0170
     31  C         26.3760  -19.1920  -14.9970 C.2     1  UNL1        0.0010
     32  C         26.8970  -19.9850  -16.0200 C.2     1  UNL1        0.0000
     33  C         26.3640  -21.2510  -16.2730 C.2     1  UNL1        0.0010
     34  C         25.3100  -21.7330  -15.4940 C.2     1  UNL1        0.0170
@<TRIPOS>BOND
     1    33    32    2
     2    33    34    1
     3    32    31    1
     4    34    29    2
     5    31    30    2
     6    29    30    1
     7    29     8    1
     8     9     8    2
     9     8     7   am
    10     7    10    1
    11     7     5    1
    12    10    11    2
    13     6     5    1
    14     6     1    2
    15     5     4    2
    16    11     4    1
    17    12     1    1
    18    12    13    1
    19     1     2    1
    20     4     3    1
    21    18    13    1
    22    13    14   am
    23     2     3    2
    24    15    14    2
    25    14    16   am
    26    17    16    1
    27    16    19    1
    28    20    19    2
    29    20    21    1
    30    19    24    1
    31    27    25    1
    32    21    22    2
    33    24    25    1
    34    24    23    2
    35    26    25    1
    36    25    28    1
    37    22    23    1
