@<TRIPOS>MOLECULE
62542_out_ligand_01.pdbqt
 32 35 0 0 0
SMALL
GASTEIGER

@<TRIPOS>ATOM
      1  C         20.4340  -22.2090  -10.9840 C.2     1  UNL1       -0.0070
      2  C         21.6240  -22.8830  -10.6480 C.2     1  UNL1        0.0150
      3  C         22.7870  -22.7350  -11.4140 C.2     1  UNL1        0.0180
      4  C         22.7800  -21.9120  -12.5450 C.2     1  UNL1        0.0320
      5  C         21.6160  -21.2240  -12.8900 C.2     1  UNL1        0.0180
      6  C         20.4560  -21.3810  -12.1220 C.2     1  UNL1        0.0150
      7  C         19.1990  -22.3530  -10.1850 C.2     1  UNL1        0.0720
      8  C         19.1780  -22.9480   -8.9370 C.2     1  UNL1        0.0900
      9  C         17.9590  -23.0030   -8.2930 C.2     1  UNL1        0.1730
     10  N         16.8210  -22.5530   -8.8500 N.2     1  UNL1       -0.2170
     11  C         16.9430  -21.9880  -10.0530 C.2     1  UNL1        0.2360
     12  N         18.0770  -21.8570  -10.7530 N.2     1  UNL1       -0.2410
     13  O         17.7740  -23.5900   -7.0570 O.2     1  UNL1       -0.2890
     14  C         17.9240  -22.8090   -5.9320 C.2     1  UNL1        0.1110
     15  C         18.8130  -21.7340   -6.0380 C.2     1  UNL1        0.0400
     16  C         19.0410  -20.9140   -4.9380 C.2     1  UNL1        0.0030
     17  C         18.3930  -21.1760   -3.7320 C.2     1  UNL1        0.0030
     18  C         17.5240  -22.2680   -3.6190 C.2     1  UNL1        0.0390
     19  C         17.2900  -23.1040   -4.7140 C.2     1  UNL1        0.1020
     20  O         16.4740  -24.2030   -4.7000 O.2     1  UNL1       -0.3530
     21  C         15.0800  -23.9860   -4.5300 C.3     1  UNL1        0.2100
     22  C         23.9960  -21.7250  -13.3830 C.2     1  UNL1        0.2560
     23  O         25.0830  -21.6690  -12.8240 O.2     1  UNL1       -0.2670
     24  N         23.7490  -21.5960  -14.7380 N.am    1  UNL1       -0.3230
     25  H         22.7790  -21.5240  -15.0200 H       1  UNL1        0.1690
     26  C         24.7000  -21.4490  -15.7700 C.2     1  UNL1        0.0360
     27  C         25.0450  -22.6050  -16.4870 C.2     1  UNL1        0.0290
     28  C         25.9820  -22.5520  -17.5220 C.2     1  UNL1        0.0040
     29  C         26.5870  -21.3400  -17.8470 C.2     1  UNL1        0.0240
     30  C         26.2510  -20.1920  -17.1350 C.2     1  UNL1        0.0360
     31 CL         27.0080  -18.6970  -17.5370 Cl      1  UNL1       -0.0840
     32  C         25.3150  -20.2400  -16.1000 C.2     1  UNL1        0.0530
@<TRIPOS>BOND
     1    29    28    2
     2    29    30    1
     3    31    30    1
     4    28    27    1
     5    30    32    2
     6    27    26    2
     7    32    26    1
     8    26    24    1
     9    25    24    1
    10    24    22   am
    11    22    23    2
    12    22     4    1
    13     5     4    2
    14     5     6    1
    15     4     3    1
    16     6     1    2
    17     3     2    2
    18     1     2    1
    19     1     7    1
    20    12     7    1
    21    12    11    2
    22     7     8    2
    23    11    10    1
    24     8     9    1
    25    10     9    2
    26     9    13    1
    27    13    14    1
    28    15    14    2
    29    15    16    1
    30    14    19    1
    31    16    17    2
    32    19    20    1
    33    19    18    2
    34    20    21    1
    35    17    18    1
