@<TRIPOS>MOLECULE
62556_out_ligand_01.pdbqt
 29 32 0 0 0
SMALL
GASTEIGER

@<TRIPOS>ATOM
      1  C         19.9310  -21.9600  -10.7340 C.2     1  UNL1        0.0120
      2  C         18.9930  -21.7710  -11.7540 C.2     1  UNL1        0.0160
      3  C         17.6280  -21.8430  -11.4790 C.2     1  UNL1        0.0100
      4  C         17.1660  -22.1030  -10.1790 C.2     1  UNL1       -0.0350
      5  C         15.6790  -22.1670   -9.9520 C.3     1  UNL1        0.0500
      6  C         18.1010  -22.2990   -9.1370 C.2     1  UNL1        0.0420
      7  C         19.4690  -22.2300   -9.4340 C.2     1  UNL1        0.0450
      8  C         21.3730  -21.8960  -10.9920 C.ar    1  UNL1        0.1390
      9  N         22.3270  -21.8200  -10.0810 N.ar    1  UNL1       -0.2280
     10  C         23.5130  -21.7710  -10.7680 C.ar    1  UNL1        0.0860
     11  C         24.8270  -21.6950  -10.2880 C.2     1  UNL1        0.0340
     12  C         23.2930  -21.8100  -12.1370 C.ar    1  UNL1        0.0630
     13  C         25.8790  -21.6560  -11.2140 C.2     1  UNL1        0.0090
     14  C         25.6360  -21.6800  -12.5960 C.2     1  UNL1       -0.0600
     15  C         26.7900  -21.6670  -13.5580 C.3     1  UNL1        0.0480
     16  C         24.3200  -21.7710  -13.0840 C.2     1  UNL1        0.0380
     17  N         21.9300  -21.8850  -12.2530 N.ar    1  UNL1       -0.3380
     18  H         21.4150  -21.8980  -13.1180 H       1  UNL1        0.1670
     19  N         17.6120  -22.5650   -7.8340 N.am    1  UNL1       -0.3220
     20  C         17.7940  -23.6980   -7.0620 C.2     1  UNL1        0.2590
     21  O         18.4560  -24.6820   -7.3720 O.2     1  UNL1       -0.2670
     22  H         17.0700  -21.8220   -7.4110 H       1  UNL1        0.1690
     23  C         17.1250  -23.7070   -5.7220 C.2     1  UNL1        0.0700
     24  C         17.9180  -23.5180   -4.5790 C.2     1  UNL1        0.0200
     25  C         17.3460  -23.5180   -3.3030 C.2     1  UNL1        0.0010
     26  C         15.9740  -23.7070   -3.1530 C.2     1  UNL1        0.0030
     27  C         15.1740  -23.8950   -4.2790 C.2     1  UNL1        0.0430
     28  C         15.7510  -23.8940   -5.5490 C.2     1  UNL1        0.1320
     29  F         14.9390  -24.0760   -6.6030 F       1  UNL1       -0.2050
@<TRIPOS>BOND
     1    15    14    1
     2    18    17    1
     3    16    14    2
     4    16    12    1
     5    14    13    1
     6    17    12   ar
     7    17     8   ar
     8    12    10   ar
     9     2     3    1
    10     2     1    2
    11     3     4    2
    12    13    11    2
    13     8     1    1
    14     8     9   ar
    15    10    11    1
    16    10     9   ar
    17     1     7    1
    18     4     5    1
    19     4     6    1
    20     7     6    2
    21     6    19    1
    22    19    22    1
    23    19    20   am
    24    21    20    2
    25    20    23    1
    26    29    28    1
    27    23    28    2
    28    23    24    1
    29    28    27    1
    30    24    25    2
    31    27    26    2
    32    25    26    1
