@<TRIPOS>MOLECULE
62579_out_ligand_01.pdbqt
 29 32 0 0 0
SMALL
GASTEIGER

@<TRIPOS>ATOM
      1  C         20.7930  -22.0820  -11.1970 C.2     1  UNL1        0.0350
      2  C         20.2940  -23.0020  -10.2680 C.2     1  UNL1        0.0300
      3  C         18.9510  -22.9750   -9.8830 C.2     1  UNL1        0.0090
      4  C         18.0790  -22.0240  -10.4250 C.2     1  UNL1       -0.0580
      5  C         18.5740  -21.1100  -11.3600 C.2     1  UNL1        0.0090
      6  C         19.9220  -21.1380  -11.7410 C.2     1  UNL1        0.0300
      7  C         16.6360  -21.9630   -9.9740 C.3     1  UNL1        0.0460
      8  C         16.1630  -23.2490   -9.2900 C.3     1  UNL1        0.0830
      9  C         16.1950  -23.1490   -7.8010 C.ar    1  UNL1        0.1050
     10  N         15.3750  -22.4550   -7.0400 N.ar    1  UNL1       -0.2330
     11  C         15.7860  -22.6830   -5.7500 C.ar    1  UNL1        0.0850
     12  C         15.2650  -22.1970   -4.5430 C.2     1  UNL1        0.0340
     13  C         16.8830  -23.5360   -5.7210 C.ar    1  UNL1        0.0620
     14  C         15.8700  -22.5920   -3.3420 C.2     1  UNL1        0.0020
     15  C         16.9710  -23.4530   -3.3450 C.2     1  UNL1        0.0020
     16  C         17.5050  -23.9480   -4.5410 C.2     1  UNL1        0.0320
     17  N         17.1290  -23.8120   -7.0410 N.ar    1  UNL1       -0.3430
     18  H         17.8440  -24.4310   -7.3960 H       1  UNL1        0.1670
     19  N         22.1620  -22.1780  -11.5230 N.am    1  UNL1       -0.3230
     20  C         23.2410  -21.6880  -10.8090 C.2     1  UNL1        0.2590
     21  O         23.1770  -21.0930   -9.7380 O.2     1  UNL1       -0.2670
     22  H         22.3670  -22.6720  -12.3860 H       1  UNL1        0.1690
     23  C         24.5960  -21.9180  -11.4030 C.2     1  UNL1        0.0700
     24  C         24.9890  -21.1250  -12.4940 C.2     1  UNL1        0.0200
     25  C         26.2440  -21.2980  -13.0870 C.2     1  UNL1        0.0010
     26  C         27.1210  -22.2630  -12.5960 C.2     1  UNL1        0.0030
     27  C         26.7440  -23.0560  -11.5140 C.2     1  UNL1        0.0430
     28  C         25.4910  -22.8790  -10.9260 C.2     1  UNL1        0.1320
     29  F         25.1730  -23.6650   -9.8850 F       1  UNL1       -0.2050
@<TRIPOS>BOND
     1    25    26    2
     2    25    24    1
     3    26    27    1
     4    24    23    2
     5    22    19    1
     6     6     5    1
     7     6     1    2
     8    19     1    1
     9    19    20   am
    10    27    28    2
    11    23    28    1
    12    23    20    1
    13     5     4    2
    14     1     2    1
    15    28    29    1
    16    20    21    2
    17     4     7    1
    18     4     3    1
    19     2     3    2
    20     7     8    1
    21     8     9    1
    22     9    17   ar
    23     9    10   ar
    24    18    17    1
    25    17    13   ar
    26    10    11   ar
    27    11    13   ar
    28    11    12    1
    29    13    16    1
    30    12    14    2
    31    16    15    2
    32    15    14    1
