@<TRIPOS>MOLECULE
62571_out_ligand_01.pdbqt
 36 40 0 0 0
SMALL
GASTEIGER

@<TRIPOS>ATOM
      1  C         20.7270  -23.5860   -9.6030 C.3     1  UNL1        0.0620
      2  C         21.9390  -24.1260   -8.8300 C.3     1  UNL1        0.1160
      3  C         23.1350  -23.2020   -8.7620 C.2     1  UNL1        0.2160
      4  N         24.3310  -23.7580   -9.1180 N.am    1  UNL1       -0.3700
      5  H         24.4750  -24.7450   -8.9390 H       1  UNL1        0.1590
      6  H         25.1330  -23.1690   -8.9260 H       1  UNL1        0.1590
      7  O         23.0710  -22.0230   -8.4300 O.2     1  UNL1       -0.2740
      8  C         20.9410  -22.5900  -10.7390 C.2     1  UNL1       -0.0460
      9  C         20.0530  -21.5390  -11.0170 C.2     1  UNL1        0.0080
     10  C         20.2930  -20.6440  -12.0660 C.2     1  UNL1        0.0030
     11  C         21.4280  -20.7790  -12.8590 C.2     1  UNL1        0.0370
     12  C         22.3200  -21.8160  -12.5990 C.2     1  UNL1        0.0760
     13  C         22.1010  -22.6870  -11.5330 C.2     1  UNL1        0.0450
     14  O         23.4680  -21.9860  -13.3400 O.2     1  UNL1       -0.3110
     15  C         24.6210  -22.2540  -12.6340 C.2     1  UNL1        0.0760
     16  C         25.2270  -21.3350  -11.7720 C.2     1  UNL1        0.0370
     17  C         26.4100  -21.6790  -11.1120 C.2     1  UNL1        0.0030
     18  C         26.9890  -22.9290  -11.3220 C.2     1  UNL1        0.0000
     19  C         26.3970  -23.8340  -12.2040 C.2     1  UNL1        0.0030
     20  C         25.2170  -23.4940  -12.8650 C.2     1  UNL1        0.0370
     21  C         19.6360  -23.0270   -8.7080 C.2     1  UNL1       -0.0210
     22  C         19.8540  -22.4530   -7.4670 C.2     1  UNL1        0.1000
     23  N         18.6470  -22.0710   -6.9340 N.pl3   1  UNL1       -0.3510
     24  C         17.6280  -22.3600   -7.8180 C.2     1  UNL1        0.0450
     25  C         16.2410  -22.1440   -7.7310 C.2     1  UNL1        0.0300
     26  C         18.2150  -22.9610   -8.9360 C.2     1  UNL1       -0.0010
     27  C         15.4380  -22.5480   -8.7990 C.2     1  UNL1        0.0020
     28  C         15.9940  -23.1460   -9.9220 C.2     1  UNL1        0.0010
     29  C         17.3730  -23.3580   -9.9990 C.2     1  UNL1        0.0140
     30  C         18.4900  -21.5040   -5.5980 C.3     1  UNL1        0.1670
     31  C         17.5560  -22.3060   -4.7200 C.2     1  UNL1       -0.0400
     32  C         18.0480  -23.4230   -4.0300 C.2     1  UNL1        0.0090
     33  C         17.1980  -24.2090   -3.2490 C.2     1  UNL1        0.0010
     34  C         15.8460  -23.8930   -3.1530 C.2     1  UNL1        0.0000
     35  C         15.3400  -22.7950   -3.8430 C.2     1  UNL1        0.0010
     36  C         16.1870  -22.0110   -4.6290 C.2     1  UNL1        0.0090
@<TRIPOS>BOND
     1    14    15    1
     2    14    12    1
     3    20    15    2
     4    20    19    1
     5    11    12    2
     6    11    10    1
     7    15    16    1
     8    12    13    1
     9    19    18    2
    10    10     9    2
    11    16    17    2
    12    13     8    2
    13    18    17    1
    14     9     8    1
    15     8     1    1
    16    29    28    2
    17    29    26    1
    18    28    27    1
    19     1     2    1
    20     1    21    1
    21     4     5    1
    22     4     6    1
    23     4     3   am
    24    26    21    1
    25    26    24    2
    26     2     3    1
    27    27    25    2
    28     3     7    2
    29    21    22    2
    30    24    25    1
    31    24    23    1
    32    22    23    1
    33    23    30    1
    34    30    31    1
    35    31    36    2
    36    31    32    1
    37    36    35    1
    38    32    33    2
    39    35    34    2
    40    33    34    1
