@<TRIPOS>MOLECULE
62593_out_ligand_01.pdbqt
 36 40 0 0 0
SMALL
GASTEIGER

@<TRIPOS>ATOM
      1  C         15.5050  -22.5180   -9.8080 C.3     1  UNL1        0.1210
      2  C         16.8650  -22.1560  -10.3550 C.2     1  UNL1       -0.0480
      3  C         17.8420  -23.1440  -10.5490 C.2     1  UNL1        0.0090
      4  C         19.1010  -22.8090  -11.0580 C.2     1  UNL1        0.0170
      5  C         19.3960  -21.4800  -11.3810 C.2     1  UNL1        0.0320
      6  C         18.4170  -20.4950  -11.2170 C.2     1  UNL1        0.0170
      7  C         17.1630  -20.8300  -10.7030 C.2     1  UNL1        0.0090
      8  C         20.7300  -21.0750  -11.9050 C.2     1  UNL1        0.2520
      9  N         21.6430  -22.0950  -12.0740 N.am    1  UNL1       -0.3520
     10  H         21.4160  -23.0090  -11.7050 H       1  UNL1        0.1630
     11  O         20.9880  -19.8910  -12.0970 O.2     1  UNL1       -0.2680
     12  C         23.0220  -21.8340  -12.4710 C.3     1  UNL1        0.0840
     13  C         23.1290  -21.5440  -13.9680 C.3     1  UNL1        0.0250
     14  C         24.5570  -21.1770  -14.3860 C.3     1  UNL1        0.0060
     15  C         25.6410  -21.7290  -13.4430 C.3     1  UNL1       -0.0190
     16  C         26.9930  -21.8090  -14.1500 C.3     1  UNL1        0.0100
     17  C         25.2280  -23.0910  -12.8830 C.3     1  UNL1        0.0060
     18  C         23.9280  -23.0120  -12.0780 C.3     1  UNL1        0.0250
     19  S         15.4840  -24.1580   -9.0260 S.3     1  UNL1       -0.0870
     20  C         15.7750  -23.7220   -7.3750 C.ar    1  UNL1        0.1710
     21  N         14.9220  -23.0470   -6.6300 N.ar    1  UNL1       -0.2210
     22  C         15.5470  -22.9120   -5.4200 C.ar    1  UNL1        0.1050
     23  C         15.1250  -22.3050   -4.2300 C.2     1  UNL1        0.0370
     24  C         16.8060  -23.5050   -5.4410 C.ar    1  UNL1        0.1610
     25  C         16.0120  -22.3350   -3.1530 C.2     1  UNL1        0.0220
     26  C         17.2550  -22.9490   -3.3120 C.2     1  UNL1        0.1190
     27  N         17.7060  -23.5570   -4.4380 N.2     1  UNL1       -0.2410
     28  N         16.9150  -24.0620   -6.6910 N.ar    1  UNL1       -0.3040
     29  C         18.0180  -24.8910   -7.1290 C.3     1  UNL1        0.1710
     30  C         19.2070  -24.0650   -7.5530 C.2     1  UNL1       -0.0370
     31  C         19.3160  -22.7170   -7.1680 C.2     1  UNL1        0.0090
     32  C         20.4220  -21.9540   -7.5450 C.2     1  UNL1        0.0040
     33  C         21.4280  -22.5250   -8.3190 C.2     1  UNL1        0.0420
     34  C         21.3220  -23.8550   -8.7050 C.2     1  UNL1        0.1170
     35  F         22.2940  -24.4110   -9.4390 F       1  UNL1       -0.2060
     36  C         20.2250  -24.6250   -8.3340 C.2     1  UNL1        0.0510
@<TRIPOS>BOND
     1    14    13    1
     2    14    15    1
     3    16    15    1
     4    13    12    1
     5    15    17    1
     6    17    18    1
     7    12    18    1
     8    12     9    1
     9    11     8    2
    10     9     8   am
    11     9    10    1
    12     8     5    1
    13     5     6    2
    14     5     4    1
    15     6     7    1
    16     4     3    2
    17     7     2    2
    18     3     2    1
    19     2     1    1
    20     1    19    1
    21    35    34    1
    22    19    20    1
    23    34    36    1
    24    34    33    2
    25    36    30    2
    26    33    32    1
    27    30    31    1
    28    30    29    1
    29    32    31    2
    30    20    28   ar
    31    20    21   ar
    32    29    28    1
    33    28    24   ar
    34    21    22   ar
    35    24    22   ar
    36    24    27    1
    37    22    23    1
    38    27    26    2
    39    23    25    2
    40    26    25    1
