@<TRIPOS>MOLECULE
62594_out_ligand_01.pdbqt
 35 39 0 0 0
SMALL
GASTEIGER

@<TRIPOS>ATOM
      1  C         21.4920  -22.0920  -11.4670 C.ar    1  UNL1        0.1500
      2  O         21.9470  -23.1630  -10.7490 O.2     1  UNL1       -0.3040
      3  C         20.9660  -23.5250   -9.8880 C.ar    1  UNL1        0.0880
      4  C         21.0820  -24.5710   -8.9790 C.2     1  UNL1        0.0410
      5  C         19.9940  -24.7750   -8.1380 C.2     1  UNL1        0.0400
      6  C         18.8470  -23.9830   -8.2350 C.2     1  UNL1        0.0790
      7  C         18.7090  -22.9710   -9.2130 C.2     1  UNL1        0.0180
      8  C         19.8470  -22.7120  -10.0340 C.ar    1  UNL1        0.0180
      9  C         20.2100  -21.7560  -11.0500 C.ar    1  UNL1       -0.0090
     10  C         19.4000  -20.6220  -11.5630 C.3     1  UNL1        0.0520
     11  C         17.4150  -22.1980   -9.2870 C.3     1  UNL1        0.1570
     12  C         16.3120  -22.8550   -8.4630 C.3     1  UNL1        0.0750
     13  C         16.8330  -23.3140   -7.0930 C.3     1  UNL1        0.0700
     14  C         15.7210  -24.1160   -6.3720 C.3     1  UNL1        0.0380
     15  C         14.7060  -23.3010   -5.5730 C.3     1  UNL1        0.0030
     16  C         15.1470  -23.0780   -4.1260 C.3     1  UNL1        0.0000
     17  C         16.3060  -22.1020   -3.9420 C.3     1  UNL1        0.0000
     18  C         17.5570  -22.4130   -4.7630 C.3     1  UNL1        0.0030
     19  C         17.3640  -22.1260   -6.2540 C.3     1  UNL1        0.0380
     20  O         17.8890  -24.2770   -7.2970 O.2     1  UNL1       -0.3390
     21  C         22.3740  -21.5250  -12.4730 C.2     1  UNL1        0.2760
     22  N         23.7060  -21.5670  -12.1210 N.am    1  UNL1       -0.3510
     23  H         23.9310  -22.1100  -11.2990 H       1  UNL1        0.1630
     24  O         21.9880  -21.0560  -13.5410 O.2     1  UNL1       -0.2650
     25  C         24.7610  -21.2200  -13.0390 C.3     1  UNL1        0.1610
     26  C         25.1130  -22.3900  -13.9230 C.2     1  UNL1       -0.0380
     27  C         25.4240  -23.6390  -13.3650 C.2     1  UNL1        0.0090
     28  C         25.7220  -24.7230  -14.1900 C.2     1  UNL1        0.0030
     29  C         25.6980  -24.5690  -15.5780 C.2     1  UNL1        0.0370
     30  C         25.3750  -23.3350  -16.1520 C.2     1  UNL1        0.0680
     31  C         25.0810  -22.2510  -15.3220 C.2     1  UNL1        0.0450
     32  O         25.3630  -23.3240  -17.5210 O.2     1  UNL1       -0.3560
     33  C         24.0860  -23.3220  -18.1530 C.3     1  UNL1        0.2100
     34  O         16.9630  -22.1290  -10.6390 O.3     1  UNL1       -0.3910
     35  H         17.6290  -21.6380  -11.1460 H       1  UNL1        0.2100
@<TRIPOS>BOND
     1    33    32    1
     2    32    30    1
     3    30    29    2
     4    30    31    1
     5    29    28    1
     6    31    26    2
     7    28    27    2
     8    26    27    1
     9    26    25    1
    10    24    21    2
    11    25    22    1
    12    21    22   am
    13    21     1    1
    14    22    23    1
    15    10     9    1
    16     1     9   ar
    17     1     2   ar
    18    35    34    1
    19     9     8   ar
    20     2     3   ar
    21    34    11    1
    22     8     3   ar
    23     8     7    1
    24     3     4    1
    25    11     7    1
    26    11    12    1
    27     7     6    2
    28     4     5    2
    29    12    13    1
    30     6     5    1
    31     6    20    1
    32    20    13    1
    33    13    14    1
    34    13    19    1
    35    14    15    1
    36    19    18    1
    37    15    16    1
    38    18    17    1
    39    16    17    1
