@<TRIPOS>MOLECULE
6259_out_ligand_01.pdbqt
 33 35 0 0 0
SMALL
GASTEIGER

@<TRIPOS>ATOM
      1  C         21.9080  -22.7600   -9.5650 C.2     1  UNL1        0.1790
      2  S         22.8000  -21.7990   -8.5290 S.2     1  UNL1       -0.0400
      3  N         22.5990  -23.4320  -10.5430 N.am    1  UNL1       -0.3330
      4  H         22.6610  -24.4310  -10.3610 H       1  UNL1        0.1680
      5  C         23.3180  -22.9700  -11.6640 C.2     1  UNL1        0.0340
      6  C         22.6870  -22.0170  -12.4740 C.2     1  UNL1        0.0310
      7  C         23.3230  -21.5120  -13.6090 C.2     1  UNL1        0.0270
      8  C         24.5860  -21.9890  -13.9620 C.2     1  UNL1        0.0800
      9  C         25.2220  -22.9510  -13.1730 C.2     1  UNL1        0.0270
     10  C         24.5800  -23.4480  -12.0340 C.2     1  UNL1        0.0310
     11  S         25.4160  -21.3280  -15.3840 S.O2    1  UNL1        0.2650
     12  O         26.6970  -21.9990  -15.4820 O.2     1  UNL1       -0.2000
     13  O         25.3380  -19.8860  -15.3530 O.2     1  UNL1       -0.2000
     14  N         24.5230  -21.9060  -16.6580 N.am    1  UNL1       -0.2510
     15  C         24.4160  -23.2510  -17.0260 C.2     1  UNL1        0.2270
     16  C         23.4540  -23.5020  -18.1520 C.3     1  UNL1        0.1180
     17  O         25.0630  -24.1470  -16.5050 O.2     1  UNL1       -0.2730
     18  H         24.0020  -21.1820  -17.1420 H       1  UNL1        0.1810
     19  N         20.5570  -23.0190   -9.4900 N.am    1  UNL1       -0.2990
     20  C         19.4860  -22.2100   -9.8580 C.2     1  UNL1        0.2580
     21  O         19.4800  -21.3610  -10.7380 O.2     1  UNL1       -0.2670
     22  H         20.3350  -23.7610   -8.8400 H       1  UNL1        0.1710
     23  C         18.2220  -22.5650   -9.1670 C.2     1  UNL1        0.0430
     24  C         17.1870  -23.0560   -9.9720 C.2     1  UNL1        0.0180
     25  C         15.9690  -23.3790   -9.3950 C.2     1  UNL1        0.0020
     26  C         15.7880  -23.2090   -8.0220 C.2     1  UNL1        0.0130
     27  C         16.8160  -22.7180   -7.1770 C.2     1  UNL1       -0.0070
     28  C         16.6610  -22.5340   -5.7770 C.2     1  UNL1        0.0220
     29  C         18.0680  -22.3930   -7.7660 C.2     1  UNL1       -0.0090
     30 BR         15.0330  -22.9280   -4.8630 Br      1  UNL1       -0.0500
     31  C         17.7030  -22.0440   -4.9830 C.2     1  UNL1        0.0200
     32  C         18.9240  -21.7280   -5.5610 C.2     1  UNL1        0.0020
     33  C         19.1010  -21.8990   -6.9330 C.2     1  UNL1        0.0130
@<TRIPOS>BOND
     1    16    15    1
     2    18    14    1
     3    15    14   am
     4    15    17    2
     5    14    11    1
     6    12    11    2
     7    11    13    2
     8    11     8    1
     9     8     7    2
    10     8     9    1
    11     7     6    1
    12     9    10    2
    13     6     5    2
    14    10     5    1
    15     5     3    1
    16    21    20    2
    17     3     4    1
    18     3     1    1
    19    24    25    1
    20    24    23    2
    21    20    19   am
    22    20    23    1
    23     1    19    1
    24     1     2    2
    25    19    22    1
    26    25    26    2
    27    23    29    1
    28    26    27    1
    29    29    27    2
    30    29    33    1
    31    27    28    1
    32    33    32    2
    33    28    31    2
    34    28    30    1
    35    32    31    1
