@<TRIPOS>MOLECULE
625_out_ligand_01.pdbqt
 33 36 0 0 0
SMALL
GASTEIGER

@<TRIPOS>ATOM
      1  C         21.2550  -22.2520  -10.4230 C.2     1  UNL1        0.0320
      2  C         19.9010  -22.1170  -10.7300 C.2     1  UNL1        0.0190
      3  C         18.9320  -22.2510   -9.7220 C.2     1  UNL1        0.0310
      4  C         19.2790  -22.5280   -8.3880 C.2     1  UNL1        0.0460
      5  C         20.6470  -22.6800   -8.1110 C.2     1  UNL1        0.0310
      6  C         21.6220  -22.5500   -9.1120 C.2     1  UNL1        0.0190
      7  C         22.3200  -22.1200  -11.4570 C.2     1  UNL1        0.2560
      8  N         23.5150  -22.7450  -11.1480 N.am    1  UNL1       -0.3230
      9  H         23.5240  -23.3380  -10.3290 H       1  UNL1        0.1690
     10  O         22.0530  -21.5190  -12.4910 O.2     1  UNL1       -0.2670
     11  C         24.7000  -22.7400  -11.9120 C.2     1  UNL1        0.0360
     12  C         25.6270  -21.7200  -11.6500 C.2     1  UNL1        0.0290
     13  C         26.8290  -21.6380  -12.3620 C.2     1  UNL1        0.0040
     14  C         27.1170  -22.5750  -13.3480 C.2     1  UNL1        0.0250
     15  C         26.1940  -23.5880  -13.6140 C.2     1  UNL1        0.0760
     16  C         24.9870  -23.6720  -12.9090 C.2     1  UNL1        0.0540
     17  S         26.5290  -24.7810  -14.8750 S.O2    1  UNL1        0.2390
     18  O         27.1210  -24.1120  -16.0080 O.2     1  UNL1       -0.2060
     19  O         27.1210  -25.9550  -14.2720 O.2     1  UNL1       -0.2060
     20  N         24.9880  -25.2510  -15.3420 N.3     1  UNL1       -0.2250
     21  H         24.7020  -26.0810  -14.8240 H       1  UNL1        0.1360
     22  H         24.9440  -25.3520  -16.3560 H       1  UNL1        0.1360
     23  N         18.2850  -22.6580   -7.3640 N.am    1  UNL1       -0.2440
     24  C         17.1170  -23.3900   -7.4790 C.2     1  UNL1        0.2660
     25  O         16.6520  -24.0480   -8.3930 O.2     1  UNL1       -0.2670
     26  C         16.3970  -23.2600   -6.2180 C.2     1  UNL1        0.0480
     27  C         15.1870  -23.7990   -5.8180 C.2     1  UNL1        0.0180
     28  C         17.1410  -22.4530   -5.3910 C.2     1  UNL1        0.0480
     29  C         14.7420  -23.4910   -4.5290 C.2     1  UNL1        0.0010
     30  C         15.5070  -22.6640   -3.6820 C.2     1  UNL1        0.0010
     31  C         16.7260  -22.1320   -4.1120 C.2     1  UNL1        0.0180
     32  C         18.3440  -22.0620   -6.1190 C.2     1  UNL1        0.2660
     33  O         19.1710  -21.3330   -5.5990 O.2     1  UNL1       -0.2670
@<TRIPOS>BOND
     1    22    20    1
     2    18    17    2
     3    20    17    1
     4    20    21    1
     5    17    19    2
     6    17    15    1
     7    15    14    2
     8    15    16    1
     9    14    13    1
    10    16    11    2
    11    10     7    2
    12    13    12    2
    13    11    12    1
    14    11     8    1
    15     7     8   am
    16     7     1    1
    17     8     9    1
    18     2     1    2
    19     2     3    1
    20     1     6    1
    21     3     4    2
    22     6     5    2
    23    25    24    2
    24     4     5    1
    25     4    23    1
    26    24    23   am
    27    24    26    1
    28    23    32   am
    29    26    27    2
    30    26    28    1
    31    32    33    2
    32    32    28    1
    33    27    29    1
    34    28    31    2
    35    29    30    2
    36    31    30    1
