@<TRIPOS>MOLECULE
62609_out_ligand_01.pdbqt
 35 37 0 0 0
SMALL
GASTEIGER

@<TRIPOS>ATOM
      1  C         25.3600  -20.3270  -17.1880 C.3     1  UNL1        0.0500
      2  C         25.3860  -20.9230  -15.8050 C.2     1  UNL1       -0.0340
      3  C         25.8470  -20.0320  -14.7540 C.2     1  UNL1        0.0330
      4  C         25.8760  -20.4100  -13.4640 C.2     1  UNL1        0.0120
      5  C         26.3730  -19.4590  -12.4080 C.3     1  UNL1        0.0680
      6  N         25.4680  -21.7000  -13.1140 N.am    1  UNL1       -0.3080
      7  C         25.0990  -22.6450  -14.0790 C.2     1  UNL1        0.2690
      8  O         24.8760  -23.8250  -13.7900 O.2     1  UNL1       -0.2660
      9  C         25.0240  -22.1850  -15.4970 C.2     1  UNL1        0.1180
     10  C         24.5680  -23.1220  -16.4670 C.1     1  UNL1        0.1050
     11  N         24.1840  -23.8610  -17.2820 N.1     1  UNL1       -0.1910
     12  C         25.4640  -22.1540  -11.7140 C.3     1  UNL1        0.2350
     13  C         24.1530  -21.8030  -11.0000 C.2     1  UNL1        0.2400
     14  O         24.1480  -21.0490  -10.0270 O.2     1  UNL1       -0.2710
     15  N         23.0470  -22.3990  -11.5910 N.am    1  UNL1       -0.3260
     16  H         23.2440  -22.9890  -12.3950 H       1  UNL1        0.1690
     17  C         21.7080  -22.3580  -11.1620 C.2     1  UNL1        0.0340
     18  C         21.2230  -23.0490  -10.0530 C.2     1  UNL1        0.0300
     19  C         19.8660  -22.9770   -9.7160 C.2     1  UNL1        0.0190
     20  C         18.9800  -22.2310  -10.4980 C.2     1  UNL1        0.0320
     21  C         19.4660  -21.5170  -11.5970 C.2     1  UNL1        0.0190
     22  C         20.8240  -21.5770  -11.9220 C.2     1  UNL1        0.0300
     23  C         17.5380  -22.2220  -10.1260 C.2     1  UNL1        0.2510
     24  O         16.8080  -21.3060  -10.4990 O.2     1  UNL1       -0.2680
     25  N         17.1190  -23.2580   -9.3140 N.am    1  UNL1       -0.3530
     26  H         17.8090  -23.8530   -8.8800 H       1  UNL1        0.1630
     27  C         15.7900  -23.2760   -8.7420 C.3     1  UNL1        0.1630
     28  C         15.8480  -23.1260   -7.2430 C.2     1  UNL1       -0.0190
     29  C         14.8750  -22.3260   -6.6100 C.2     1  UNL1        0.0130
     30  C         14.9030  -22.1260   -5.2290 C.2     1  UNL1        0.0430
     31  C         15.9090  -22.7120   -4.4780 C.2     1  UNL1        0.1180
     32  F         15.9600  -22.5000   -3.1530 F       1  UNL1       -0.2060
     33  C         16.8930  -23.4920   -5.0750 C.2     1  UNL1        0.0660
     34  C         16.8630  -23.6990   -6.4530 C.2     1  UNL1        0.0440
     35 CL         18.1300  -24.6620   -7.1390 Cl      1  UNL1       -0.0840
@<TRIPOS>BOND
     1    11    10    3
     2     1     2    1
     3    10     9    1
     4     2     9    2
     5     2     3    1
     6     9     7    1
     7     3     4    2
     8     7     8    2
     9     7     6   am
    10     4     6    1
    11     4     5    1
    12     6    12    1
    13    16    15    1
    14    22    21    1
    15    22    17    2
    16    12    13    1
    17    21    20    2
    18    15    17    1
    19    15    13   am
    20    17    18    1
    21    13    14    2
    22    24    23    2
    23    20    23    1
    24    20    19    1
    25    23    25   am
    26    18    19    2
    27    25    26    1
    28    25    27    1
    29    27    28    1
    30    28    29    2
    31    28    34    1
    32    35    34    1
    33    29    30    1
    34    34    33    2
    35    30    31    2
    36    33    31    1
    37    31    32    1
