@<TRIPOS>MOLECULE
62603_out_ligand_01.pdbqt
 36 40 0 0 0
SMALL
GASTEIGER

@<TRIPOS>ATOM
      1  C         22.8880  -21.9350  -12.2370 C.2     1  UNL1        0.0170
      2  C         21.5020  -21.7160  -12.2210 C.2     1  UNL1        0.0170
      3  C         20.6950  -22.2870  -11.2280 C.2     1  UNL1        0.0180
      4  C         21.2670  -23.0900  -10.2360 C.2     1  UNL1        0.0320
      5  C         22.6500  -23.3000  -10.2320 C.2     1  UNL1        0.0180
      6  C         23.4510  -22.7320  -11.2290 C.2     1  UNL1        0.0170
      7  C         23.7510  -21.3570  -13.2640 C.ar    1  UNL1        0.1800
      8  O         24.9090  -20.7590  -12.8390 O.2     1  UNL1       -0.2940
      9  C         25.5030  -20.3090  -13.9840 C.ar    1  UNL1        0.0770
     10  C         26.7900  -19.6060  -13.8340 C.3     1  UNL1        0.0790
     11  C         24.6820  -20.6380  -15.0440 C.ar    1  UNL1        0.0810
     12  N         23.5800  -21.3180  -14.5720 N.ar    1  UNL1       -0.2250
     13  C         24.8420  -20.3760  -16.4910 C.3     1  UNL1        0.2070
     14  S         25.2500  -21.8350  -17.4270 S.O2    1  UNL1        0.1810
     15  O         24.0690  -22.2720  -18.1530 O.2     1  UNL1       -0.2220
     16  O         26.4810  -21.5700  -18.1530 O.2     1  UNL1       -0.2220
     17  C         25.6260  -23.0710  -16.2050 C.2     1  UNL1        0.0590
     18  C         24.7460  -24.1370  -16.0010 C.2     1  UNL1        0.0230
     19  C         25.0530  -25.1040  -15.0430 C.2     1  UNL1        0.0020
     20  C         26.2370  -25.0090  -14.3070 C.2     1  UNL1        0.0000
     21  C         27.1210  -23.9520  -14.5300 C.2     1  UNL1        0.0020
     22  C         26.8210  -22.9790  -15.4840 C.2     1  UNL1        0.0230
     23  C         20.4520  -23.7190   -9.1600 C.2     1  UNL1        0.2520
     24  O         20.6890  -24.8650   -8.7980 O.2     1  UNL1       -0.2680
     25  N         19.4250  -22.9530   -8.6510 N.am    1  UNL1       -0.3480
     26  H         19.1180  -22.1470   -9.1780 H       1  UNL1        0.1630
     27  C         18.4600  -23.5150   -7.7140 C.3     1  UNL1        0.1180
     28  C         17.1070  -23.6950   -8.4310 C.3     1  UNL1        0.0300
     29  C         15.9040  -23.9610   -7.5180 C.3     1  UNL1        0.0070
     30  C         16.2340  -24.0150   -6.0300 C.3     1  UNL1        0.0390
     31  C         17.1810  -22.9110   -5.6440 C.2     1  UNL1       -0.0500
     32  C         17.0020  -22.1890   -4.4580 C.2     1  UNL1        0.0070
     33  C         18.3020  -22.6660   -6.4630 C.2     1  UNL1       -0.0290
     34  C         17.9330  -21.2220   -4.0810 C.2     1  UNL1        0.0010
     35  C         19.0560  -20.9930   -4.8700 C.2     1  UNL1        0.0010
     36  C         19.2470  -21.7170   -6.0480 C.2     1  UNL1        0.0100
@<TRIPOS>BOND
     1    15    14    2
     2    16    14    2
     3    14    13    1
     4    14    17    1
     5    13    11    1
     6    17    18    2
     7    17    22    1
     8    18    19    1
     9    22    21    2
    10    11    12   ar
    11    11     9   ar
    12    19    20    2
    13    12     7   ar
    14    21    20    1
    15     9    10    1
    16     9     8   ar
    17     7     8   ar
    18     7     1    1
    19     1     2    2
    20     1     6    1
    21     2     3    1
    22     6     5    2
    23     3     4    2
    24     4     5    1
    25     4    23    1
    26    26    25    1
    27    23    24    2
    28    23    25   am
    29    25    27    1
    30    28    27    1
    31    28    29    1
    32    27    33    1
    33    29    30    1
    34    33    36    1
    35    33    31    2
    36    36    35    2
    37    30    31    1
    38    31    32    1
    39    35    34    1
    40    32    34    2
