@<TRIPOS>MOLECULE
62613_out_ligand_01.pdbqt
 35 38 0 0 0
SMALL
GASTEIGER

@<TRIPOS>ATOM
      1  C         23.1330  -21.9690  -12.2270 C.2     1  UNL1        0.0340
      2  C         23.2210  -22.8740  -11.1640 C.2     1  UNL1        0.0190
      3  C         22.0870  -23.1880  -10.4090 C.2     1  UNL1        0.0270
      4  C         20.8510  -22.5950  -10.6920 C.2     1  UNL1        0.0360
      5  C         20.7700  -21.7140  -11.7820 C.2     1  UNL1        0.0570
      6  C         21.8970  -21.3990  -12.5480 C.2     1  UNL1        0.0480
      7  N         19.5500  -21.1200  -12.1080 N.am    1  UNL1       -0.3240
      8  C         18.4050  -21.3180  -11.3910 C.2     1  UNL1        0.2410
      9  O         17.3810  -20.6920  -11.6710 O.2     1  UNL1       -0.2710
     10  C         18.4670  -22.2620  -10.1850 C.3     1  UNL1        0.1660
     11  N         19.7180  -23.0190   -9.9820 N.pl3   1  UNL1       -0.2770
     12  H         19.4660  -20.5000  -12.9010 H       1  UNL1        0.1690
     13  H         19.9410  -23.1780   -8.9990 H       1  UNL1        0.1280
     14  C         17.2700  -23.1940  -10.1540 C.3     1  UNL1        0.1700
     15  S         16.5510  -23.4600   -8.5430 S.O2    1  UNL1        0.1500
     16  O         15.5540  -24.5090   -8.6330 O.2     1  UNL1       -0.2280
     17  O         16.1750  -22.1350   -8.0750 O.2     1  UNL1       -0.2280
     18  C         17.9050  -24.0420   -7.5200 C.3     1  UNL1        0.1780
     19  C         18.0900  -23.1070   -6.3500 C.2     1  UNL1       -0.0440
     20  C         18.9080  -21.9720   -6.4720 C.2     1  UNL1        0.0110
     21  C         19.0800  -21.1060   -5.3920 C.2     1  UNL1        0.0430
     22  C         18.4380  -21.3720   -4.1900 C.2     1  UNL1        0.1160
     23  F         18.6020  -20.5390   -3.1540 F       1  UNL1       -0.2060
     24  C         17.6290  -22.4920   -4.0450 C.2     1  UNL1        0.0430
     25  C         17.4550  -23.3620   -5.1230 C.2     1  UNL1        0.0110
     26  C         24.3660  -21.6740  -13.0080 C.2     1  UNL1        0.2520
     27  O         25.4640  -21.7670  -12.4730 O.2     1  UNL1       -0.2680
     28  N         24.1800  -21.2710  -14.3170 N.am    1  UNL1       -0.3520
     29  H         23.2590  -20.9620  -14.5940 H       1  UNL1        0.1630
     30  C         25.3020  -20.8350  -15.1370 C.3     1  UNL1        0.0840
     31  C         24.9970  -21.0680  -16.6260 C.3     1  UNL1        0.0250
     32  C         25.7680  -20.1370  -17.5640 C.3     1  UNL1        0.0020
     33  C         27.0900  -19.6820  -16.9600 C.3     1  UNL1        0.0000
     34  C         26.8820  -18.9180  -15.6520 C.3     1  UNL1        0.0020
     35  C         25.6460  -19.3670  -14.8680 C.3     1  UNL1        0.0250
@<TRIPOS>BOND
     1    32    33    1
     2    32    31    1
     3    33    34    1
     4    31    30    1
     5    34    35    1
     6    30    35    1
     7    30    28    1
     8    29    28    1
     9    28    26   am
    10    26    27    2
    11    26     1    1
    12    12     7    1
    13     6     1    2
    14     6     5    1
    15     1     2    1
    16     7     5    1
    17     7     8   am
    18     5     4    2
    19     9     8    2
    20     8    10    1
    21     2     3    2
    22     4     3    1
    23     4    11    1
    24    10    14    1
    25    10    11    1
    26    14    15    1
    27    11    13    1
    28    16    15    2
    29    15    17    2
    30    15    18    1
    31    18    19    1
    32    20    19    2
    33    20    21    1
    34    19    25    1
    35    21    22    2
    36    25    24    2
    37    22    24    1
    38    22    23    1
