@<TRIPOS>MOLECULE
6261_out_ligand_01.pdbqt
 35 38 0 0 0
SMALL
GASTEIGER

@<TRIPOS>ATOM
      1  C         21.0570  -22.5620  -10.8110 C.2     1  UNL1        0.0340
      2  C         20.0190  -21.7340  -11.2440 C.2     1  UNL1        0.0310
      3  C         18.7340  -21.8640  -10.7070 C.2     1  UNL1        0.0270
      4  C         18.4900  -22.8180   -9.7180 C.2     1  UNL1        0.0800
      5  C         19.5130  -23.6640   -9.2850 C.2     1  UNL1        0.0270
      6  C         20.7920  -23.5310   -9.8310 C.2     1  UNL1        0.0310
      7  S         16.8550  -23.0050   -9.0530 S.O2    1  UNL1        0.2630
      8  O         16.0890  -23.7770  -10.0100 O.2     1  UNL1       -0.2000
      9  O         16.3880  -21.7150   -8.5970 O.2     1  UNL1       -0.2000
     10  N         17.1070  -24.0320   -7.7350 N.pl3   1  UNL1       -0.2800
     11  H         16.9060  -25.0000   -7.9760 H       1  UNL1        0.1790
     12  C         16.6940  -23.5840   -6.4420 C.2     1  UNL1        0.0530
     13  C         15.5200  -24.1310   -5.9180 C.2     1  UNL1        0.0310
     14  C         15.0720  -23.7460   -4.6590 C.2     1  UNL1        0.0030
     15  C         15.7970  -22.8140   -3.9210 C.2     1  UNL1        0.0120
     16  C         16.9820  -22.2530   -4.4260 C.2     1  UNL1       -0.0240
     17  C         17.7020  -21.3150   -3.6680 C.2     1  UNL1        0.0120
     18  C         17.4560  -22.6400   -5.7050 C.2     1  UNL1        0.0010
     19  C         18.8840  -20.7560   -4.1520 C.2     1  UNL1        0.0010
     20  C         19.3650  -21.1310   -5.4000 C.2     1  UNL1        0.0010
     21  C         18.6600  -22.0600   -6.1680 C.2     1  UNL1        0.0140
     22  N         22.3690  -22.5020  -11.3130 N.am    1  UNL1       -0.3250
     23  C         23.4620  -21.8510  -10.7660 C.2     1  UNL1        0.2510
     24  O         23.4890  -21.2240   -9.7110 O.2     1  UNL1       -0.2700
     25  H         22.5710  -23.0580  -12.1390 H       1  UNL1        0.1690
     26  C         24.7150  -21.9450  -11.6570 C.3     1  UNL1        0.2170
     27  C         25.9460  -21.7510  -10.7780 C.3     1  UNL1        0.0500
     28  O         24.7590  -20.9260  -12.6590 O.2     1  UNL1       -0.3370
     29  C         24.7850  -21.3070  -13.9730 C.2     1  UNL1        0.0700
     30  C         24.7740  -20.4580  -15.0800 C.2     1  UNL1        0.0380
     31  C         24.8250  -20.9920  -16.3740 C.2     1  UNL1        0.0260
     32  C         24.8860  -22.3720  -16.5580 C.2     1  UNL1        0.0340
     33 CL         24.9490  -23.0230  -18.1490 Cl      1  UNL1       -0.0840
     34  C         24.8980  -23.2250  -15.4590 C.2     1  UNL1        0.0260
     35  C         24.8490  -22.6910  -14.1700 C.2     1  UNL1        0.0380
@<TRIPOS>BOND
     1    33    32    1
     2    32    31    2
     3    32    34    1
     4    31    30    1
     5    34    35    2
     6    30    29    2
     7    35    29    1
     8    29    28    1
     9    28    26    1
    10    25    22    1
    11    26    27    1
    12    26    23    1
    13    22     1    1
    14    22    23   am
    15     2     1    2
    16     2     3    1
    17     1     6    1
    18    23    24    2
    19     3     4    2
    20     8     7    2
    21     6     5    2
    22     4     5    1
    23     4     7    1
    24     7     9    2
    25     7    10    1
    26    11    10    1
    27    10    12    1
    28    12    13    2
    29    12    18    1
    30    21    18    1
    31    21    20    2
    32    13    14    1
    33    18    16    2
    34    20    19    1
    35    14    15    2
    36    16    15    1
    37    16    17    1
    38    19    17    2
