@<TRIPOS>MOLECULE
62615_out_ligand_01.pdbqt
 29 32 0 0 0
SMALL
GASTEIGER

@<TRIPOS>ATOM
      1  C         22.6700  -23.0210   -8.9730 C.2     1  UNL1       -0.0580
      2  C         22.3550  -21.9580   -8.1170 C.2     1  UNL1        0.0090
      3  C         21.1350  -21.9360   -7.4340 C.2     1  UNL1        0.0300
      4  C         20.2020  -22.9690   -7.5980 C.2     1  UNL1        0.0350
      5  C         20.5150  -24.0270   -8.4520 C.2     1  UNL1        0.0300
      6  C         21.7380  -24.0540   -9.1340 C.2     1  UNL1        0.0090
      7  C         23.9900  -23.0560   -9.7110 C.3     1  UNL1        0.0460
      8  C         24.2080  -21.8620  -10.6440 C.3     1  UNL1        0.0830
      9  C         24.3740  -22.2600  -12.0750 C.ar    1  UNL1        0.1050
     10  N         24.8210  -23.5070  -12.4510 N.ar    1  UNL1       -0.3430
     11  C         24.9310  -23.5310  -13.8170 C.ar    1  UNL1        0.0620
     12  H         25.0530  -24.2630  -11.8240 H       1  UNL1        0.1670
     13  C         25.3650  -24.5110  -14.7090 C.2     1  UNL1        0.0320
     14  C         24.5020  -22.2710  -14.2170 C.ar    1  UNL1        0.0860
     15  C         25.3550  -24.1720  -16.0700 C.2     1  UNL1        0.0090
     16  C         24.9120  -22.9190  -16.5150 C.2     1  UNL1       -0.0600
     17  C         24.9370  -22.5930  -17.9840 C.3     1  UNL1        0.0480
     18  C         24.4900  -21.9540  -15.5830 C.2     1  UNL1        0.0400
     19  N         24.1550  -21.5030  -13.1310 N.ar    1  UNL1       -0.2330
     20  N         18.9850  -22.8550   -6.8910 N.am    1  UNL1       -0.3230
     21  C         17.7310  -22.5890   -7.4140 C.2     1  UNL1        0.2560
     22  O         17.4350  -22.4910   -8.5990 O.2     1  UNL1       -0.2670
     23  H         19.0450  -23.0130   -5.8930 H       1  UNL1        0.1690
     24  C         16.6460  -22.4340   -6.4000 C.2     1  UNL1        0.0320
     25  C         16.9970  -22.4460   -5.0450 C.2     1  UNL1        0.0170
     26  C         16.0100  -22.3240   -4.0630 C.2     1  UNL1        0.0010
     27  C         14.6680  -22.1970   -4.4330 C.2     1  UNL1        0.0000
     28  C         14.3090  -22.2000   -5.7820 C.2     1  UNL1        0.0010
     29  C         15.2930  -22.3240   -6.7660 C.2     1  UNL1        0.0170
@<TRIPOS>BOND
     1    17    16    1
     2    16    15    2
     3    16    18    1
     4    15    13    1
     5    18    14    2
     6    13    11    2
     7    14    11   ar
     8    14    19   ar
     9    11    10   ar
    10    19     9   ar
    11    10     9   ar
    12    10    12    1
    13     9     8    1
    14     8     7    1
    15     7     1    1
    16     6     1    2
    17     6     5    1
    18     1     2    1
    19    22    21    2
    20     5     4    2
    21     2     3    2
    22     4     3    1
    23     4    20    1
    24    21    20   am
    25    21    24    1
    26    20    23    1
    27    29    24    2
    28    29    28    1
    29    24    25    1
    30    28    27    2
    31    25    26    2
    32    27    26    1
