@<TRIPOS>MOLECULE
62648_out_ligand_01.pdbqt
 31 34 0 0 0
SMALL
GASTEIGER

@<TRIPOS>ATOM
      1  N         15.5230  -22.4620   -9.9270 N.1     1  UNL1       -0.1910
      2  C         15.8890  -22.8130   -8.8830 C.1     1  UNL1        0.1020
      3  C         16.3410  -23.2400   -7.5900 C.2     1  UNL1        0.0740
      4  C         15.4960  -23.0480   -6.4860 C.2     1  UNL1        0.0640
      5  C         15.9580  -23.4350   -5.2480 C.2     1  UNL1        0.1060
      6  C         17.2040  -23.9900   -5.0790 C.2     1  UNL1        0.1070
      7  C         18.0600  -24.1950   -6.1390 C.2     1  UNL1        0.0710
      8  C         17.6170  -23.8300   -7.4160 C.2     1  UNL1        0.0660
      9  O         17.4640  -24.2920   -3.7780 O.2     1  UNL1       -0.3230
     10  C         16.2230  -23.9030   -3.1530 C.3     1  UNL1        0.3520
     11  O         15.2800  -23.3170   -4.0760 O.2     1  UNL1       -0.3230
     12  N         18.4880  -24.0300   -8.5300 N.pl3   1  UNL1       -0.2790
     13  H         18.0990  -23.9780   -9.4720 H       1  UNL1        0.1790
     14  S         20.0720  -23.4520   -8.4550 S.O2    1  UNL1        0.2630
     15  O         20.1050  -22.5260   -7.3410 O.2     1  UNL1       -0.2000
     16  O         21.0000  -24.5570   -8.5330 O.2     1  UNL1       -0.2000
     17  C         20.2030  -22.5060   -9.9490 C.2     1  UNL1        0.0800
     18  C         19.1180  -21.7450  -10.3930 C.2     1  UNL1        0.0250
     19  C         19.2210  -21.0350  -11.5890 C.2     1  UNL1        0.0030
     20  C         20.4040  -21.0790  -12.3340 C.2     1  UNL1        0.0170
     21  C         21.5000  -21.8200  -11.8670 C.2     1  UNL1        0.0330
     22  C         21.4010  -22.5300  -10.6660 C.2     1  UNL1        0.0420
     23  C         22.7640  -21.9330  -12.6450 C.2     1  UNL1        0.2570
     24  O         23.6700  -22.6010  -12.1660 O.2     1  UNL1       -0.2670
     25  N         22.7810  -21.2320  -13.8270 N.am    1  UNL1       -0.3000
     26  H         22.0200  -20.6270  -14.0910 H       1  UNL1        0.1710
     27  C         23.8660  -21.2510  -14.6600 C.2     1  UNL1        0.1960
     28  N         24.1210  -21.9850  -15.7160 N.2     1  UNL1       -0.1240
     29  N         25.3480  -21.6740  -16.2760 N.2     1  UNL1       -0.1530
     30  C         25.9570  -20.7150  -15.6100 C.2     1  UNL1        0.1940
     31  S         25.0840  -20.1210  -14.2580 S.3     1  UNL1       -0.0410
@<TRIPOS>BOND
     1    29    28    1
     2    29    30    2
     3    28    27    2
     4    30    31    1
     5    27    31    1
     6    27    25    1
     7    26    25    1
     8    25    23   am
     9    23    24    2
    10    23    21    1
    11    20    21    2
    12    20    19    1
    13    21    22    1
    14    19    18    2
    15    22    17    2
    16    18    17    1
    17    17    14    1
    18     1     2    3
    19    13    12    1
    20     2     3    1
    21    16    14    2
    22    12    14    1
    23    12     8    1
    24    14    15    2
    25     3     8    2
    26     3     4    1
    27     8     7    1
    28     4     5    2
    29     7     6    2
    30     5     6    1
    31     5    11    1
    32     6     9    1
    33    11    10    1
    34     9    10    1
