@<TRIPOS>MOLECULE
6264_out_ligand_01.pdbqt
 33 35 0 0 0
SMALL
GASTEIGER

@<TRIPOS>ATOM
      1  C         21.1070  -22.9230  -10.2320 C.2     1  UNL1        0.0340
      2  C         19.9910  -22.1660  -10.6160 C.2     1  UNL1        0.0310
      3  C         18.7500  -22.3600  -10.0030 C.2     1  UNL1        0.0270
      4  C         18.6270  -23.3170   -8.9940 C.2     1  UNL1        0.0800
      5  C         19.7210  -24.1050   -8.6300 C.2     1  UNL1        0.0270
      6  C         20.9610  -23.8970   -9.2420 C.2     1  UNL1        0.0310
      7  N         22.3200  -22.6520  -10.8900 N.am    1  UNL1       -0.3250
      8  C         23.3130  -21.7620  -10.5150 C.2     1  UNL1        0.2510
      9  O         23.3130  -21.0370   -9.5250 O.2     1  UNL1       -0.2700
     10  H         22.4550  -23.0810  -11.8010 H       1  UNL1        0.1690
     11  C         24.5160  -21.7790  -11.4770 C.3     1  UNL1        0.2170
     12  C         25.7730  -21.4430  -10.6780 C.3     1  UNL1        0.0500
     13  O         24.7380  -23.0610  -12.0710 O.2     1  UNL1       -0.3370
     14  C         24.9120  -23.1300  -13.4270 C.2     1  UNL1        0.0700
     15  C         25.1790  -24.4140  -13.9060 C.2     1  UNL1        0.0370
     16  C         25.3540  -24.6410  -15.2710 C.2     1  UNL1        0.0030
     17  C         25.2630  -23.5780  -16.1670 C.2     1  UNL1        0.0070
     18  C         25.0020  -22.2840  -15.7040 C.2     1  UNL1       -0.0590
     19  C         24.8810  -21.1510  -16.6820 C.3     1  UNL1        0.0480
     20  C         24.8200  -22.0680  -14.3290 C.2     1  UNL1        0.0430
     21  S         17.0500  -23.5900   -8.2190 S.O2    1  UNL1        0.2630
     22  O         17.2020  -24.6990   -7.3030 O.2     1  UNL1       -0.2000
     23  O         16.0550  -23.6310   -9.2710 O.2     1  UNL1       -0.2000
     24  N         16.7440  -22.1640   -7.3670 N.pl3   1  UNL1       -0.2800
     25  H         17.0190  -21.3330   -7.8850 H       1  UNL1        0.1790
     26  C         16.8520  -22.1340   -5.9440 C.2     1  UNL1        0.0540
     27  C         18.0850  -21.8080   -5.3420 C.2     1  UNL1       -0.0340
     28  C         19.3180  -21.4080   -6.1080 C.3     1  UNL1        0.0500
     29  C         18.2020  -21.8870   -3.9440 C.2     1  UNL1        0.0090
     30  C         17.1180  -22.2570   -3.1550 C.2     1  UNL1        0.0010
     31  C         15.8930  -22.5380   -3.7530 C.2     1  UNL1        0.0090
     32  C         15.7390  -22.4640   -5.1460 C.2     1  UNL1       -0.0340
     33  C         14.3730  -22.7460   -5.7110 C.3     1  UNL1        0.0500
@<TRIPOS>BOND
     1    19    18    1
     2    17    18    2
     3    17    16    1
     4    18    20    1
     5    16    15    2
     6    20    14    2
     7    15    14    1
     8    14    13    1
     9    13    11    1
    10    10     7    1
    11    11    12    1
    12    11     8    1
    13     7     8   am
    14     7     1    1
    15     2     1    2
    16     2     3    1
    17     8     9    2
    18     1     6    1
    19     3     4    2
    20    23    21    2
    21     6     5    2
    22     4     5    1
    23     4    21    1
    24    21    24    1
    25    21    22    2
    26    25    24    1
    27    24    26    1
    28    28    27    1
    29    26    27    2
    30    26    32    1
    31    33    32    1
    32    27    29    1
    33    32    31    2
    34    29    30    2
    35    31    30    1
