@<TRIPOS>MOLECULE
62649_out_ligand_01.pdbqt
 35 38 0 0 0
SMALL
GASTEIGER

@<TRIPOS>ATOM
      1  C         22.0720  -22.9030   -8.8450 C.2     1  UNL1        0.0320
      2  C         21.6760  -24.2110   -9.1520 C.2     1  UNL1        0.0200
      3  C         20.4720  -24.7130   -8.6560 C.2     1  UNL1        0.0380
      4  C         19.6450  -23.9160   -7.8580 C.2     1  UNL1        0.0780
      5  C         20.0350  -22.6090   -7.5530 C.2     1  UNL1        0.0380
      6  C         21.2420  -22.1010   -8.0490 C.2     1  UNL1        0.0200
      7  O         18.4810  -24.5250   -7.4450 O.2     1  UNL1       -0.2900
      8  C         17.5290  -23.7440   -6.8310 C.2     1  UNL1        0.2060
      9  N         17.7940  -23.3900   -5.5450 N.2     1  UNL1       -0.2330
     10  C         16.8230  -22.6780   -4.9320 C.2     1  UNL1        0.1380
     11  C         15.6410  -22.3340   -5.5680 C.2     1  UNL1        0.1370
     12  N         15.3700  -22.6890   -6.8450 N.2     1  UNL1       -0.2480
     13  C         16.3300  -23.4160   -7.4790 C.2     1  UNL1        0.1510
     14  S         15.9620  -23.8740   -9.1610 S.3     1  UNL1       -0.0660
     15  C         17.0040  -22.7370  -10.0520 C.2     1  UNL1        0.0070
     16  C         18.2320  -23.1510  -10.5840 C.2     1  UNL1        0.0220
     17  C         19.0310  -22.2510  -11.2910 C.2     1  UNL1        0.0430
     18  C         18.5980  -20.9420  -11.4670 C.2     1  UNL1        0.1160
     19  F         19.3630  -20.0800  -12.1480 F       1  UNL1       -0.2060
     20  C         17.3790  -20.5170  -10.9510 C.2     1  UNL1        0.0430
     21  C         16.5780  -21.4160  -10.2470 C.2     1  UNL1        0.0220
     22  C         23.3600  -22.4050   -9.4060 C.2     1  UNL1        0.2510
     23  N         24.2090  -23.3550   -9.9300 N.am    1  UNL1       -0.3530
     24  H         23.8510  -24.2790  -10.1210 H       1  UNL1        0.1630
     25  O         23.6000  -21.2020   -9.4080 O.2     1  UNL1       -0.2680
     26  C         25.4250  -22.9810  -10.6190 C.3     1  UNL1        0.1610
     27  C         25.1760  -22.8170  -12.0950 C.2     1  UNL1       -0.0400
     28  C         24.6910  -21.6190  -12.6180 C.2     1  UNL1        0.0110
     29  C         24.4710  -21.4790  -13.9970 C.2     1  UNL1        0.0300
     30  C         24.7400  -22.5120  -14.9140 C.2     1  UNL1        0.0290
     31  C         25.2220  -23.7090  -14.3570 C.2     1  UNL1        0.0300
     32  C         25.4440  -23.8620  -12.9810 C.2     1  UNL1        0.0110
     33  N         24.5020  -22.3710  -16.2870 N.pl3   1  UNL1       -0.3900
     34  C         24.1540  -23.5570  -17.0680 C.3     1  UNL1        0.1490
     35  C         25.1860  -21.3100  -17.0230 C.3     1  UNL1        0.1490
@<TRIPOS>BOND
     1    34    33    1
     2    35    33    1
     3    33    30    1
     4    30    31    2
     5    30    29    1
     6    31    32    1
     7    29    28    2
     8    32    27    2
     9    28    27    1
    10    19    18    1
    11    27    26    1
    12    18    17    2
    13    18    20    1
    14    17    16    1
    15    20    21    2
    16    26    23    1
    17    16    15    2
    18    21    15    1
    19    24    23    1
    20    15    14    1
    21    23    22   am
    22    25    22    2
    23    22     1    1
    24    14    13    1
    25     2     1    2
    26     2     3    1
    27     1     6    1
    28     3     4    2
    29     6     5    2
    30     4     5    1
    31     4     7    1
    32    13    12    2
    33    13     8    1
    34     7     8    1
    35    12    11    1
    36     8     9    2
    37    11    10    2
    38     9    10    1
