@<TRIPOS>MOLECULE
62656_out_ligand_01.pdbqt
 28 31 0 0 0
SMALL
GASTEIGER

@<TRIPOS>ATOM
      1  C         26.5400  -23.4020  -10.6480 C.3     1  UNL1        0.0480
      2  C         25.1770  -22.9330  -11.0670 C.2     1  UNL1       -0.0610
      3  C         25.0290  -22.1030  -12.1820 C.2     1  UNL1        0.0090
      4  C         23.7740  -21.6280  -12.5770 C.2     1  UNL1        0.0310
      5  C         22.6680  -22.0030  -11.8070 C.ar    1  UNL1        0.0430
      6  N         21.3390  -21.6890  -11.9580 N.ar    1  UNL1       -0.3520
      7  C         20.5870  -22.2680  -10.9660 C.ar    1  UNL1        0.0950
      8  C         19.1700  -22.0850  -10.9040 C.2     1  UNL1        0.2230
      9  N         18.3890  -22.6170   -9.9870 N.2     1  UNL1       -0.2030
     10  C         17.1490  -22.1490  -10.3360 C.2     1  UNL1        0.1580
     11  N         17.1280  -21.3690  -11.4230 N.4     1  UNL1       -0.1110
     12  O         18.4690  -21.3200  -11.8030 O.2     1  UNL1       -0.1890
     13  C         21.4490  -22.9820  -10.1450 C.ar    1  UNL1       -0.0180
     14  C         21.0730  -23.7710   -8.9390 C.3     1  UNL1        0.0520
     15  C         22.7700  -22.8160  -10.6800 C.ar    1  UNL1       -0.0010
     16  C         24.0490  -23.2810  -10.3040 C.2     1  UNL1        0.0210
     17  H         20.9710  -21.1100  -12.6990 H       1  UNL1        0.1660
     18  C         15.9230  -22.5000   -9.5770 C.3     1  UNL1        0.1030
     19  C         16.0920  -22.3540   -8.0610 C.3     1  UNL1        0.1330
     20  N         16.4330  -23.6030   -7.3650 N.am    1  UNL1       -0.3500
     21  C         15.8120  -24.8140   -7.8900 C.3     1  UNL1        0.1530
     22  C         17.3820  -23.7450   -6.3350 C.2     1  UNL1        0.2770
     23  O         17.5880  -24.8620   -5.8490 O.2     1  UNL1       -0.2650
     24  C         18.1230  -22.5990   -5.8170 C.2     1  UNL1        0.1420
     25  C         19.1300  -21.8700   -6.4320 C.2     1  UNL1        0.0450
     26  C         19.5150  -20.8440   -5.5370 C.2     1  UNL1        0.0270
     27  C         18.7180  -20.9940   -4.4300 C.2     1  UNL1        0.1430
     28  O         17.8740  -22.0430   -4.5900 O.2     1  UNL1       -0.3170
@<TRIPOS>BOND
     1    17     6    1
     2     4     3    1
     3     4     5    2
     4     3     2    2
     5     6     5   ar
     6     6     7   ar
     7     5    15   ar
     8    12    11    1
     9    12     8    1
    10    11    10    1
    11     2     1    1
    12     2    16    1
    13     7     8    1
    14     7    13   ar
    15     8     9    2
    16    15    16    2
    17    15    13   ar
    18    10     9    2
    19    10    18    1
    20    13    14    1
    21    18    19    1
    22    19    20    1
    23    21    20    1
    24    20    22   am
    25    25    24    2
    26    25    26    1
    27    22    23    2
    28    22    24    1
    29    24    28    1
    30    26    27    2
    31    28    27    1
