@<TRIPOS>MOLECULE
62659_out_ligand_01.pdbqt
 36 39 0 0 0
SMALL
GASTEIGER

@<TRIPOS>ATOM
      1  C         27.0960  -23.6040  -13.1530 C.3     1  UNL1        0.0100
      2  C         26.9230  -22.0880  -13.2900 C.3     1  UNL1       -0.0140
      3  C         27.1000  -21.3680  -11.9330 C.3     1  UNL1        0.0090
      4  C         26.0000  -21.7060  -10.9130 C.3     1  UNL1        0.0420
      5  C         24.6360  -21.7090  -11.5400 C.ar    1  UNL1       -0.0210
      6  C         24.4630  -21.7440  -12.9110 C.ar    1  UNL1       -0.0070
      7  S         22.8260  -21.7690  -13.3600 S.2     1  UNL1       -0.0750
      8  C         22.3000  -21.7320  -11.7420 C.ar    1  UNL1        0.0980
      9  C         23.3730  -21.7110  -10.8650 C.ar    1  UNL1        0.0850
     10  C         23.2120  -21.7000   -9.4420 C.1     1  UNL1        0.1030
     11  N         23.0340  -21.7010   -8.2950 N.1     1  UNL1       -0.1910
     12  C         25.5620  -21.7310  -13.9300 C.3     1  UNL1        0.0510
     13  N         20.9490  -21.7410  -11.4120 N.am    1  UNL1       -0.3160
     14  C         20.2910  -22.6810  -10.6400 C.2     1  UNL1        0.2560
     15  O         20.7380  -23.7080  -10.1460 O.2     1  UNL1       -0.2670
     16  H         20.3860  -21.0130  -11.8340 H       1  UNL1        0.1690
     17  C         18.8460  -22.3990  -10.4250 C.2     1  UNL1        0.0330
     18  C         18.1540  -21.4540  -11.1980 C.2     1  UNL1        0.0170
     19  C         16.8040  -21.1950  -10.9430 C.2     1  UNL1        0.0030
     20  C         16.1450  -21.8600   -9.9090 C.2     1  UNL1        0.0250
     21  C         16.8470  -22.7810   -9.1270 C.2     1  UNL1        0.0800
     22  C         18.1900  -23.0660   -9.3840 C.2     1  UNL1        0.0420
     23  S         16.0370  -23.6090   -7.7780 S.O2    1  UNL1        0.2630
     24  O         15.5110  -24.8530   -8.2970 O.2     1  UNL1       -0.2000
     25  O         15.1890  -22.6480   -7.1080 O.2     1  UNL1       -0.2000
     26  N         17.3210  -24.0180   -6.7580 N.pl3   1  UNL1       -0.2810
     27  H         18.0330  -24.5630   -7.2440 H       1  UNL1        0.1790
     28  C         17.7450  -23.0990   -5.7580 C.2     1  UNL1        0.0450
     29  C         17.3350  -23.3130   -4.4390 C.2     1  UNL1        0.0300
     30  C         17.7560  -22.4550   -3.4220 C.2     1  UNL1        0.0050
     31  C         18.5860  -21.3750   -3.7220 C.2     1  UNL1        0.0360
     32  C         18.9880  -21.1600   -5.0500 C.2     1  UNL1        0.1050
     33  C         18.5700  -22.0200   -6.0720 C.2     1  UNL1        0.0660
     34  N         19.8590  -20.0240   -5.3650 N.pl3   1  UNL1       -0.1160
     35  O         20.9780  -20.2720   -5.8370 O.2     1  UNL1       -0.5320
     36  O         19.4270  -18.8850   -5.1460 O.2     1  UNL1       -0.5320
@<TRIPOS>BOND
     1    12     2    1
     2    12     6    1
     3     7     6   ar
     4     7     8   ar
     5     2     1    1
     6     2     3    1
     7     6     5   ar
     8     3     4    1
     9    16    13    1
    10     8    13    1
    11     8     9   ar
    12     5     4    1
    13     5     9   ar
    14    13    14   am
    15    18    19    1
    16    18    17    2
    17    19    20    2
    18     9    10    1
    19    14    17    1
    20    14    15    2
    21    17    22    1
    22    20    21    1
    23    10    11    3
    24    22    21    2
    25    21    23    1
    26    24    23    2
    27    23    25    2
    28    23    26    1
    29    27    26    1
    30    26    28    1
    31    33    28    2
    32    33    32    1
    33    35    34    2
    34    28    29    1
    35    34    36    2
    36    34    32    1
    37    32    31    2
    38    29    30    2
    39    31    30    1
