@<TRIPOS>MOLECULE
6265_out_ligand_01.pdbqt
 35 37 0 0 0
SMALL
GASTEIGER

@<TRIPOS>ATOM
      1  C         22.7270  -23.2940   -8.9710 C.2     1  UNL1        0.0340
      2  C         21.8740  -24.3990   -9.1450 C.2     1  UNL1        0.0310
      3  C         20.5840  -24.4000   -8.6040 C.2     1  UNL1        0.0270
      4  C         20.1530  -23.2990   -7.8590 C.2     1  UNL1        0.0800
      5  C         20.9990  -22.2010   -7.6640 C.2     1  UNL1        0.0270
      6  C         22.2810  -22.2000   -8.2270 C.2     1  UNL1        0.0310
      7  S         18.5280  -23.2410   -7.1480 S.O2    1  UNL1        0.2630
      8  O         18.3810  -21.9150   -6.5850 O.2     1  UNL1       -0.2000
      9  O         18.3440  -24.4340   -6.3520 O.2     1  UNL1       -0.2000
     10  N         17.4780  -23.2870   -8.4780 N.pl3   1  UNL1       -0.2810
     11  H         17.2250  -24.2580   -8.6700 H       1  UNL1        0.1790
     12  C         17.7680  -22.4630   -9.6040 C.2     1  UNL1        0.0430
     13  C         16.7270  -21.7360  -10.1850 C.2     1  UNL1        0.0300
     14  C         16.9720  -20.9200  -11.2910 C.2     1  UNL1        0.0030
     15  C         18.2630  -20.8330  -11.8190 C.2     1  UNL1        0.0160
     16  C         19.3180  -21.5690  -11.2510 C.2     1  UNL1        0.0500
     17  C         19.0570  -22.3850  -10.1360 C.2     1  UNL1        0.0460
     18  C         20.7140  -21.4490  -11.8170 C.3     1  UNL1        0.4170
     19  F         20.7380  -20.8860  -13.0580 F       1  UNL1       -0.1660
     20  F         21.3590  -22.6440  -11.9330 F       1  UNL1       -0.1660
     21  F         21.5160  -20.6680  -11.0390 F       1  UNL1       -0.1660
     22  N         24.0000  -23.3660   -9.5690 N.am    1  UNL1       -0.3250
     23  C         24.7280  -22.3370  -10.1410 C.2     1  UNL1        0.2510
     24  O         24.3880  -21.1600  -10.2270 O.2     1  UNL1       -0.2700
     25  H         24.3870  -24.2940   -9.7170 H       1  UNL1        0.1690
     26  C         26.1030  -22.8020  -10.6680 C.3     1  UNL1        0.2170
     27  C         26.4910  -24.0720   -9.9150 C.3     1  UNL1        0.0500
     28  O         26.1020  -23.1320  -12.0600 O.2     1  UNL1       -0.3370
     29  C         25.6350  -22.2080  -12.9550 C.2     1  UNL1        0.0700
     30  C         24.3860  -22.5200  -13.5010 C.2     1  UNL1        0.0370
     31  C         23.7650  -21.6470  -14.3950 C.2     1  UNL1        0.0030
     32  C         24.3910  -20.4540  -14.7490 C.2     1  UNL1        0.0070
     33  C         25.6500  -20.1370  -14.2280 C.2     1  UNL1       -0.0590
     34  C         26.3110  -18.8360  -14.5860 C.3     1  UNL1        0.0480
     35  C         26.2620  -21.0160  -13.3190 C.2     1  UNL1        0.0430
@<TRIPOS>BOND
     1    32    31    2
     2    32    33    1
     3    34    33    1
     4    31    30    1
     5    33    35    2
     6    30    29    2
     7    35    29    1
     8    19    18    1
     9    29    28    1
    10    28    26    1
    11    20    18    1
    12    15    14    2
    13    15    16    1
    14    18    16    1
    15    18    21    1
    16    14    13    1
    17    16    17    2
    18    26    23    1
    19    26    27    1
    20    24    23    2
    21    13    12    2
    22    23    22   am
    23    17    12    1
    24    25    22    1
    25    12    10    1
    26    22     1    1
    27     2     1    2
    28     2     3    1
    29     1     6    1
    30    11    10    1
    31     3     4    2
    32    10     7    1
    33     6     5    2
    34     4     5    1
    35     4     7    1
    36     7     8    2
    37     7     9    2
