@<TRIPOS>MOLECULE
62668_out_ligand_01.pdbqt
 30 33 0 0 0
SMALL
GASTEIGER

@<TRIPOS>ATOM
      1  C         17.7210  -21.5880  -10.7380 C.ar    1  UNL1        0.1580
      2  N         17.5020  -20.6840  -11.7010 N.ar    1  UNL1       -0.1110
      3  O         18.7380  -20.5920  -12.3380 O.2     1  UNL1       -0.1890
      4  C         19.5850  -21.4610  -11.6980 C.ar    1  UNL1        0.2230
      5  C         20.9510  -21.6450  -12.0640 C.2     1  UNL1        0.0890
      6  C         21.9170  -22.4580  -11.5090 C.2     1  UNL1        0.0480
      7  C         23.1220  -22.2710  -12.2400 C.2     1  UNL1       -0.0070
      8  C         24.4190  -22.8120  -12.1460 C.2     1  UNL1        0.0200
      9  C         25.4140  -22.3960  -13.0470 C.2     1  UNL1       -0.0610
     10  C         26.7900  -22.9940  -12.9740 C.3     1  UNL1        0.0480
     11  C         25.1030  -21.4670  -14.0450 C.2     1  UNL1        0.0090
     12  C         23.8200  -20.9170  -14.1580 C.2     1  UNL1        0.0310
     13  C         22.8540  -21.3370  -13.2400 C.2     1  UNL1        0.0430
     14  N         21.5320  -20.9760  -13.1110 N.pl3   1  UNL1       -0.3520
     15  N         18.9950  -22.0990  -10.7090 N.ar    1  UNL1       -0.2030
     16  H         21.0610  -20.3110  -13.7100 H       1  UNL1        0.1660
     17  C         16.6640  -22.0320   -9.7960 C.3     1  UNL1        0.1030
     18  C         16.9310  -23.4120   -9.1850 C.3     1  UNL1        0.1330
     19  N         17.4540  -23.3640   -7.8170 N.am    1  UNL1       -0.3520
     20  C         16.7280  -22.6270   -6.8780 C.2     1  UNL1        0.2560
     21  O         15.5870  -22.2160   -7.0790 O.2     1  UNL1       -0.2670
     22  C         18.8100  -23.8510   -7.6000 C.3     1  UNL1        0.1520
     23  C         17.3380  -22.3400   -5.5640 C.2     1  UNL1        0.0650
     24  C         18.1980  -21.2360   -5.4790 C.2     1  UNL1        0.0200
     25  C         18.8130  -20.9350   -4.2670 C.2     1  UNL1        0.0010
     26  C         18.5760  -21.7390   -3.1530 C.2     1  UNL1        0.0030
     27  C         17.7330  -22.8540   -3.2450 C.2     1  UNL1        0.0380
     28  C         17.1110  -23.1720   -4.4570 C.2     1  UNL1        0.0840
     29  O         16.2820  -24.2440   -4.6500 O.2     1  UNL1       -0.3550
     30  C         14.9360  -24.1260   -4.2090 C.3     1  UNL1        0.2100
@<TRIPOS>BOND
     1    12    11    2
     2    12    13    1
     3    11     9    1
     4    16    14    1
     5    13    14    1
     6    13     7    2
     7    14     5    1
     8     9    10    1
     9     9     8    2
    10     3     2   ar
    11     3     4   ar
    12     7     8    1
    13     7     6    1
    14     5     4    1
    15     5     6    2
    16     2     1   ar
    17     4    15   ar
    18     1    15   ar
    19     1    17    1
    20    17    18    1
    21    18    19    1
    22    19    22    1
    23    19    20   am
    24    21    20    2
    25    20    23    1
    26    23    24    2
    27    23    28    1
    28    24    25    1
    29    29    28    1
    30    29    30    1
    31    28    27    2
    32    25    26    2
    33    27    26    1
