@<TRIPOS>MOLECULE
62661_out_ligand_01.pdbqt
 35 39 0 0 0
SMALL
GASTEIGER

@<TRIPOS>ATOM
      1  S         16.3110  -23.3930   -9.6300 S.3     1  UNL1       -0.0870
      2  C         16.7160  -21.7020  -10.1550 C.3     1  UNL1        0.1210
      3  C         18.0880  -21.6130  -10.7830 C.2     1  UNL1       -0.0480
      4  C         18.5770  -20.3860  -11.2540 C.2     1  UNL1        0.0090
      5  C         19.8340  -20.3080  -11.8570 C.2     1  UNL1        0.0170
      6  C         20.6250  -21.4540  -11.9860 C.2     1  UNL1        0.0320
      7  C         20.1390  -22.6870  -11.5360 C.2     1  UNL1        0.0170
      8  C         18.8780  -22.7640  -10.9380 C.2     1  UNL1        0.0090
      9  C         21.9610  -21.3250  -12.6290 C.2     1  UNL1        0.2510
     10  O         22.0790  -20.7220  -13.6900 O.2     1  UNL1       -0.2680
     11  N         23.0180  -21.8830  -11.9440 N.am    1  UNL1       -0.3520
     12  H         22.8850  -22.1360  -10.9740 H       1  UNL1        0.1630
     13  C         24.3840  -21.6660  -12.3690 C.3     1  UNL1        0.1690
     14  C         24.7310  -22.7120  -13.3830 C.2     1  UNL1        0.0000
     15  C         24.9690  -24.0560  -13.1700 C.2     1  UNL1        0.0170
     16  C         25.2640  -24.7540  -14.3780 C.2     1  UNL1        0.0080
     17  C         25.2410  -23.9180  -15.4720 C.2     1  UNL1        0.0500
     18  S         24.8730  -22.3040  -15.0420 S.3     1  UNL1       -0.1050
     19  C         16.3060  -23.2140   -7.9070 C.ar    1  UNL1        0.1700
     20  N         15.4000  -22.5460   -7.2310 N.ar    1  UNL1       -0.2220
     21  C         15.7660  -22.6700   -5.9150 C.ar    1  UNL1        0.0890
     22  C         15.1470  -22.1600   -4.7750 C.2     1  UNL1        0.0530
     23  C         16.9230  -23.4310   -5.7900 C.ar    1  UNL1        0.0830
     24  C         15.7580  -22.4670   -3.5720 C.2     1  UNL1        0.1180
     25  N         16.8820  -23.2110   -3.4420 N.2     1  UNL1       -0.2710
     26  C         17.4810  -23.7060   -4.5490 C.2     1  UNL1        0.1480
     27  N         17.2650  -23.7580   -7.0870 N.ar    1  UNL1       -0.3190
     28  C         18.3870  -24.5970   -7.4750 C.3     1  UNL1        0.1700
     29  C         19.6410  -23.8030   -7.7500 C.2     1  UNL1       -0.0370
     30  C         19.7630  -22.4880   -7.2690 C.2     1  UNL1        0.0090
     31  C         20.9100  -21.7330   -7.5270 C.2     1  UNL1        0.0040
     32  C         21.9490  -22.2810   -8.2760 C.2     1  UNL1        0.0420
     33  C         21.8330  -23.5790   -8.7590 C.2     1  UNL1        0.1170
     34  F         22.8300  -24.1050   -9.4830 F       1  UNL1       -0.2060
     35  C         20.6950  -24.3400   -8.5060 C.2     1  UNL1        0.0510
@<TRIPOS>BOND
     1    17    18    1
     2    17    16    2
     3    18    14    1
     4    16    15    1
     5    10     9    2
     6    14    15    2
     7    14    13    1
     8     9     6    1
     9     9    11   am
    10    13    11    1
    11     6     5    2
    12     6     7    1
    13    11    12    1
    14     5     4    1
    15     7     8    2
    16     4     3    2
    17     8     3    1
    18     3     2    1
    19     2     1    1
    20     1    19    1
    21    34    33    1
    22    33    35    1
    23    33    32    2
    24    35    29    2
    25    32    31    1
    26    19    20   ar
    27    19    27   ar
    28    29    28    1
    29    29    30    1
    30    31    30    2
    31    28    27    1
    32    20    21   ar
    33    27    23   ar
    34    21    23   ar
    35    21    22    1
    36    23    26    1
    37    22    24    2
    38    26    25    2
    39    24    25    1
