@<TRIPOS>MOLECULE
62669_out_ligand_01.pdbqt
 32 36 0 0 0
SMALL
GASTEIGER

@<TRIPOS>ATOM
      1  C         20.4470  -22.0130  -10.7780 C.3     1  UNL1        0.1070
      2  C         19.6670  -21.0710  -11.7080 C.3     1  UNL1        0.0290
      3  C         18.2170  -21.4830  -11.4800 C.3     1  UNL1        0.0220
      4  C         18.1830  -21.7700   -9.9850 C.3     1  UNL1        0.1270
      5  N         19.5010  -22.3260   -9.7070 N.am    1  UNL1       -0.3420
      6  C         19.8000  -23.2730   -8.7440 C.2     1  UNL1        0.2540
      7  O         20.8070  -23.9790   -8.7940 O.2     1  UNL1       -0.2670
      8  C         21.8040  -21.4530  -10.3140 C.3     1  UNL1        0.1710
      9  N         22.9680  -22.0350  -10.9500 N.pl3   1  UNL1       -0.2810
     10  C         23.0780  -22.4790  -12.2380 C.2     1  UNL1        0.1460
     11  C         24.3770  -22.9510  -12.3280 C.2     1  UNL1        0.1580
     12  N         24.9840  -22.7730  -11.1040 N.2     1  UNL1       -0.1530
     13  N         24.1070  -22.2320  -10.2710 N.2     1  UNL1        0.0050
     14  C         25.0780  -23.5490  -13.4620 C.2     1  UNL1        0.2730
     15  O         25.8020  -24.5340  -13.3460 O.2     1  UNL1       -0.2660
     16  N         24.8800  -22.9240  -14.6830 N.am    1  UNL1       -0.3510
     17  H         24.3940  -22.0410  -14.7060 H       1  UNL1        0.1630
     18  C         25.6090  -23.3430  -15.8650 C.3     1  UNL1        0.0840
     19  C         24.6770  -23.5530  -17.0680 C.3     1  UNL1        0.0250
     20  C         25.0220  -22.4420  -18.0520 C.3     1  UNL1        0.0020
     21  C         26.5050  -22.2120  -17.8170 C.3     1  UNL1        0.0020
     22  C         26.6290  -22.2820  -16.3010 C.3     1  UNL1        0.0250
     23  C         18.8660  -23.4510   -7.6110 C.2     1  UNL1        0.0330
     24  C         17.8710  -24.4300   -7.6460 C.2     1  UNL1        0.0190
     25  C         16.9990  -24.5650   -6.5600 C.2     1  UNL1        0.0330
     26  C         17.0810  -23.7360   -5.4490 C.2     1  UNL1        0.0660
     27  N         16.2180  -23.9070   -4.4320 N.2     1  UNL1       -0.2600
     28  C         18.0720  -22.7280   -5.4370 C.2     1  UNL1       -0.0060
     29  C         16.3070  -23.0680   -3.3750 C.2     1  UNL1        0.1170
     30  C         17.2370  -22.0520   -3.2730 C.2     1  UNL1        0.0200
     31  C         18.1350  -21.8820   -4.3210 C.2     1  UNL1        0.0150
     32  C         18.9570  -22.5880   -6.5180 C.2     1  UNL1        0.0300
@<TRIPOS>BOND
     1    20    21    1
     2    20    19    1
     3    21    22    1
     4    19    18    1
     5    22    18    1
     6    18    16    1
     7    17    16    1
     8    16    14   am
     9    14    15    2
    10    14    11    1
    11    11    10    2
    12    11    12    1
    13    10     9    1
    14     2     3    1
    15     2     1    1
    16     3     4    1
    17    12    13    2
    18     9     8    1
    19     9    13    1
    20     1     8    1
    21     1     5    1
    22     4     5    1
    23     5     6   am
    24     7     6    2
    25     6    23    1
    26    24    23    2
    27    24    25    1
    28    23    32    1
    29    25    26    2
    30    32    28    2
    31    26    28    1
    32    26    27    1
    33    28    31    1
    34    27    29    2
    35    31    30    2
    36    29    30    1
