@<TRIPOS>MOLECULE
62667_out_ligand_01.pdbqt
 35 38 0 0 0
SMALL
GASTEIGER

@<TRIPOS>ATOM
      1  C         18.6850  -23.2940   -9.0280 C.2     1  UNL1        0.0750
      2  C         19.6280  -23.9460   -8.2290 C.2     1  UNL1        0.0270
      3  C         20.9810  -23.8930   -8.5750 C.2     1  UNL1        0.0310
      4  C         21.4020  -23.1910   -9.7170 C.2     1  UNL1        0.0340
      5  C         20.4450  -22.5520  -10.5120 C.2     1  UNL1        0.0310
      6  C         19.0880  -22.6130  -10.1780 C.2     1  UNL1        0.0270
      7  N         22.7850  -23.2020   -9.9990 N.am    1  UNL1       -0.3270
      8  C         23.6560  -22.1300   -9.9940 C.2     1  UNL1        0.2280
      9  O         23.3760  -20.9760   -9.6830 O.2     1  UNL1       -0.2730
     10  H         23.1680  -24.1220  -10.2040 H       1  UNL1        0.1690
     11  C         25.0750  -22.4520  -10.4600 C.3     1  UNL1        0.1050
     12  C         25.8510  -21.1930  -10.8050 C.3     1  UNL1        0.1190
     13  C         25.7100  -21.0830  -12.3050 C.2     1  UNL1        0.2250
     14  O         25.9980  -20.0690  -12.9190 O.2     1  UNL1       -0.2730
     15  N         25.2190  -22.3080  -12.7930 N.am    1  UNL1       -0.3170
     16  C         25.1190  -23.2810  -11.7260 C.3     1  UNL1        0.1460
     17  C         24.9750  -22.6350  -14.1580 C.2     1  UNL1        0.0370
     18  C         24.4240  -21.7030  -15.0520 C.2     1  UNL1        0.0330
     19  C         24.1720  -22.0370  -16.3880 C.2     1  UNL1        0.0440
     20  C         24.4610  -23.3140  -16.8410 C.2     1  UNL1        0.1160
     21  F         24.2140  -23.6390  -18.1160 F       1  UNL1       -0.2060
     22  C         25.0040  -24.2610  -15.9840 C.2     1  UNL1        0.0440
     23  C         25.2650  -23.9200  -14.6510 C.2     1  UNL1        0.0330
     24  S         16.9560  -23.4110   -8.6230 S.O2    1  UNL1        0.2480
     25  O         16.8370  -24.4440   -7.6060 O.2     1  UNL1       -0.2050
     26  O         16.1990  -23.5110   -9.8500 O.2     1  UNL1       -0.2050
     27  N         16.6590  -21.9760   -7.8230 N.pl3   1  UNL1       -0.1480
     28  H         17.4000  -21.3030   -7.9860 H       1  UNL1        0.1490
     29  C         16.3720  -22.0950   -6.4670 C.cat   1  UNL1        0.2150
     30  N         15.0800  -22.3080   -6.2140 N.2     1  UNL1       -0.2300
     31  C         14.7740  -22.4510   -4.9100 C.2     1  UNL1        0.1220
     32  C         15.7120  -22.4200   -3.8960 C.2     1  UNL1        0.0460
     33  C         17.0250  -22.2330   -4.2870 C.2     1  UNL1        0.0350
     34  C         18.1150  -22.1630   -3.2590 C.3     1  UNL1        0.0700
     35  N         17.3750  -22.0850   -5.5830 N.2     1  UNL1       -0.2230
@<TRIPOS>BOND
     1    21    20    1
     2    20    19    2
     3    20    22    1
     4    19    18    1
     5    22    23    2
     6    18    17    2
     7    23    17    1
     8    17    15    1
     9    14    13    2
    10    15    13   am
    11    15    16    1
    12    13    12    1
    13    16    11    1
    14    12    11    1
    15     5     6    1
    16     5     4    2
    17    11     8    1
    18    10     7    1
    19     6     1    2
    20     7     8   am
    21     7     4    1
    22     8     9    2
    23    26    24    2
    24     4     3    1
    25     1    24    1
    26     1     2    1
    27    24    27    1
    28    24    25    2
    29     3     2    2
    30    28    27    1
    31    27    29    1
    32    29    30    2
    33    29    35    1
    34    30    31    1
    35    35    33    2
    36    31    32    2
    37    33    32    1
    38    33    34    1
