@<TRIPOS>MOLECULE
62675_out_ligand_01.pdbqt
 29 33 0 0 0
SMALL
GASTEIGER

@<TRIPOS>ATOM
      1  C         24.5250  -22.1740  -11.2370 C.2     1  UNL1        0.1240
      2  N         24.3600  -21.8870  -12.5440 N.2     1  UNL1       -0.2290
      3  C         23.1230  -21.6740  -13.0090 C.2     1  UNL1        0.2350
      4  N         21.9800  -21.7160  -12.3230 N.2     1  UNL1       -0.2400
      5  C         22.1240  -22.0050  -11.0030 C.ar    1  UNL1        0.0920
      6  C         23.3750  -22.2340  -10.4370 C.ar    1  UNL1        0.0770
      7  S         23.2420  -22.5700   -8.7600 S.2     1  UNL1       -0.0640
      8  C         21.5520  -22.4040   -8.7890 C.ar    1  UNL1        0.1120
      9  N         20.8570  -22.5550   -7.6470 N.ar    1  UNL1       -0.2390
     10  C         19.5230  -22.3880   -7.7510 C.ar    1  UNL1        0.0750
     11  C         18.8690  -22.1290   -8.9610 C.ar    1  UNL1       -0.0210
     12  C         19.6350  -21.9720  -10.1420 C.ar    1  UNL1       -0.0340
     13  C         21.0460  -22.1100  -10.0460 C.ar    1  UNL1        0.0370
     14  C         18.8820  -21.6310  -11.4080 C.3     1  UNL1        0.0400
     15  C         17.6620  -22.5320  -11.5810 C.3     1  UNL1        0.0050
     16  C         16.8290  -22.7140  -10.3080 C.3     1  UNL1        0.0050
     17  C         17.3710  -21.9740   -9.0840 C.3     1  UNL1        0.0410
     18  N         25.8040  -22.3800  -10.7130 N.pl3   1  UNL1       -0.2740
     19  H         25.8170  -22.2330   -9.7070 H       1  UNL1        0.1290
     20  C         26.4790  -23.5880  -11.1690 C.3     1  UNL1        0.1200
     21  C         27.0820  -24.3450   -9.9800 C.3     1  UNL1        0.1780
     22  O         26.0790  -24.6910   -9.0290 O.3     1  UNL1       -0.4000
     23  H         26.2010  -25.6310   -8.8090 H       1  UNL1        0.2090
     24  C         18.8220  -22.5040   -6.4620 C.2     1  UNL1       -0.0070
     25  C         18.8490  -21.4480   -5.5370 C.2     1  UNL1        0.0140
     26  C         18.1860  -21.5490   -4.3110 C.2     1  UNL1        0.0010
     27  C         17.4770  -22.7070   -3.9970 C.2     1  UNL1        0.0000
     28  C         17.4240  -23.7600   -4.9080 C.2     1  UNL1        0.0010
     29  C         18.0880  -23.6570   -6.1330 C.2     1  UNL1        0.0140
@<TRIPOS>BOND
     1     3     2    1
     2     3     4    2
     3     2     1    2
     4     4     5    1
     5    15    14    1
     6    15    16    1
     7    14    12    1
     8     1    18    1
     9     1     6    1
    10    20    18    1
    11    20    21    1
    12     5     6   ar
    13     5    13   ar
    14    18    19    1
    15     6     7   ar
    16    16    17    1
    17    12    13   ar
    18    12    11   ar
    19    13     8   ar
    20    21    22    1
    21    17    11    1
    22    22    23    1
    23    11    10   ar
    24     8     7   ar
    25     8     9   ar
    26    10     9   ar
    27    10    24    1
    28    24    29    2
    29    24    25    1
    30    29    28    1
    31    25    26    2
    32    28    27    2
    33    26    27    1
