@<TRIPOS>MOLECULE
6267_out_ligand_01.pdbqt
 33 35 0 0 0
SMALL
GASTEIGER

@<TRIPOS>ATOM
      1  C         20.7670  -22.4460  -10.7660 C.2     1  UNL1        0.0340
      2  C         19.6330  -21.7520  -11.1990 C.2     1  UNL1        0.0310
      3  C         18.3830  -22.0010  -10.6230 C.2     1  UNL1        0.0270
      4  C         18.2660  -22.9610   -9.6160 C.2     1  UNL1        0.0800
      5  C         19.3920  -23.6480   -9.1580 C.2     1  UNL1        0.0270
      6  C         20.6370  -23.3890   -9.7370 C.2     1  UNL1        0.0310
      7  N         22.0550  -22.2500  -11.2940 N.am    1  UNL1       -0.3250
      8  C         23.1410  -21.6380  -10.6900 C.2     1  UNL1        0.2510
      9  O         23.1670  -21.1360   -9.5700 O.2     1  UNL1       -0.2700
     10  H         22.1960  -22.5000  -12.2700 H       1  UNL1        0.1690
     11  C         24.4050  -21.6700  -11.5700 C.3     1  UNL1        0.2170
     12  C         25.5780  -21.1550  -10.7430 C.3     1  UNL1        0.0500
     13  O         24.7530  -22.9890  -12.0000 O.2     1  UNL1       -0.3370
     14  C         24.9240  -23.2140  -13.3380 C.2     1  UNL1        0.0700
     15  C         25.2280  -24.4350  -13.9380 C.2     1  UNL1        0.0370
     16  C         25.3970  -24.5100  -15.3230 C.2     1  UNL1        0.0030
     17  C         25.2620  -23.3680  -16.1130 C.2     1  UNL1        0.0070
     18  C         24.9480  -22.1390  -15.5260 C.2     1  UNL1       -0.0590
     19  C         24.8250  -20.9070  -16.3720 C.3     1  UNL1        0.0480
     20  C         24.7920  -22.0710  -14.1360 C.2     1  UNL1        0.0430
     21  S         16.6850  -23.2810   -8.8770 S.O2    1  UNL1        0.2630
     22  O         16.7900  -24.4490   -8.0330 O.2     1  UNL1       -0.2000
     23  O         15.6950  -23.2090   -9.9310 O.2     1  UNL1       -0.2000
     24  N         16.4420  -21.9060   -7.9230 N.pl3   1  UNL1       -0.2800
     25  H         15.8050  -21.2510   -8.3720 H       1  UNL1        0.1790
     26  C         16.3420  -22.0760   -6.5110 C.2     1  UNL1        0.0500
     27  C         15.0630  -22.2880   -5.9820 C.2     1  UNL1        0.0310
     28  C         14.8800  -22.4210   -4.6080 C.2     1  UNL1        0.0040
     29  C         15.9790  -22.3350   -3.7590 C.2     1  UNL1        0.0240
     30  C         17.2580  -22.1210   -4.2830 C.2     1  UNL1        0.0420
     31 CL         18.5660  -22.0160   -3.1540 Cl      1  UNL1       -0.0840
     32  C         17.4660  -21.9940   -5.6700 C.2     1  UNL1       -0.0130
     33  C         18.8490  -21.7350   -6.2070 C.3     1  UNL1        0.0520
@<TRIPOS>BOND
     1    19    18    1
     2    17    18    2
     3    17    16    1
     4    18    20    1
     5    16    15    2
     6    20    14    2
     7    15    14    1
     8    14    13    1
     9    10     7    1
    10    13    11    1
    11    11    12    1
    12    11     8    1
    13     7     1    1
    14     7     8   am
    15     2     1    2
    16     2     3    1
    17     1     6    1
    18     8     9    2
    19     3     4    2
    20    23    21    2
    21     6     5    2
    22     4     5    1
    23     4    21    1
    24    21    22    2
    25    21    24    1
    26    25    24    1
    27    24    26    1
    28    26    27    2
    29    26    32    1
    30    33    32    1
    31    27    28    1
    32    32    30    2
    33    28    29    2
    34    30    29    1
    35    30    31    1
