@<TRIPOS>MOLECULE
62692_out_ligand_01.pdbqt
 33 36 0 0 0
SMALL
GASTEIGER

@<TRIPOS>ATOM
      1  C         22.1390  -22.5190   -9.9250 C.2     1  UNL1        0.0170
      2  C         21.0280  -23.2470  -10.3730 C.2     1  UNL1        0.0170
      3  C         19.9640  -23.5320   -9.5090 C.2     1  UNL1        0.0180
      4  C         19.9920  -23.0830   -8.1840 C.2     1  UNL1        0.0320
      5  C         21.1030  -22.3710   -7.7190 C.2     1  UNL1        0.0180
      6  C         22.1640  -22.0900   -8.5880 C.2     1  UNL1        0.0170
      7  C         23.2660  -22.2090  -10.8010 C.ar    1  UNL1        0.1800
      8  O         24.2130  -21.3470  -10.3160 O.2     1  UNL1       -0.2940
      9  C         25.1170  -21.2240  -11.3330 C.ar    1  UNL1        0.0770
     10  C         26.2640  -20.3280  -11.0990 C.3     1  UNL1        0.0790
     11  C         24.6800  -22.0020  -12.3840 C.ar    1  UNL1        0.0810
     12  N         23.5110  -22.6390  -12.0260 N.ar    1  UNL1       -0.2250
     13  C         25.2710  -22.2110  -13.7250 C.3     1  UNL1        0.2070
     14  S         24.3510  -21.4110  -15.0240 S.O2    1  UNL1        0.1810
     15  O         23.1770  -20.7960  -14.4250 O.2     1  UNL1       -0.2220
     16  O         24.1880  -22.3460  -16.1260 O.2     1  UNL1       -0.2220
     17  C         25.4010  -20.0900  -15.5800 C.2     1  UNL1        0.0590
     18  C         25.9330  -19.1960  -14.6460 C.2     1  UNL1        0.0230
     19  C         26.7520  -18.1560  -15.0820 C.2     1  UNL1        0.0020
     20  C         27.0280  -18.0070  -16.4440 C.2     1  UNL1        0.0000
     21  C         26.4810  -18.8920  -17.3740 C.2     1  UNL1        0.0020
     22  C         25.6580  -19.9350  -16.9450 C.2     1  UNL1        0.0230
     23  C         18.8400  -23.4100   -7.2970 C.2     1  UNL1        0.2560
     24  O         18.4500  -24.5710   -7.2600 O.2     1  UNL1       -0.2670
     25  N         18.3010  -22.3290   -6.6210 N.am    1  UNL1       -0.3230
     26  H         18.6540  -21.4130   -6.8660 H       1  UNL1        0.1690
     27  C         17.2390  -22.3470   -5.6900 C.2     1  UNL1        0.0370
     28  C         17.4130  -22.4510   -4.3070 C.2     1  UNL1        0.0290
     29  C         16.3090  -22.4560   -3.4460 C.2     1  UNL1        0.0050
     30  C         15.0210  -22.3530   -3.9620 C.2     1  UNL1        0.0420
     31  C         14.8500  -22.2460   -5.3360 C.2     1  UNL1        0.1180
     32  F         13.6120  -22.1440   -5.8400 F       1  UNL1       -0.2060
     33  C         15.9420  -22.2410   -6.2000 C.2     1  UNL1        0.0710
@<TRIPOS>BOND
     1    21    22    1
     2    21    20    2
     3    22    17    2
     4    20    19    1
     5    16    14    2
     6    17    14    1
     7    17    18    1
     8    19    18    2
     9    14    15    2
    10    14    13    1
    11    13    11    1
    12    11    12   ar
    13    11     9   ar
    14    12     7   ar
    15     9    10    1
    16     9     8   ar
    17     7     8   ar
    18     7     1    1
    19     2     1    2
    20     2     3    1
    21     1     6    1
    22     3     4    2
    23     6     5    2
    24     4     5    1
    25     4    23    1
    26    23    24    2
    27    23    25   am
    28    26    25    1
    29    25    27    1
    30    33    27    2
    31    33    31    1
    32    32    31    1
    33    27    28    1
    34    31    30    2
    35    28    29    2
    36    30    29    1
