@<TRIPOS>MOLECULE
62698_out_ligand_01.pdbqt
 29 32 0 0 0
SMALL
GASTEIGER

@<TRIPOS>ATOM
      1  N         18.7710  -22.4620   -8.6020 N.am    1  UNL1       -0.3090
      2  C         18.6800  -22.3930   -9.9720 C.2     1  UNL1        0.3270
      3  O         17.6240  -22.4090  -10.6040 O.2     1  UNL1       -0.2460
      4  N         19.8900  -22.2190  -10.6250 N.am    1  UNL1       -0.2990
      5  C         19.9120  -21.8260  -12.0370 C.3     1  UNL1        0.1380
      6  C         21.3620  -21.4680  -12.3630 C.3     1  UNL1        0.0620
      7  C         22.1000  -22.1430  -11.2440 C.2     1  UNL1       -0.0140
      8  C         23.4640  -22.3930  -11.1210 C.2     1  UNL1        0.0400
      9  C         23.9150  -23.1150  -10.0090 C.2     1  UNL1        0.0180
     10  C         23.0130  -23.5550   -9.0320 C.2     1  UNL1        0.0030
     11  C         21.6460  -23.2830   -9.1510 C.2     1  UNL1        0.0300
     12  C         21.2040  -22.5630  -10.2510 C.2     1  UNL1        0.0460
     13  H         19.6020  -22.0360   -8.2220 H       1  UNL1        0.1700
     14  C         17.7490  -22.7730   -7.6860 C.2     1  UNL1        0.0360
     15  C         16.5930  -22.0080   -7.5240 C.2     1  UNL1        0.0300
     16  C         15.6090  -22.3930   -6.6060 C.2     1  UNL1        0.0090
     17  C         15.7580  -23.5580   -5.8470 C.2     1  UNL1       -0.0620
     18  C         14.7110  -23.9460   -4.8450 C.3     1  UNL1        0.0480
     19  C         16.9170  -24.3250   -6.0060 C.2     1  UNL1        0.0090
     20  C         17.9000  -23.9380   -6.9240 C.2     1  UNL1        0.0300
     21  C         24.4630  -21.9780  -12.1360 C.2     1  UNL1        0.2520
     22  O         25.1540  -20.9830  -11.9470 O.2     1  UNL1       -0.2680
     23  N         24.5100  -22.7450  -13.2810 N.am    1  UNL1       -0.3520
     24  H         23.7270  -23.3580  -13.4680 H       1  UNL1        0.1630
     25  C         25.3620  -22.3690  -14.3980 C.3     1  UNL1        0.0840
     26  C         24.6270  -21.4280  -15.3680 C.3     1  UNL1        0.0250
     27  C         24.6680  -22.1150  -16.7310 C.3     1  UNL1        0.0020
     28  C         24.7810  -23.5940  -16.3960 C.3     1  UNL1        0.0020
     29  C         25.7540  -23.5970  -15.2260 C.3     1  UNL1        0.0250
@<TRIPOS>BOND
     1    27    28    1
     2    27    26    1
     3    28    29    1
     4    26    25    1
     5    29    25    1
     6    25    23    1
     7    24    23    1
     8    23    21   am
     9     6     5    1
    10     6     7    1
    11    21    22    2
    12    21     8    1
    13     5     4    1
    14     7     8    2
    15     7    12    1
    16     8     9    1
    17     4    12    1
    18     4     2   am
    19     3     2    2
    20    12    11    2
    21     9    10    2
    22     2     1   am
    23    11    10    1
    24     1    13    1
    25     1    14    1
    26    14    15    2
    27    14    20    1
    28    15    16    1
    29    20    19    2
    30    16    17    2
    31    19    17    1
    32    17    18    1
