@<TRIPOS>MOLECULE
62706_out_ligand_01.pdbqt
 33 37 0 0 0
SMALL
GASTEIGER

@<TRIPOS>ATOM
      1  C         21.2750  -22.6040   -8.2250 C.2     1  UNL1        0.0320
      2  C         20.6730  -21.6950   -7.3500 C.2     1  UNL1        0.0190
      3  C         19.4820  -22.0270   -6.6990 C.2     1  UNL1        0.0320
      4  C         18.8700  -23.2750   -6.9150 C.2     1  UNL1        0.0570
      5  C         19.5010  -24.1990   -7.7590 C.2     1  UNL1        0.0320
      6  C         20.6950  -23.8640   -8.4110 C.2     1  UNL1        0.0190
      7  C         22.5460  -22.2100   -8.9010 C.2     1  UNL1        0.2560
      8  O         23.0600  -21.1480   -8.5740 O.2     1  UNL1       -0.2670
      9  N         22.9830  -23.0940   -9.8700 N.am    1  UNL1       -0.3220
     10  H         22.3510  -23.8440  -10.1030 H       1  UNL1        0.1690
     11  C         24.1530  -23.0070  -10.6670 C.2     1  UNL1        0.0410
     12  C         25.3760  -23.5390  -10.2420 C.2     1  UNL1        0.0300
     13  C         26.5240  -23.4150  -11.0220 C.2     1  UNL1        0.0030
     14  C         26.4700  -22.7520  -12.2400 C.2     1  UNL1        0.0080
     15  C         25.2620  -22.2110  -12.7000 C.2     1  UNL1       -0.0500
     16  C         24.0830  -22.3630  -11.9300 C.2     1  UNL1       -0.0250
     17  C         25.2660  -21.5210  -14.0440 C.3     1  UNL1        0.0390
     18  C         22.7780  -21.7850  -12.4450 C.3     1  UNL1        0.0410
     19  C         22.7840  -21.4030  -13.9240 C.3     1  UNL1        0.0050
     20  C         24.0480  -20.6350  -14.2700 C.3     1  UNL1        0.0050
     21  N         17.6520  -23.5660   -6.2350 N.ar    1  UNL1       -0.2170
     22  N         17.6840  -24.1760   -5.0190 N.ar    1  UNL1        0.0030
     23  N         16.4270  -24.4280   -4.6940 N.ar    1  UNL1        0.0190
     24  N         15.5670  -23.9350   -5.6330 N.ar    1  UNL1       -0.1350
     25  C         16.3160  -23.3630   -6.5480 C.ar    1  UNL1        0.2030
     26  S         15.6600  -22.3940   -7.8260 S.3     1  UNL1       -0.0850
     27  C         16.2610  -23.2740   -9.2990 C.3     1  UNL1        0.1210
     28  C         17.1720  -22.4670  -10.1850 C.2     1  UNL1       -0.0490
     29  C         16.7970  -21.1910  -10.6290 C.2     1  UNL1        0.0080
     30  C         17.6480  -20.4450  -11.4470 C.2     1  UNL1        0.0010
     31  C         18.8790  -20.9690  -11.8330 C.2     1  UNL1        0.0000
     32  C         19.2610  -22.2380  -11.4050 C.2     1  UNL1        0.0010
     33  C         18.4130  -22.9850  -10.5860 C.2     1  UNL1        0.0080
@<TRIPOS>BOND
     1    20    17    1
     2    20    19    1
     3    17    15    1
     4    19    18    1
     5    15    14    2
     6    15    16    1
     7    18    16    1
     8    14    13    1
     9    16    11    2
    10    31    30    2
    11    31    32    1
    12    30    29    1
    13    32    33    2
    14    13    12    2
    15    11    12    1
    16    11     9    1
    17    29    28    2
    18    33    28    1
    19    28    27    1
    20    10     9    1
    21     9     7   am
    22    27    26    1
    23     7     8    2
    24     7     1    1
    25     6     1    2
    26     6     5    1
    27     1     2    1
    28    26    25    1
    29     5     4    2
    30     2     3    2
    31     4     3    1
    32     4    21    1
    33    25    21   ar
    34    25    24   ar
    35    21    22   ar
    36    24    23   ar
    37    22    23   ar
