@<TRIPOS>MOLECULE
62708_out_ligand_01.pdbqt
 29 32 0 0 0
SMALL
GASTEIGER

@<TRIPOS>ATOM
      1  C         21.7300  -22.5770   -9.5970 C.2     1  UNL1        0.0770
      2  C         20.8050  -22.5860  -10.6500 C.2     1  UNL1        0.0270
      3  C         19.4300  -22.5600  -10.3930 C.2     1  UNL1        0.0330
      4  C         19.0480  -22.5200   -9.0510 C.ar    1  UNL1        0.0620
      5  N         17.8190  -22.4850   -8.4410 N.ar    1  UNL1       -0.3380
      6  C         17.9960  -22.4530   -7.0760 C.ar    1  UNL1        0.1390
      7  N         19.2880  -22.4570   -6.7950 N.ar    1  UNL1       -0.2280
      8  C         19.9480  -22.4970   -7.9950 C.ar    1  UNL1        0.0870
      9  C         21.3230  -22.5170   -8.2570 C.2     1  UNL1        0.0580
     10  H         16.9320  -22.4740   -8.9190 H       1  UNL1        0.1670
     11  S         23.4710  -22.6210   -9.9530 S.O2    1  UNL1        0.2460
     12  O         24.0630  -23.6400   -9.1150 O.2     1  UNL1       -0.2060
     13  O         23.9650  -21.2600   -9.9430 O.2     1  UNL1       -0.2060
     14  N         23.5250  -23.2100  -11.5390 N.pl3   1  UNL1       -0.1780
     15  H         22.6130  -23.5830  -11.8140 H       1  UNL1        0.1460
     16  C         24.1940  -22.4280  -12.5300 C.2     1  UNL1        0.0610
     17  C         25.5830  -22.4500  -12.6510 C.2     1  UNL1        0.0290
     18  C         26.2100  -21.6390  -13.6010 C.2     1  UNL1        0.0210
     19  C         25.4440  -20.8110  -14.4270 C.2     1  UNL1        0.0140
     20 BR         26.3000  -19.7120  -15.7030 Br      1  UNL1       -0.0510
     21  C         24.0560  -20.7870  -14.3170 C.2     1  UNL1        0.0630
     22  C         23.4440  -21.5990  -13.3690 C.2     1  UNL1        0.1390
     23  F         22.1070  -21.5770  -13.2530 F       1  UNL1       -0.2040
     24  C         16.9040  -22.4110   -6.0930 C.2     1  UNL1        0.0100
     25  C         15.5770  -22.3810   -6.5510 C.2     1  UNL1        0.0150
     26  C         14.5060  -22.3410   -5.6540 C.2     1  UNL1        0.0010
     27  C         14.7470  -22.3280   -4.2840 C.2     1  UNL1        0.0000
     28  C         16.0570  -22.3530   -3.8110 C.2     1  UNL1        0.0010
     29  C         17.1290  -22.3930   -4.7090 C.2     1  UNL1        0.0150
@<TRIPOS>BOND
     1    20    19    1
     2    19    21    2
     3    19    18    1
     4    21    22    1
     5    18    17    2
     6    22    23    1
     7    22    16    2
     8    17    16    1
     9    16    14    1
    10    15    14    1
    11    14    11    1
    12     2     3    1
    13     2     1    2
    14     3     4    2
    15    11    13    2
    16    11     1    1
    17    11    12    2
    18     1     9    1
    19     4     5   ar
    20     4     8   ar
    21    10     5    1
    22     5     6   ar
    23     9     8    2
    24     8     7   ar
    25     6     7   ar
    26     6    24    1
    27    25    24    2
    28    25    26    1
    29    24    29    1
    30    26    27    2
    31    29    28    2
    32    27    28    1
