@<TRIPOS>MOLECULE
62703_out_ligand_01.pdbqt
 33 36 0 0 0
SMALL
GASTEIGER

@<TRIPOS>ATOM
      1  C         15.0740  -23.5750  -10.4190 C.3     1  UNL1        0.0730
      2  C         16.0440  -23.1960   -9.3590 C.ar    1  UNL1        0.0620
      3  N         15.6810  -23.2520   -8.0800 N.ar    1  UNL1       -0.1700
      4  N         16.7510  -22.7960   -7.3700 N.ar    1  UNL1       -0.2100
      5  C         17.8300  -22.5290   -8.2180 C.ar    1  UNL1        0.1790
      6  C         17.3780  -22.7560   -9.5140 C.ar    1  UNL1        0.0220
      7  C         18.1060  -22.5600  -10.8070 C.3     1  UNL1        0.0540
      8  C         18.1830  -21.0870  -11.2090 C.3     1  UNL1        0.1080
      9  C         19.6020  -20.6890  -11.5650 C.2     1  UNL1        0.2220
     10  O         20.0240  -19.5590  -11.3460 O.2     1  UNL1       -0.2730
     11  N         20.2920  -21.7240  -12.1750 N.am    1  UNL1       -0.3270
     12  H         19.7910  -22.5960  -12.2970 H       1  UNL1        0.1690
     13  C         21.6360  -21.7310  -12.6000 C.2     1  UNL1        0.0340
     14  C         22.1190  -20.9880  -13.6810 C.2     1  UNL1        0.0320
     15  C         23.4730  -21.0460  -14.0310 C.2     1  UNL1        0.0440
     16  C         24.3400  -21.8480  -13.3010 C.2     1  UNL1        0.1160
     17  F         25.6350  -21.9050  -13.6400 F       1  UNL1       -0.2060
     18  C         23.8810  -22.5940  -12.2230 C.2     1  UNL1        0.0440
     19  C         22.5290  -22.5340  -11.8730 C.2     1  UNL1        0.0320
     20  O         19.0010  -22.0870   -7.7450 O.3     1  UNL1       -0.2910
     21  C         20.1760  -22.6890   -8.1170 C.2     1  UNL1        0.0800
     22  C         20.1540  -24.0590   -8.3880 C.2     1  UNL1        0.0370
     23  C         21.3280  -24.7090   -8.7720 C.2     1  UNL1        0.0060
     24  C         22.5110  -23.9810   -8.9050 C.2     1  UNL1        0.0420
     25  C         22.5090  -22.6100   -8.6640 C.2     1  UNL1        0.1190
     26  F         23.6500  -21.9160   -8.7810 F       1  UNL1       -0.2060
     27  C         21.3470  -21.9490   -8.2820 C.2     1  UNL1        0.0790
     28  C         16.6430  -22.6930   -5.9450 C.2     1  UNL1        0.0610
     29  C         15.3720  -22.4980   -5.3750 C.2     1  UNL1        0.0310
     30  C         15.2140  -22.3970   -3.9900 C.2     1  UNL1        0.0020
     31  C         16.3220  -22.4850   -3.1550 C.2     1  UNL1        0.0000
     32  C         17.5880  -22.6720   -3.7060 C.2     1  UNL1        0.0020
     33  C         17.7510  -22.7760   -5.0920 C.2     1  UNL1        0.0310
@<TRIPOS>BOND
     1    15    14    1
     2    15    16    2
     3    14    13    2
     4    17    16    1
     5    16    18    1
     6    13    11    1
     7    13    19    1
     8    12    11    1
     9    18    19    2
    10    11     9   am
    11     9    10    2
    12     9     8    1
    13     8     7    1
    14     7     6    1
    15     1     2    1
    16     6     2   ar
    17     6     5   ar
    18     2     3   ar
    19    24    23    2
    20    24    25    1
    21    26    25    1
    22    23    22    1
    23    25    27    2
    24    22    21    2
    25    27    21    1
    26     5    20    1
    27     5     4   ar
    28    21    20    1
    29     3     4   ar
    30     4    28    1
    31    28    29    2
    32    28    33    1
    33    29    30    1
    34    33    32    2
    35    30    31    2
    36    32    31    1
