@<TRIPOS>MOLECULE
62717_out_ligand_01.pdbqt
 33 36 0 0 0
SMALL
GASTEIGER

@<TRIPOS>ATOM
      1  C         23.0070  -21.9260  -11.1400 C.2     1  UNL1        0.0360
      2  C         21.6410  -22.2080  -11.2850 C.2     1  UNL1        0.0300
      3  C         20.8190  -22.3570  -10.1620 C.2     1  UNL1        0.0190
      4  C         21.3580  -22.2160   -8.8800 C.2     1  UNL1        0.0320
      5  C         22.7110  -21.9000   -8.7310 C.2     1  UNL1        0.0190
      6  C         23.5320  -21.7610   -9.8560 C.2     1  UNL1        0.0300
      7  N         23.7650  -21.7860  -12.3170 N.am    1  UNL1       -0.3090
      8  C         24.4740  -22.7650  -12.9830 C.2     1  UNL1        0.3280
      9  N         25.2060  -22.2940  -14.0770 N.am    1  UNL1       -0.2890
     10  O         24.4050  -23.9660  -12.7300 O.2     1  UNL1       -0.2460
     11  C         25.4940  -23.2760  -15.1220 C.3     1  UNL1        0.2370
     12  C         25.8680  -21.0310  -14.1810 C.2     1  UNL1        0.0660
     13  C         25.7380  -22.7020  -16.5090 C.2     1  UNL1        0.2400
     14  O         25.6760  -23.3830  -17.5330 O.2     1  UNL1       -0.2710
     15  N         26.1650  -21.4050  -16.5710 N.am    1  UNL1       -0.3240
     16  C         26.3180  -20.5980  -15.4400 C.2     1  UNL1        0.0620
     17  H         26.4260  -21.0690  -17.4890 H       1  UNL1        0.1690
     18  C         26.9190  -19.3450  -15.6000 C.2     1  UNL1        0.0320
     19  C         27.1200  -18.5250  -14.4930 C.2     1  UNL1        0.0020
     20  C         26.7300  -18.9610  -13.2290 C.2     1  UNL1        0.0020
     21  C         26.1120  -20.2060  -13.0730 C.2     1  UNL1        0.0320
     22  H         23.6340  -20.9360  -12.8460 H       1  UNL1        0.1700
     23  C         20.5230  -22.3620   -7.6590 C.2     1  UNL1        0.2520
     24  O         20.7790  -21.7030   -6.6590 O.2     1  UNL1       -0.2680
     25  N         19.4980  -23.2810   -7.7340 N.am    1  UNL1       -0.3520
     26  H         19.3780  -23.8250   -8.5780 H       1  UNL1        0.1630
     27  C         18.5650  -23.4930   -6.6320 C.3     1  UNL1        0.0840
     28  C         17.5000  -24.5250   -7.0200 C.3     1  UNL1        0.0250
     29  C         16.4450  -24.0620   -8.0240 C.3     1  UNL1        0.0020
     30  C         15.6770  -22.7900   -7.6650 C.3     1  UNL1        0.0000
     31  C         15.4640  -22.5680   -6.1700 C.2     1  UNL1        0.0000
     32  C         16.7160  -22.2190   -5.3510 C.2     1  UNL1        0.0020
     33  C         18.0320  -22.1430   -6.1250 C.3     1  UNL1        0.0250
@<TRIPOS>BOND
     1    14    13    2
     2    17    15    1
     3    15    13   am
     4    15    16    1
     5    13    11    1
     6    18    16    1
     7    18    19    2
     8    16    12    2
     9    11     9    1
    10    19    20    1
    11    12     9    1
    12    12    21    1
    13     9     8   am
    14    20    21    2
    15     8    10    2
    16     8     7   am
    17    22     7    1
    18     7     1    1
    19     2     1    2
    20     2     3    1
    21     1     6    1
    22     3     4    2
    23     6     5    2
    24     4     5    1
    25     4    23    1
    26    26    25    1
    27    29    30    1
    28    29    28    1
    29    25    23   am
    30    25    27    1
    31    30    31    1
    32    23    24    2
    33    28    27    1
    34    27    33    1
    35    31    32    2
    36    33    32    1
