@<TRIPOS>MOLECULE
62719_out_ligand_01.pdbqt
 34 38 0 0 0
SMALL
GASTEIGER

@<TRIPOS>ATOM
      1  C         21.1130  -23.2740   -8.4990 C.2     1  UNL1        0.0320
      2  C         20.3860  -24.4660   -8.4580 C.2     1  UNL1        0.0190
      3  C         19.2350  -24.5530   -7.6650 C.2     1  UNL1        0.0320
      4  C         18.7940  -23.4600   -6.8900 C.2     1  UNL1        0.0570
      5  C         19.5420  -22.2790   -6.9270 C.2     1  UNL1        0.0320
      6  C         20.6950  -22.1900   -7.7220 C.2     1  UNL1        0.0190
      7  C         22.3440  -23.1290   -9.3280 C.2     1  UNL1        0.2560
      8  O         23.3130  -23.8220   -9.0460 O.2     1  UNL1       -0.2670
      9  N         22.2640  -22.1720  -10.3240 N.am    1  UNL1       -0.3230
     10  H         21.4400  -21.5870  -10.3330 H       1  UNL1        0.1690
     11  C         23.2440  -21.8560  -11.2890 C.2     1  UNL1        0.0370
     12  C         24.5270  -21.5460  -10.8150 C.2     1  UNL1        0.0320
     13  C         25.5540  -21.2030  -11.6990 C.2     1  UNL1        0.0420
     14  C         25.3030  -21.1610  -13.0650 C.2     1  UNL1        0.1020
     15  C         24.0340  -21.4920  -13.5500 C.2     1  UNL1        0.1040
     16  O         26.3470  -20.7940  -13.8720 O.2     1  UNL1       -0.3460
     17  C         23.0050  -21.8240  -12.6650 C.2     1  UNL1        0.0690
     18  O         23.7240  -21.5010  -14.8860 O.2     1  UNL1       -0.3460
     19  C         24.9060  -21.5010  -15.6960 C.3     1  UNL1        0.2020
     20  C         25.8960  -20.4650  -15.1920 C.3     1  UNL1        0.2020
     21  N         17.6060  -23.6160   -6.1090 N.ar    1  UNL1       -0.2170
     22  N         17.6680  -24.3130   -4.9360 N.ar    1  UNL1        0.0030
     23  N         16.4460  -24.3300   -4.4320 N.ar    1  UNL1        0.0190
     24  N         15.5780  -23.6540   -5.2330 N.ar    1  UNL1       -0.1350
     25  C         16.2840  -23.2050   -6.2500 C.ar    1  UNL1        0.2030
     26  S         15.5990  -22.2320   -7.5050 S.3     1  UNL1       -0.0850
     27  C         15.9880  -23.2460   -8.9650 C.3     1  UNL1        0.1210
     28  C         16.8910  -22.5250   -9.9370 C.2     1  UNL1       -0.0480
     29  C         18.0430  -23.1540  -10.4400 C.2     1  UNL1        0.0110
     30  C         18.8910  -22.4790  -11.3200 C.2     1  UNL1        0.0430
     31  C         18.5920  -21.1750  -11.6930 C.2     1  UNL1        0.1160
     32  F         19.4110  -20.5270  -12.5310 F       1  UNL1       -0.2060
     33  C         17.4610  -20.5340  -11.2050 C.2     1  UNL1        0.0430
     34  C         16.6100  -21.2060  -10.3280 C.2     1  UNL1        0.0110
@<TRIPOS>BOND
     1    19    20    1
     2    19    18    1
     3    20    16    1
     4    18    15    1
     5    16    14    1
     6    15    14    2
     7    15    17    1
     8    14    13    1
     9    17    11    2
    10    32    31    1
    11    13    12    2
    12    31    30    2
    13    31    33    1
    14    30    29    1
    15    11    12    1
    16    11     9    1
    17    33    34    2
    18    29    28    2
    19    10     9    1
    20    34    28    1
    21     9     7   am
    22    28    27    1
    23     7     8    2
    24     7     1    1
    25    27    26    1
    26     1     2    2
    27     1     6    1
    28     2     3    1
    29     6     5    2
    30     3     4    2
    31    26    25    1
    32     5     4    1
    33     4    21    1
    34    25    21   ar
    35    25    24   ar
    36    21    22   ar
    37    24    23   ar
    38    22    23   ar
