@<TRIPOS>MOLECULE
62725_out_ligand_01.pdbqt
 33 36 0 0 0
SMALL
GASTEIGER

@<TRIPOS>ATOM
      1  C         26.8100  -23.4290  -15.5610 C.3     1  UNL1        0.0480
      2  C         26.1230  -23.1500  -14.2560 C.2     1  UNL1       -0.0600
      3  C         26.6990  -23.5660  -13.0510 C.2     1  UNL1        0.0090
      4  C         26.0500  -23.3130  -11.8420 C.2     1  UNL1        0.0400
      5  C         24.8020  -22.6820  -11.8290 C.2     1  UNL1        0.1020
      6  C         24.1970  -22.2900  -13.0220 C.2     1  UNL1        0.0690
      7  C         24.8730  -22.5140  -14.2310 C.2     1  UNL1        0.0390
      8  N         22.9640  -21.6320  -13.0950 N.am    1  UNL1       -0.3200
      9  C         21.9240  -21.6120  -12.2020 C.2     1  UNL1        0.2590
     10  O         20.9170  -20.9580  -12.4820 O.2     1  UNL1       -0.2670
     11  C         21.9210  -22.4630  -10.9920 C.2     1  UNL1        0.0680
     12  C         20.6740  -22.9140  -10.5290 C.2     1  UNL1        0.0440
     13  C         20.5910  -23.7230   -9.3970 C.2     1  UNL1        0.0240
     14  C         21.7430  -24.0690   -8.6940 C.2     1  UNL1        0.0270
     15  C         22.9810  -23.6050   -9.1360 C.2     1  UNL1        0.0400
     16  C         23.0710  -22.8160  -10.2910 C.2     1  UNL1        0.0920
     17  O         24.3190  -22.3450  -10.5910 O.2     1  UNL1       -0.3070
     18  H         22.7180  -21.1830  -13.9700 H       1  UNL1        0.1690
     19  N         19.2970  -24.1450   -8.9460 N.pl3   1  UNL1       -0.1810
     20  H         19.3510  -24.4650   -7.9770 H       1  UNL1        0.1460
     21  S         18.1200  -22.8990   -8.9570 S.O2    1  UNL1        0.2460
     22  O         18.8460  -21.6800   -9.2430 O.2     1  UNL1       -0.2050
     23  O         17.0030  -23.2770   -9.7950 O.2     1  UNL1       -0.2050
     24  C         17.5970  -22.9240   -7.2180 C.2     1  UNL1        0.0870
     25  C         16.3930  -23.6060   -6.8670 C.2     1  UNL1       -0.0330
     26  C         15.6160  -24.4430   -7.8590 C.3     1  UNL1        0.0500
     27  C         15.8920  -23.4780   -5.5520 C.2     1  UNL1       -0.0540
     28  C         14.6030  -24.1240   -5.1110 C.3     1  UNL1        0.0490
     29  C         16.6140  -22.7420   -4.6050 C.2     1  UNL1        0.0140
     30  C         17.8260  -22.1160   -4.9210 C.2     1  UNL1       -0.0540
     31  C         18.5250  -21.3490   -3.8260 C.3     1  UNL1        0.0490
     32  C         18.3520  -22.2250   -6.2300 C.2     1  UNL1       -0.0330
     33  C         19.6860  -21.5820   -6.5300 C.3     1  UNL1        0.0500
@<TRIPOS>BOND
     1     1     2    1
     2     2     7    2
     3     2     3    1
     4     7     6    1
     5    18     8    1
     6     8     6    1
     7     8     9   am
     8     3     4    2
     9     6     5    2
    10    10     9    2
    11     9    11    1
    12     4     5    1
    13     5    17    1
    14    11    12    2
    15    11    16    1
    16    17    16    1
    17    12    13    1
    18    16    15    2
    19    23    21    2
    20    13    19    1
    21    13    14    2
    22    22    21    2
    23    15    14    1
    24    21    19    1
    25    21    24    1
    26    19    20    1
    27    26    25    1
    28    24    25    2
    29    24    32    1
    30    25    27    1
    31    33    32    1
    32    32    30    2
    33    27    28    1
    34    27    29    2
    35    30    29    1
    36    30    31    1
