@<TRIPOS>MOLECULE
62729_out_ligand_01.pdbqt
 36 39 0 0 0
SMALL
GASTEIGER

@<TRIPOS>ATOM
      1  C         16.3280  -22.2580  -10.4390 C.3     1  UNL1        0.0700
      2  C         17.7720  -22.0120  -10.7590 C.2     1  UNL1        0.0330
      3  C         18.1130  -21.1180  -11.7680 C.2     1  UNL1        0.0280
      4  C         19.4580  -20.9200  -12.0530 C.2     1  UNL1        0.0210
      5  C         20.4210  -21.6140  -11.3190 C.2     1  UNL1        0.0620
      6  C         21.8600  -21.4300  -11.6140 C.2     1  UNL1        0.2090
      7  O         22.2080  -20.6400  -12.4830 O.2     1  UNL1       -0.2860
      8  C         22.8210  -22.2230  -10.8290 C.2     1  UNL1        0.1300
      9  C         22.3370  -23.0380   -9.8820 C.2     1  UNL1        0.1210
     10  N         20.9980  -23.1800   -9.5600 N.pl3   1  UNL1       -0.3310
     11  C         20.0170  -22.4930  -10.3080 C.2     1  UNL1        0.1440
     12  N         18.6980  -22.7050  -10.0450 N.2     1  UNL1       -0.2350
     13  C         20.5170  -24.0950   -8.5110 C.3     1  UNL1        0.2330
     14  C         19.7100  -23.3450   -7.4450 C.2     1  UNL1        0.2400
     15  O         20.1540  -22.3250   -6.9210 O.2     1  UNL1       -0.2710
     16  N         18.4870  -23.9360   -7.1790 N.am    1  UNL1       -0.3260
     17  H         18.3280  -24.8250   -7.6560 H       1  UNL1        0.1690
     18  C         17.5040  -23.5260   -6.2590 C.2     1  UNL1        0.0370
     19  C         17.6010  -23.7140   -4.8760 C.2     1  UNL1        0.0320
     20  C         16.5770  -23.2790   -4.0250 C.2     1  UNL1        0.0480
     21  C         15.4590  -22.6510   -4.5590 C.2     1  UNL1        0.1540
     22  F         14.4860  -22.2280   -3.7410 F       1  UNL1       -0.2030
     23  C         15.3590  -22.4550   -5.9290 C.2     1  UNL1        0.1570
     24  F         14.2900  -21.8310   -6.4460 F       1  UNL1       -0.2030
     25  C         16.3700  -22.8900   -6.7810 C.2     1  UNL1        0.0750
     26  S         24.5140  -22.1600  -11.1350 S.O2    1  UNL1        0.2120
     27  O         24.9910  -20.7950  -10.9630 O.2     1  UNL1       -0.2170
     28  O         25.1820  -23.2320  -10.4200 O.2     1  UNL1       -0.2170
     29  C         24.6560  -22.4900  -12.8820 C.2     1  UNL1        0.0650
     30  C         24.5970  -21.4250  -13.7810 C.2     1  UNL1        0.0240
     31  C         24.7330  -21.6740  -15.1460 C.2     1  UNL1        0.0090
     32  C         24.9340  -22.9810  -15.6230 C.2     1  UNL1       -0.0560
     33  C         25.0880  -23.2040  -17.1030 C.3     1  UNL1        0.0490
     34  C         25.0260  -24.0490  -14.7050 C.2     1  UNL1       -0.0550
     35  C         25.2510  -25.4640  -15.1650 C.3     1  UNL1        0.0490
     36  C         24.8830  -23.7920  -13.3330 C.2     1  UNL1        0.0310
@<TRIPOS>BOND
     1    33    32    1
     2    32    31    2
     3    32    34    1
     4    35    34    1
     5    31    30    1
     6    34    36    2
     7    30    29    2
     8    36    29    1
     9    29    26    1
    10     7     6    2
    11     4     3    1
    12     4     5    2
    13     3     2    2
    14     6     5    1
    15     6     8    1
    16     5    11    1
    17    26    27    2
    18    26     8    1
    19    26    28    2
    20     8     9    2
    21     2     1    1
    22     2    12    1
    23    11    12    2
    24    11    10    1
    25     9    10    1
    26    10    13    1
    27    13    14    1
    28    17    16    1
    29    14    16   am
    30    14    15    2
    31    16    18    1
    32    25    18    2
    33    25    23    1
    34    24    23    1
    35    18    19    1
    36    23    21    2
    37    19    20    2
    38    21    20    1
    39    21    22    1
