@<TRIPOS>MOLECULE
62742_out_ligand_01.pdbqt
 33 36 0 0 0
SMALL
GASTEIGER

@<TRIPOS>ATOM
      1  C         21.7950  -22.9450   -8.9030 C.2     1  UNL1        0.0320
      2  C         20.9890  -22.1420   -8.0830 C.2     1  UNL1        0.0200
      3  C         19.8420  -22.6780   -7.4900 C.2     1  UNL1        0.0380
      4  C         19.5160  -24.0200   -7.7000 C.2     1  UNL1        0.0780
      5  C         20.3070  -24.8220   -8.5220 C.2     1  UNL1        0.0380
      6  C         21.4520  -24.2880   -9.1130 C.2     1  UNL1        0.0200
      7  O         18.3650  -24.5670   -7.1890 O.2     1  UNL1       -0.2900
      8  C         17.4570  -23.7010   -6.5860 C.2     1  UNL1        0.2060
      9  N         17.7170  -23.2100   -5.3440 N.2     1  UNL1       -0.2330
     10  C         16.7670  -22.3990   -4.8290 C.2     1  UNL1        0.1380
     11  C         15.6020  -22.0920   -5.5120 C.2     1  UNL1        0.1370
     12  N         15.3340  -22.5790   -6.7450 N.2     1  UNL1       -0.2480
     13  C         16.2810  -23.3940   -7.2810 C.2     1  UNL1        0.1510
     14  S         15.9360  -24.0240   -8.9130 S.3     1  UNL1       -0.0660
     15  C         16.8850  -22.8690   -9.8810 C.2     1  UNL1        0.0070
     16  C         18.0830  -23.2730  -10.4810 C.2     1  UNL1        0.0220
     17  C         18.8280  -22.3660  -11.2410 C.2     1  UNL1        0.0430
     18  C         18.3650  -21.0680  -11.4060 C.2     1  UNL1        0.1160
     19  F         19.0730  -20.2010  -12.1420 F       1  UNL1       -0.2060
     20  C         17.1750  -20.6530  -10.8190 C.2     1  UNL1        0.0430
     21  C         16.4330  -21.5550  -10.0540 C.2     1  UNL1        0.0220
     22  C         23.0260  -22.4230   -9.5560 C.2     1  UNL1        0.2510
     23  O         23.3900  -21.2720   -9.3440 O.2     1  UNL1       -0.2680
     24  N         23.7210  -23.3110  -10.3520 N.am    1  UNL1       -0.3530
     25  H         23.5040  -24.2930  -10.2840 H       1  UNL1        0.1630
     26  C         25.0100  -22.9650  -10.9070 C.3     1  UNL1        0.1610
     27  C         24.9350  -22.8430  -12.4090 C.2     1  UNL1       -0.0400
     28  C         25.4230  -23.8740  -13.2280 C.2     1  UNL1        0.0120
     29  C         25.3300  -23.7800  -14.6150 C.2     1  UNL1        0.0430
     30  C         24.7460  -22.6580  -15.1860 C.2     1  UNL1        0.1160
     31  F         24.6520  -22.5670  -16.5180 F       1  UNL1       -0.2060
     32  C         24.2500  -21.6270  -14.3950 C.2     1  UNL1        0.0430
     33  C         24.3410  -21.7190  -13.0060 C.2     1  UNL1        0.0120
@<TRIPOS>BOND
     1    31    30    1
     2    30    29    2
     3    30    32    1
     4    29    28    1
     5    32    33    2
     6    28    27    2
     7    33    27    1
     8    27    26    1
     9    19    18    1
    10    18    17    2
    11    18    20    1
    12    17    16    1
    13    26    24    1
    14    20    21    2
    15    16    15    2
    16    24    25    1
    17    24    22   am
    18    21    15    1
    19    15    14    1
    20    22    23    2
    21    22     1    1
    22     6     1    2
    23     6     5    1
    24    14    13    1
    25     1     2    1
    26     5     4    2
    27     2     3    2
    28     4     3    1
    29     4     7    1
    30    13    12    2
    31    13     8    1
    32     7     8    1
    33    12    11    1
    34     8     9    2
    35    11    10    2
    36     9    10    1
