@<TRIPOS>MOLECULE
6274_out_ligand_01.pdbqt
 32 34 0 0 0
SMALL
GASTEIGER

@<TRIPOS>ATOM
      1  C         21.0620  -23.1310   -9.9130 C.2     1  UNL1        0.0340
      2  C         20.0300  -22.3810  -10.4840 C.2     1  UNL1        0.0310
      3  C         18.7220  -22.4870   -9.9990 C.2     1  UNL1        0.0270
      4  C         18.4440  -23.3570   -8.9440 C.2     1  UNL1        0.0800
      5  C         19.4670  -24.1010   -8.3520 C.2     1  UNL1        0.0270
      6  C         20.7710  -23.9860   -8.8400 C.2     1  UNL1        0.0310
      7  N         22.3990  -23.0790  -10.3430 N.am    1  UNL1       -0.3250
      8  C         23.3400  -22.0940  -10.0950 C.2     1  UNL1        0.2460
      9  O         23.1730  -21.0690   -9.4400 O.2     1  UNL1       -0.2710
     10  H         22.7110  -23.8210  -10.9630 H       1  UNL1        0.1690
     11  C         24.7070  -22.4130  -10.7140 C.3     1  UNL1        0.2780
     12  O         25.1600  -21.4730  -11.6830 O.2     1  UNL1       -0.3420
     13  C         24.9780  -21.7770  -13.0050 C.2     1  UNL1        0.0690
     14  C         24.5200  -20.9100  -13.9920 C.2     1  UNL1        0.0370
     15  C         24.3590  -21.3690  -15.3040 C.2     1  UNL1        0.0100
     16  C         24.6500  -22.6970  -15.6480 C.2     1  UNL1       -0.0560
     17  C         24.4630  -23.1480  -17.0720 C.3     1  UNL1        0.0490
     18  C         25.1070  -23.5780  -14.6510 C.2     1  UNL1       -0.0530
     19  C         25.2640  -23.1030  -13.3390 C.2     1  UNL1        0.0440
     20  C         25.4370  -25.0120  -14.9620 C.3     1  UNL1        0.0490
     21  S         16.7900  -23.4900   -8.3150 S.O2    1  UNL1        0.2630
     22  O         16.7010  -24.6630   -7.4750 O.2     1  UNL1       -0.2000
     23  O         15.8930  -23.3110   -9.4390 O.2     1  UNL1       -0.2000
     24  N         16.6330  -22.0930   -7.3760 N.pl3   1  UNL1       -0.2800
     25  H         15.9540  -21.4550   -7.7870 H       1  UNL1        0.1790
     26  C         16.6300  -22.2310   -5.9590 C.2     1  UNL1        0.0480
     27  C         15.4380  -22.6040   -5.3290 C.2     1  UNL1        0.0300
     28  C         15.3790  -22.7070   -3.9400 C.2     1  UNL1        0.0020
     29  C         16.5110  -22.4320   -3.1760 C.2     1  UNL1        0.0010
     30  C         17.7010  -22.0570   -3.8020 C.2     1  UNL1        0.0090
     31  C         17.7780  -21.9540   -5.2000 C.2     1  UNL1       -0.0350
     32  C         19.0700  -21.5220   -5.8360 C.3     1  UNL1        0.0500
@<TRIPOS>BOND
     1    17    16    1
     2    16    15    2
     3    16    18    1
     4    15    14    1
     5    20    18    1
     6    18    19    2
     7    14    13    2
     8    19    13    1
     9    13    12    1
    10    12    11    1
    11    10     7    1
    12    11     8    1
    13     2     3    1
    14     2     1    2
    15     7     8   am
    16     7     1    1
    17     8     9    2
    18     3     4    2
    19     1     6    1
    20    23    21    2
    21     4     5    1
    22     4    21    1
    23     6     5    2
    24    21    22    2
    25    21    24    1
    26    25    24    1
    27    24    26    1
    28    26    27    2
    29    26    31    1
    30    32    31    1
    31    27    28    1
    32    31    30    2
    33    28    29    2
    34    30    29    1
