@<TRIPOS>MOLECULE
62753_out_ligand_01.pdbqt
 32 35 0 0 0
SMALL
GASTEIGER

@<TRIPOS>ATOM
      1  C         22.0440  -22.9290   -8.9480 C.2     1  UNL1        0.0320
      2  C         21.2060  -22.1550   -8.1360 C.2     1  UNL1        0.0200
      3  C         20.0030  -22.6810   -7.6530 C.2     1  UNL1        0.0380
      4  C         19.6410  -23.9950   -7.9630 C.2     1  UNL1        0.0780
      5  C         20.4750  -24.7690   -8.7750 C.2     1  UNL1        0.0380
      6  C         21.6780  -24.2450   -9.2600 C.2     1  UNL1        0.0200
      7  O         18.4820  -24.6100   -7.5460 O.2     1  UNL1       -0.2900
      8  C         17.5250  -23.8030   -6.9690 C.2     1  UNL1        0.2060
      9  N         17.7710  -23.4140   -5.6880 N.2     1  UNL1       -0.2330
     10  C         16.8500  -22.5860   -5.1520 C.2     1  UNL1        0.1380
     11  C         15.7380  -22.1560   -5.8550 C.2     1  UNL1        0.1370
     12  N         15.4960  -22.5260   -7.1330 N.2     1  UNL1       -0.2480
     13  C         16.4150  -23.3550   -7.6980 C.2     1  UNL1        0.1510
     14  S         16.1130  -23.8130   -9.3930 S.3     1  UNL1       -0.0660
     15  C         17.0940  -22.5780  -10.2220 C.2     1  UNL1        0.0070
     16  C         16.6210  -21.2710  -10.3730 C.2     1  UNL1        0.0190
     17  C         17.3960  -20.3110  -11.0280 C.2     1  UNL1        0.0010
     18  C         18.6460  -20.6550  -11.5390 C.2     1  UNL1        0.0000
     19  C         19.1210  -21.9590  -11.4020 C.2     1  UNL1        0.0010
     20  C         18.3460  -22.9200  -10.7460 C.2     1  UNL1        0.0190
     21  C         23.3170  -22.3250   -9.4320 C.2     1  UNL1        0.2510
     22  N         24.3070  -23.2030   -9.8070 N.am    1  UNL1       -0.3530
     23  H         24.0820  -24.1770   -9.9610 H       1  UNL1        0.1630
     24  O         23.4350  -21.1070   -9.5080 O.2     1  UNL1       -0.2680
     25  C         25.5470  -22.7150  -10.3660 C.3     1  UNL1        0.1620
     26  C         25.3520  -22.3070  -11.8060 C.2     1  UNL1       -0.0350
     27  C         24.7320  -23.2190  -12.6800 C.2     1  UNL1        0.0090
     28  C         24.4960  -22.8880  -14.0140 C.2     1  UNL1        0.0010
     29  C         24.8700  -21.6360  -14.4910 C.2     1  UNL1        0.0010
     30  C         25.4720  -20.7140  -13.6340 C.2     1  UNL1        0.0070
     31  C         25.7120  -21.0310  -12.2870 C.2     1  UNL1       -0.0540
     32  C         26.3710  -20.0080  -11.4030 C.3     1  UNL1        0.0490
@<TRIPOS>BOND
     1    29    28    2
     2    29    30    1
     3    28    27    1
     4    30    31    2
     5    27    26    2
     6    31    26    1
     7    31    32    1
     8    26    25    1
     9    18    19    2
    10    18    17    1
    11    19    20    1
    12    17    16    2
    13    20    15    2
    14    16    15    1
    15    25    22    1
    16    15    14    1
    17    23    22    1
    18    22    21   am
    19    24    21    2
    20    21     1    1
    21    14    13    1
    22     6     1    2
    23     6     5    1
    24     1     2    1
    25     5     4    2
    26     2     3    2
    27     4     3    1
    28     4     7    1
    29    13    12    2
    30    13     8    1
    31     7     8    1
    32    12    11    1
    33     8     9    2
    34    11    10    2
    35     9    10    1
