@<TRIPOS>MOLECULE
62766_out_ligand_01.pdbqt
 31 34 0 0 0
SMALL
GASTEIGER

@<TRIPOS>ATOM
      1  C         21.0770  -22.5370  -10.8060 C.2     1  UNL1       -0.0380
      2  C         20.5800  -21.7870  -11.8910 C.2     1  UNL1        0.0090
      3  C         19.2530  -21.3550  -11.9180 C.2     1  UNL1        0.0100
      4  C         18.4300  -21.6960  -10.8560 C.2     1  UNL1       -0.0290
      5  C         18.9030  -22.4470   -9.7790 C.2     1  UNL1        0.0440
      6  C         20.2220  -22.8690   -9.7410 C.2     1  UNL1        0.0390
      7  N         17.8730  -22.6460   -8.8310 N.am    1  UNL1       -0.3090
      8  C         18.0250  -23.3340   -7.6330 C.2     1  UNL1        0.2580
      9  O         19.0150  -23.9710   -7.2850 O.2     1  UNL1       -0.2670
     10  C         16.6040  -22.1450   -9.4300 C.3     1  UNL1        0.0930
     11  C         15.7040  -23.3010   -9.8740 C.3     1  UNL1        0.0330
     12  C         17.0100  -21.2790  -10.6420 C.3     1  UNL1        0.0660
     13  C         22.5160  -22.9880  -10.7990 C.3     1  UNL1        0.1610
     14  N         23.3470  -22.0540  -11.5220 N.am    1  UNL1       -0.3530
     15  C         24.7120  -21.9920  -11.3730 C.2     1  UNL1        0.2540
     16  O         25.3310  -22.7710  -10.6520 O.2     1  UNL1       -0.2680
     17  H         22.8900  -21.3430  -12.0830 H       1  UNL1        0.1630
     18  C         25.4470  -20.9290  -12.1420 C.2     1  UNL1        0.0650
     19  C         26.3750  -20.1660  -11.4050 C.2     1  UNL1        0.0200
     20  C         27.1180  -19.1550  -12.0100 C.2     1  UNL1        0.0010
     21  C         26.9420  -18.8880  -13.3640 C.2     1  UNL1        0.0030
     22  C         26.0250  -19.6310  -14.1120 C.2     1  UNL1        0.0380
     23  C         25.2670  -20.6530  -13.5170 C.2     1  UNL1        0.0840
     24  O         24.3560  -21.4090  -14.2090 O.2     1  UNL1       -0.3550
     25  C         24.8440  -22.3380  -15.1730 C.3     1  UNL1        0.2100
     26  C         16.8940  -23.3170   -6.6760 C.2     1  UNL1        0.0320
     27  C         16.7300  -22.2030   -5.8440 C.2     1  UNL1        0.0170
     28  C         15.6600  -22.1590   -4.9510 C.2     1  UNL1        0.0010
     29  C         14.7420  -23.2130   -4.9110 C.2     1  UNL1        0.0000
     30  C         14.8850  -24.3060   -5.7680 C.2     1  UNL1        0.0010
     31  C         15.9600  -24.3590   -6.6580 C.2     1  UNL1        0.0170
@<TRIPOS>BOND
     1    25    24    1
     2    24    23    1
     3    22    23    1
     4    22    21    2
     5    23    18    2
     6    21    20    1
     7    18    19    1
     8    18    15    1
     9    17    14    1
    10    20    19    2
    11     3     2    1
    12     3     4    2
    13     2     1    2
    14    14    15   am
    15    14    13    1
    16    15    16    2
    17     4    12    1
    18     4     5    1
    19     1    13    1
    20     1     6    1
    21    12    10    1
    22    11    10    1
    23     5     6    2
    24     5     7    1
    25    10     7    1
    26     7     8   am
    27     8     9    2
    28     8    26    1
    29    26    31    2
    30    26    27    1
    31    31    30    1
    32    27    28    2
    33    30    29    2
    34    28    29    1
