@<TRIPOS>MOLECULE
62761_out_ligand_01.pdbqt
 35 38 0 0 0
SMALL
GASTEIGER

@<TRIPOS>ATOM
      1  C         21.0840  -21.7590  -11.5920 C.2     1  UNL1       -0.0380
      2  C         20.1370  -21.3770  -12.5660 C.2     1  UNL1        0.0090
      3  C         18.7810  -21.2750  -12.2490 C.2     1  UNL1        0.0100
      4  C         18.3840  -21.5710  -10.9540 C.2     1  UNL1       -0.0300
      5  C         19.3080  -21.9580   -9.9830 C.2     1  UNL1        0.0440
      6  C         20.6580  -22.0490  -10.2840 C.2     1  UNL1        0.0390
      7  N         18.6510  -22.2270   -8.7670 N.am    1  UNL1       -0.3130
      8  C         19.2790  -22.5420   -7.5720 C.2     1  UNL1        0.2580
      9  O         20.4900  -22.5440   -7.3660 O.2     1  UNL1       -0.2670
     10  C         17.2000  -22.0830   -8.9870 C.2     1  UNL1        0.1370
     11  C         17.0040  -21.4870  -10.3860 C.2     1  UNL1        0.0610
     12  C         22.5460  -21.8550  -11.9520 C.3     1  UNL1        0.1630
     13  N         22.7750  -21.4060  -13.3080 N.am    1  UNL1       -0.3390
     14  C         24.0300  -21.4080  -13.8760 C.2     1  UNL1        0.3210
     15  N         23.9770  -20.9970  -15.1890 N.am    1  UNL1       -0.3080
     16  O         25.0330  -21.7260  -13.2510 O.2     1  UNL1       -0.2470
     17  H         23.0510  -20.7570  -15.5380 H       1  UNL1        0.1700
     18  H         21.9690  -21.3660  -13.9130 H       1  UNL1        0.1640
     19  C         25.0360  -20.8280  -16.1160 C.2     1  UNL1        0.0520
     20  C         25.7560  -19.6290  -16.2110 C.2     1  UNL1        0.0300
     21  C         26.7870  -19.4790  -17.1410 C.2     1  UNL1        0.0020
     22  C         27.1210  -20.5230  -17.9930 C.2     1  UNL1        0.0010
     23  C         26.4240  -21.7280  -17.9140 C.2     1  UNL1        0.0200
     24  C         25.3810  -21.8950  -16.9820 C.2     1  UNL1        0.0660
     25  C         24.6470  -23.1970  -16.9080 C.2     1  UNL1        0.2950
     26  O         23.4550  -23.3180  -17.1540 O.2     1  UNL1       -0.2590
     27  O         25.4750  -24.2060  -16.5340 O.3     1  UNL1       -0.3220
     28  C         25.2210  -24.7230  -15.2270 C.3     1  UNL1        0.2130
     29  C         18.4120  -22.8820   -6.4210 C.2     1  UNL1        0.0320
     30  C         18.2130  -21.9670   -5.3850 C.2     1  UNL1        0.0170
     31  C         17.3770  -22.3030   -4.3170 C.2     1  UNL1        0.0070
     32  C         16.7330  -23.5490   -4.2860 C.2     1  UNL1       -0.0620
     33  C         15.8060  -23.8900   -3.1540 C.3     1  UNL1        0.0480
     34  C         16.9090  -24.4420   -5.3510 C.2     1  UNL1        0.0070
     35  C         17.7450  -24.1100   -6.4200 C.2     1  UNL1        0.0170
@<TRIPOS>BOND
     1    22    23    2
     2    22    21    1
     3    23    24    1
     4    26    25    2
     5    21    20    2
     6    24    25    1
     7    24    19    2
     8    25    27    1
     9    27    28    1
    10    20    19    1
    11    19    15    1
    12    17    15    1
    13    15    14   am
    14    18    13    1
    15    14    13   am
    16    14    16    2
    17    13    12    1
    18     2     3    1
    19     2     1    2
    20     3     4    2
    21    12     1    1
    22     1     6    1
    23     4    11    1
    24     4     5    1
    25    11    10    2
    26     6     5    2
    27     5     7    1
    28    10     7    1
    29     7     8   am
    30     8     9    2
    31     8    29    1
    32    29    35    2
    33    29    30    1
    34    35    34    1
    35    30    31    2
    36    34    32    2
    37    31    32    1
    38    32    33    1
