@<TRIPOS>MOLECULE
62767_out_ligand_01.pdbqt
 32 35 0 0 0
SMALL
GASTEIGER

@<TRIPOS>ATOM
      1  C         21.9680  -22.9120   -8.9060 C.2     1  UNL1        0.0320
      2  C         21.5590  -24.2180   -9.2020 C.2     1  UNL1        0.0200
      3  C         20.3760  -24.7230   -8.6620 C.2     1  UNL1        0.0380
      4  C         19.5870  -23.9300   -7.8240 C.2     1  UNL1        0.0780
      5  C         20.0090  -22.6380   -7.4970 C.2     1  UNL1        0.0380
      6  C         21.1970  -22.1290   -8.0370 C.2     1  UNL1        0.0200
      7  O         18.4410  -24.5310   -7.3540 O.2     1  UNL1       -0.2900
      8  C         17.4750  -23.7110   -6.8170 C.2     1  UNL1        0.2060
      9  N         17.6750  -23.3360   -5.5250 N.2     1  UNL1       -0.2330
     10  C         16.6990  -22.5750   -4.9870 C.2     1  UNL1        0.1380
     11  C         15.5700  -22.2050   -5.6980 C.2     1  UNL1        0.1370
     12  N         15.3610  -22.5820   -6.9800 N.2     1  UNL1       -0.2480
     13  C         16.3280  -23.3590   -7.5410 C.2     1  UNL1        0.1510
     14  S         16.0240  -23.8540   -9.2250 S.3     1  UNL1       -0.0660
     15  C         17.0150  -22.6700  -10.1150 C.2     1  UNL1        0.0070
     16  C         18.2630  -23.0180  -10.6450 C.2     1  UNL1        0.0190
     17  C         19.0210  -22.0730  -11.3380 C.2     1  UNL1        0.0010
     18  C         18.5340  -20.7790  -11.5150 C.2     1  UNL1        0.0000
     19  C         17.2840  -20.4300  -11.0050 C.2     1  UNL1        0.0010
     20  C         16.5250  -21.3740  -10.3100 C.2     1  UNL1        0.0190
     21  C         23.2370  -22.4130   -9.5060 C.2     1  UNL1        0.2510
     22  O         23.5490  -21.2330   -9.4020 O.2     1  UNL1       -0.2680
     23  N         24.0260  -23.3530  -10.1340 N.am    1  UNL1       -0.3530
     24  H         23.8640  -24.3290   -9.9270 H       1  UNL1        0.1630
     25  C         25.3500  -23.0000  -10.5970 C.3     1  UNL1        0.1640
     26  C         25.2970  -22.4360  -11.9860 C.2     1  UNL1       -0.0020
     27  C         24.9410  -23.2480  -13.0740 C.2     1  UNL1        0.0120
     28  C         24.9080  -22.7230  -14.3680 C.2     1  UNL1        0.0010
     29  C         25.2380  -21.3870  -14.5910 C.2     1  UNL1        0.0030
     30  C         25.6040  -20.5740  -13.5190 C.2     1  UNL1        0.0430
     31  C         25.6320  -21.1030  -12.2310 C.2     1  UNL1        0.1240
     32  F         25.9990  -20.3070  -11.2160 F       1  UNL1       -0.2050
@<TRIPOS>BOND
     1    29    28    2
     2    29    30    1
     3    28    27    1
     4    30    31    2
     5    27    26    2
     6    31    26    1
     7    31    32    1
     8    26    25    1
     9    18    17    2
    10    18    19    1
    11    17    16    1
    12    19    20    2
    13    16    15    2
    14    25    23    1
    15    20    15    1
    16    23    24    1
    17    23    21   am
    18    15    14    1
    19    21    22    2
    20    21     1    1
    21    14    13    1
    22     2     1    2
    23     2     3    1
    24     1     6    1
    25     3     4    2
    26     6     5    2
    27     4     5    1
    28     4     7    1
    29    13    12    2
    30    13     8    1
    31     7     8    1
    32    12    11    1
    33     8     9    2
    34    11    10    2
    35     9    10    1
