@<TRIPOS>MOLECULE
62778_out_ligand_01.pdbqt
 32 35 0 0 0
SMALL
GASTEIGER

@<TRIPOS>ATOM
      1  C         17.4500  -22.0570  -10.3970 C.2     1  UNL1        0.1580
      2  C         18.8110  -22.1860  -10.6150 C.2     1  UNL1        0.1460
      3  N         19.1090  -21.1740  -11.4860 N.pl3   1  UNL1       -0.2810
      4  N         18.0090  -20.4700  -11.8040 N.2     1  UNL1        0.0050
      5  N         16.9890  -20.9920  -11.1370 N.2     1  UNL1       -0.1530
      6  C         20.3940  -20.9110  -12.1080 C.3     1  UNL1        0.1710
      7  C         21.4960  -21.9270  -11.7720 C.3     1  UNL1        0.1130
      8  C         22.1220  -21.6680  -10.3970 C.3     1  UNL1        0.1070
      9  C         23.2680  -22.6670  -10.3940 C.3     1  UNL1        0.2610
     10  F         22.8110  -23.8840  -10.0000 F       1  UNL1       -0.2040
     11  F         24.2370  -22.2900   -9.5310 F       1  UNL1       -0.2040
     12  C         23.7580  -22.7110  -11.8460 C.3     1  UNL1        0.2050
     13  N         22.6900  -22.0690  -12.6240 N.am    1  UNL1       -0.3330
     14  C         22.9560  -21.3150  -13.7770 C.2     1  UNL1        0.2920
     15  O         22.2850  -20.3210  -14.0640 O.2     1  UNL1       -0.2640
     16  C         24.1140  -21.7280  -14.6750 C.2     1  UNL1        0.2180
     17  N         23.8020  -22.4690  -15.7650 N.2     1  UNL1       -0.2370
     18  C         24.8420  -22.8790  -16.5160 C.2     1  UNL1        0.1200
     19  C         26.1580  -22.5750  -16.2270 C.2     1  UNL1        0.0380
     20  C         26.3650  -21.8020  -15.1040 C.2     1  UNL1        0.1200
     21  N         25.3680  -21.3550  -14.3150 N.2     1  UNL1       -0.2370
     22  C         16.5620  -22.8650   -9.5720 C.2     1  UNL1        0.2730
     23  O         15.3510  -22.9330   -9.7610 O.2     1  UNL1       -0.2660
     24  N         17.1820  -23.5570   -8.5520 N.am    1  UNL1       -0.3510
     25  H         18.1440  -23.3530   -8.3230 H       1  UNL1        0.1630
     26  C         16.4130  -24.3390   -7.6110 C.3     1  UNL1        0.1610
     27  C         16.3170  -23.6260   -6.2910 C.2     1  UNL1       -0.0410
     28  C         17.4610  -23.4720   -5.4920 C.2     1  UNL1        0.0090
     29  C         17.3850  -22.8040   -4.2680 C.2     1  UNL1        0.0010
     30  C         16.1680  -22.2720   -3.8390 C.2     1  UNL1        0.0000
     31  C         15.0330  -22.4010   -4.6290 C.2     1  UNL1        0.0010
     32  C         15.1050  -23.0720   -5.8530 C.2     1  UNL1        0.0090
@<TRIPOS>BOND
     1    18    19    2
     2    18    17    1
     3    19    20    1
     4    17    16    2
     5    20    21    2
     6    16    21    1
     7    16    14    1
     8    15    14    2
     9    14    13   am
    10    13    12    1
    11    13     7    1
    12     6     7    1
    13     6     3    1
    14    12     9    1
    15     4     3    1
    16     4     5    2
    17     7     8    1
    18     3     2    1
    19     5     1    1
    20     2     1    2
    21     8     9    1
    22     1    22    1
    23     9    10    1
    24     9    11    1
    25    23    22    2
    26    22    24   am
    27    24    25    1
    28    24    26    1
    29    26    27    1
    30    27    32    2
    31    27    28    1
    32    32    31    1
    33    28    29    2
    34    31    30    2
    35    29    30    1
