@<TRIPOS>MOLECULE
62786_out_ligand_01.pdbqt
 30 33 0 0 0
SMALL
GASTEIGER

@<TRIPOS>ATOM
      1  C         21.9680  -22.8910   -8.9340 C.2     1  UNL1        0.0320
      2  C         21.1580  -22.1070   -8.1040 C.2     1  UNL1        0.0200
      3  C         19.9820  -22.6330   -7.5620 C.2     1  UNL1        0.0380
      4  C         19.6120  -23.9510   -7.8420 C.2     1  UNL1        0.0780
      5  C         20.4360  -24.7440   -8.6460 C.2     1  UNL1        0.0380
      6  C         21.6100  -24.2190   -9.1950 C.2     1  UNL1        0.0200
      7  O         18.4880  -24.5810   -7.3520 O.2     1  UNL1       -0.2900
      8  C         17.5400  -23.7860   -6.7430 C.2     1  UNL1        0.2060
      9  N         17.7970  -23.4270   -5.4560 N.2     1  UNL1       -0.2330
     10  C         16.8340  -22.6870   -4.8620 C.2     1  UNL1        0.1380
     11  C         15.6640  -22.3290   -5.5140 C.2     1  UNL1        0.1370
     12  N         15.3940  -22.7030   -6.7870 N.2     1  UNL1       -0.2480
     13  C         16.3490  -23.4520   -7.4020 C.2     1  UNL1        0.1510
     14  S         15.9720  -23.9820   -9.0630 S.3     1  UNL1       -0.0660
     15  C         16.9610  -22.8230   -9.9900 C.2     1  UNL1        0.0070
     16  C         18.1800  -23.2150  -10.5590 C.2     1  UNL1        0.0220
     17  C         18.9460  -22.2980  -11.2810 C.2     1  UNL1        0.0430
     18  C         18.4870  -20.9940  -11.4360 C.2     1  UNL1        0.1160
     19  F         19.2220  -20.1140  -12.1290 F       1  UNL1       -0.2060
     20  C         17.2740  -20.5920  -10.8880 C.2     1  UNL1        0.0430
     21  C         16.5070  -21.5090  -10.1680 C.2     1  UNL1        0.0220
     22  C         23.2170  -22.2900   -9.4780 C.2     1  UNL1        0.2520
     23  O         23.4820  -21.1130   -9.2570 O.2     1  UNL1       -0.2680
     24  N         24.0030  -23.1150  -10.2600 N.am    1  UNL1       -0.3520
     25  H         23.5790  -23.9540  -10.6380 H       1  UNL1        0.1630
     26  C         25.1990  -22.6010  -10.9120 C.3     1  UNL1        0.0840
     27  C         24.8540  -21.7600  -12.1360 C.3     1  UNL1        0.0250
     28  C         24.5750  -22.7910  -13.2200 C.3     1  UNL1        0.0020
     29  C         25.5540  -23.9300  -12.9400 C.3     1  UNL1        0.0020
     30  C         26.0500  -23.7300  -11.5020 C.3     1  UNL1        0.0250
@<TRIPOS>BOND
     1    28    29    1
     2    28    27    1
     3    29    30    1
     4    27    26    1
     5    19    18    1
     6    30    26    1
     7    18    17    2
     8    18    20    1
     9    17    16    1
    10    26    24    1
    11    20    21    2
    12    25    24    1
    13    16    15    2
    14    24    22   am
    15    21    15    1
    16    15    14    1
    17    22    23    2
    18    22     1    1
    19     6     1    2
    20     6     5    1
    21    14    13    1
    22     1     2    1
    23     5     4    2
    24     2     3    2
    25     4     3    1
    26     4     7    1
    27    13    12    2
    28    13     8    1
    29     7     8    1
    30    12    11    1
    31     8     9    2
    32    11    10    2
    33     9    10    1
