@<TRIPOS>MOLECULE
6278_out_ligand_01.pdbqt
 35 38 0 0 0
SMALL
GASTEIGER

@<TRIPOS>ATOM
      1  C         20.8190  -22.5260  -10.8200 C.2     1  UNL1        0.0340
      2  C         20.6060  -23.5010   -9.8350 C.2     1  UNL1        0.0310
      3  C         19.3400  -23.6830   -9.2730 C.2     1  UNL1        0.0270
      4  C         18.2770  -22.8860   -9.7020 C.2     1  UNL1        0.0800
      5  C         18.4790  -21.8970  -10.6660 C.2     1  UNL1        0.0270
      6  C         19.7490  -21.7240  -11.2260 C.2     1  UNL1        0.0310
      7  S         16.6710  -23.1060   -8.9810 S.O2    1  UNL1        0.2630
      8  O         15.8340  -23.8270   -9.9150 O.2     1  UNL1       -0.2000
      9  O         16.2600  -21.8210   -8.4520 O.2     1  UNL1       -0.2000
     10  N         17.0010  -24.0710   -7.6350 N.pl3   1  UNL1       -0.2800
     11  H         17.8910  -24.5540   -7.7340 H       1  UNL1        0.1790
     12  C         16.6780  -23.5570   -6.3400 C.2     1  UNL1        0.0530
     13  C         15.5050  -24.0220   -5.7370 C.2     1  UNL1        0.0310
     14  C         15.1300  -23.5490   -4.4860 C.2     1  UNL1        0.0030
     15  C         15.9260  -22.6100   -3.8320 C.2     1  UNL1        0.0120
     16  C         17.1060  -22.1270   -4.4200 C.2     1  UNL1       -0.0240
     17  C         17.8970  -21.1800   -3.7470 C.2     1  UNL1        0.0120
     18  C         17.4990  -22.5930   -5.6990 C.2     1  UNL1        0.0010
     19  C         19.0660  -20.6840   -4.3220 C.2     1  UNL1        0.0010
     20  C         19.4600  -21.1260   -5.5790 C.2     1  UNL1        0.0010
     21  C         18.6860  -22.0670   -6.2600 C.2     1  UNL1        0.0140
     22  N         22.1230  -22.4130  -11.3350 N.am    1  UNL1       -0.3250
     23  C         23.2150  -21.7830  -10.7660 C.2     1  UNL1        0.2460
     24  O         23.2460  -21.1990   -9.6870 O.2     1  UNL1       -0.2710
     25  H         22.2810  -22.7830  -12.2690 H       1  UNL1        0.1690
     26  C         24.4790  -21.8980  -11.6290 C.3     1  UNL1        0.2780
     27  O         24.5050  -21.0490  -12.7710 O.2     1  UNL1       -0.3420
     28  C         24.7220  -21.6250  -13.9940 C.2     1  UNL1        0.0700
     29  C         24.9330  -23.0060  -13.9540 C.2     1  UNL1        0.0430
     30  C         25.1620  -23.7360  -15.1260 C.2     1  UNL1       -0.0590
     31  C         25.1440  -23.0680  -16.3550 C.2     1  UNL1        0.0130
     32  C         25.3690  -25.2200  -15.0690 C.3     1  UNL1        0.0480
     33  C         24.9140  -21.6870  -16.4150 C.2     1  UNL1       -0.0590
     34  C         24.9340  -20.9720  -17.7350 C.3     1  UNL1        0.0480
     35  C         24.7180  -20.9680  -15.2260 C.2     1  UNL1        0.0430
@<TRIPOS>BOND
     1    34    33    1
     2    33    31    2
     3    33    35    1
     4    31    30    1
     5    35    28    2
     6    30    32    1
     7    30    29    2
     8    28    29    1
     9    28    27    1
    10    27    26    1
    11    25    22    1
    12    26    23    1
    13    22     1    1
    14    22    23   am
    15     6     1    2
    16     6     5    1
    17     1     2    1
    18    23    24    2
    19     5     4    2
    20     8     7    2
    21     2     3    2
    22     4     3    1
    23     4     7    1
    24     7     9    2
    25     7    10    1
    26    11    10    1
    27    10    12    1
    28    12    13    2
    29    12    18    1
    30    21    18    1
    31    21    20    2
    32    13    14    1
    33    18    16    2
    34    20    19    1
    35    14    15    2
    36    16    15    1
    37    16    17    1
    38    19    17    2
