@<TRIPOS>MOLECULE
62798_out_ligand_01.pdbqt
 34 38 0 0 0
SMALL
GASTEIGER

@<TRIPOS>ATOM
      1  C         16.1880  -23.2230   -7.7910 C.ar    1  UNL1        0.1710
      2  N         15.3380  -22.5020   -7.0910 N.ar    1  UNL1       -0.2210
      3  C         15.6880  -22.7170   -5.7840 C.ar    1  UNL1        0.1050
      4  C         15.1390  -22.2310   -4.5930 C.2     1  UNL1        0.0370
      5  C         15.7300  -22.6540   -3.4000 C.2     1  UNL1        0.0220
      6  C         16.8180  -23.5210   -3.4500 C.2     1  UNL1        0.1190
      7  N         17.3860  -24.0170   -4.5760 N.2     1  UNL1       -0.2410
      8  C         16.7760  -23.5760   -5.6950 C.ar    1  UNL1        0.1610
      9  N         17.0960  -23.8770   -6.9960 N.ar    1  UNL1       -0.3040
     10  S         16.1890  -23.3380   -9.5220 S.3     1  UNL1       -0.0870
     11  C         16.6360  -21.6440   -9.9980 C.3     1  UNL1        0.1210
     12  C         17.9690  -21.5770  -10.7060 C.2     1  UNL1       -0.0480
     13  C         18.4760  -20.3520  -11.1630 C.2     1  UNL1        0.0090
     14  C         19.7160  -20.2890  -11.8070 C.2     1  UNL1        0.0170
     15  C         20.4710  -21.4530  -11.9890 C.2     1  UNL1        0.0320
     16  C         19.9640  -22.6810  -11.5480 C.2     1  UNL1        0.0170
     17  C         18.7260  -22.7410  -10.9060 C.2     1  UNL1        0.0090
     18  C         21.7990  -21.4400  -12.6640 C.2     1  UNL1        0.2520
     19  O         21.9490  -20.8300  -13.7160 O.2     1  UNL1       -0.2680
     20  N         22.8030  -22.1660  -12.0560 N.am    1  UNL1       -0.3520
     21  H         22.5880  -22.7440  -11.2570 H       1  UNL1        0.1630
     22  C         24.1410  -22.2310  -12.6230 C.3     1  UNL1        0.0840
     23  C         24.9120  -23.4420  -12.1020 C.3     1  UNL1        0.0250
     24  C         25.4550  -23.0080  -10.7420 C.3     1  UNL1        0.0020
     25  C         25.4820  -21.4800  -10.7600 C.3     1  UNL1        0.0020
     26  C         25.0130  -21.0670  -12.1530 C.3     1  UNL1        0.0250
     27  C         18.1570  -24.7860   -7.3890 C.3     1  UNL1        0.1710
     28  C         19.4290  -24.0540   -7.7490 C.2     1  UNL1       -0.0400
     29  C         20.4180  -24.6790   -8.5260 C.2     1  UNL1        0.0120
     30  C         21.5920  -23.9990   -8.8590 C.2     1  UNL1        0.0430
     31  C         21.7800  -22.6970   -8.4150 C.2     1  UNL1        0.1160
     32  F         22.9070  -22.0480   -8.7360 F       1  UNL1       -0.2060
     33  C         20.8200  -22.0610   -7.6410 C.2     1  UNL1        0.0430
     34  C         19.6450  -22.7370   -7.3060 C.2     1  UNL1        0.0120
@<TRIPOS>BOND
     1    19    18    2
     2    18    20   am
     3    18    15    1
     4    22    26    1
     5    22    23    1
     6    22    20    1
     7    26    25    1
     8    23    24    1
     9    20    21    1
    10    15    14    2
    11    15    16    1
    12    14    13    1
    13    16    17    2
    14    13    12    2
    15    17    12    1
    16    25    24    1
    17    12    11    1
    18    11    10    1
    19    10     1    1
    20    30    29    1
    21    30    31    2
    22    32    31    1
    23    29    28    2
    24    31    33    1
    25     1     2   ar
    26     1     9   ar
    27    28    27    1
    28    28    34    1
    29    33    34    2
    30    27     9    1
    31     2     3   ar
    32     9     8   ar
    33     3     8   ar
    34     3     4    1
    35     8     7    1
    36     4     5    2
    37     7     6    2
    38     6     5    1
