@<TRIPOS>MOLECULE
62797_out_ligand_01.pdbqt
 35 39 0 0 0
SMALL
GASTEIGER

@<TRIPOS>ATOM
      1  C         23.3880  -22.0200  -12.6920 C.2     1  UNL1        0.0320
      2  C         23.3740  -22.7560  -11.5030 C.2     1  UNL1        0.0180
      3  C         22.1960  -22.8730  -10.7580 C.2     1  UNL1        0.0150
      4  C         21.0130  -22.2530  -11.1840 C.2     1  UNL1       -0.0080
      5  C         21.0400  -21.4980  -12.3670 C.2     1  UNL1        0.0150
      6  C         22.2180  -21.3790  -13.1150 C.2     1  UNL1        0.0180
      7  C         19.7910  -22.3830  -10.3960 C.2     1  UNL1        0.0620
      8  C         19.5780  -22.7830   -9.0900 C.2     1  UNL1        0.0660
      9  C         18.1750  -22.7270   -8.8810 C.2     1  UNL1        0.0900
     10  N         17.5470  -22.3170   -9.9910 N.2     1  UNL1       -0.1740
     11  N         18.5340  -22.1310  -10.8790 N.pl3   1  UNL1       -0.2770
     12  H         18.2770  -21.8370  -11.8150 H       1  UNL1        0.1890
     13  C         17.4590  -23.0280   -7.6440 C.2     1  UNL1        0.0050
     14  C         16.3890  -23.9370   -7.7230 C.2     1  UNL1        0.0150
     15  C         15.6520  -24.2630   -6.5900 C.2     1  UNL1        0.0020
     16  C         15.9710  -23.6810   -5.3660 C.2     1  UNL1        0.0120
     17  C         17.0320  -22.7670   -5.2540 C.2     1  UNL1       -0.0250
     18  C         17.3310  -22.1890   -4.0090 C.2     1  UNL1        0.0120
     19  C         17.7980  -22.4260   -6.3990 C.2     1  UNL1       -0.0130
     20  C         18.3740  -21.2740   -3.8720 C.2     1  UNL1        0.0010
     21  C         19.1340  -20.9260   -4.9800 C.2     1  UNL1        0.0010
     22  C         18.8490  -21.4920   -6.2240 C.2     1  UNL1        0.0130
     23  C         24.6660  -21.9220  -13.4500 C.2     1  UNL1        0.2510
     24  O         25.6950  -22.3990  -12.9850 O.2     1  UNL1       -0.2680
     25  N         24.5980  -21.3130  -14.6860 N.am    1  UNL1       -0.3530
     26  H         23.6960  -21.1430  -15.1050 H       1  UNL1        0.1630
     27  C         25.7440  -21.2660  -15.5660 C.3     1  UNL1        0.1640
     28  C         26.0300  -19.8570  -16.0090 C.2     1  UNL1       -0.0020
     29  C         25.8800  -19.4840  -17.3540 C.2     1  UNL1        0.0150
     30  C         26.1290  -18.1690  -17.7510 C.2     1  UNL1        0.0430
     31  C         26.5220  -17.2280  -16.8040 C.2     1  UNL1        0.1190
     32  F         26.7600  -15.9670  -17.1890 F       1  UNL1       -0.2060
     33  C         26.6680  -17.5730  -15.4680 C.2     1  UNL1        0.0850
     34  C         26.4160  -18.8840  -15.0820 C.2     1  UNL1        0.1270
     35  F         26.5400  -19.2100  -13.7870 F       1  UNL1       -0.2050
@<TRIPOS>BOND
     1    30    29    1
     2    30    31    2
     3    29    28    2
     4    32    31    1
     5    31    33    1
     6    28    27    1
     7    28    34    1
     8    27    25    1
     9    33    34    2
    10    26    25    1
    11    34    35    1
    12    25    23   am
    13    23    24    2
    14    23     1    1
    15     6     1    2
    16     6     5    1
    17     1     2    1
    18     5     4    2
    19    12    11    1
    20     2     3    2
    21     4     3    1
    22     4     7    1
    23    11     7    1
    24    11    10    1
    25     7     8    2
    26    10     9    2
    27     8     9    1
    28     9    13    1
    29    14    13    2
    30    14    15    1
    31    13    19    1
    32    15    16    2
    33    19    22    1
    34    19    17    2
    35    22    21    2
    36    16    17    1
    37    17    18    1
    38    21    20    1
    39    18    20    2
