@<TRIPOS>MOLECULE
62801_out_ligand_01.pdbqt
 32 35 0 0 0
SMALL
GASTEIGER

@<TRIPOS>ATOM
      1  C         21.2550  -23.2130   -8.4340 C.2     1  UNL1        0.0320
      2  C         20.5220  -24.4000   -8.4570 C.2     1  UNL1        0.0190
      3  C         19.3280  -24.5060   -7.7360 C.2     1  UNL1        0.0320
      4  C         18.8460  -23.4290   -6.9640 C.2     1  UNL1        0.0570
      5  C         19.6010  -22.2510   -6.9320 C.2     1  UNL1        0.0320
      6  C         20.7980  -22.1450   -7.6540 C.2     1  UNL1        0.0190
      7  N         17.6240  -23.6070   -6.2400 N.ar    1  UNL1       -0.2170
      8  N         17.6310  -24.3500   -5.0950 N.ar    1  UNL1        0.0030
      9  N         16.3940  -24.3540   -4.6300 N.ar    1  UNL1        0.0190
     10  N         15.5670  -23.6390   -5.4390 N.ar    1  UNL1       -0.1350
     11  C         16.3130  -23.1740   -6.4180 C.ar    1  UNL1        0.2030
     12  S         15.6730  -22.2100   -7.7060 S.3     1  UNL1       -0.0850
     13  C         16.1350  -23.2120   -9.1510 C.3     1  UNL1        0.1210
     14  C         17.0650  -22.4720  -10.0860 C.2     1  UNL1       -0.0480
     15  C         18.2820  -23.0520  -10.4850 C.2     1  UNL1        0.0110
     16  C         19.1490  -22.3600  -11.3350 C.2     1  UNL1        0.0430
     17  C         18.8040  -21.0890  -11.7800 C.2     1  UNL1        0.1160
     18  F         19.6300  -20.4320  -12.6080 F       1  UNL1       -0.2060
     19  C         17.6090  -20.4960  -11.3920 C.2     1  UNL1        0.0430
     20  C         16.7360  -21.1870  -10.5500 C.2     1  UNL1        0.0110
     21  C         22.5240  -23.1380   -9.2130 C.2     1  UNL1        0.2560
     22  O         23.4090  -23.9430   -8.9510 O.2     1  UNL1       -0.2670
     23  N         22.5510  -22.1630  -10.1940 N.am    1  UNL1       -0.3230
     24  H         21.6900  -21.6570  -10.3590 H       1  UNL1        0.1690
     25  C         23.6210  -21.8510  -11.0610 C.2     1  UNL1        0.0360
     26  C         24.8610  -21.3660  -10.6300 C.2     1  UNL1        0.0320
     27  C         25.8720  -21.0780  -11.5540 C.2     1  UNL1        0.0460
     28  C         25.6430  -21.2680  -12.9120 C.2     1  UNL1        0.1380
     29  F         26.6260  -20.9780  -13.7810 F       1  UNL1       -0.2040
     30  C         24.4130  -21.7470  -13.3550 C.2     1  UNL1        0.0740
     31 CL         24.1150  -21.9840  -15.0350 Cl      1  UNL1       -0.0810
     32  C         23.4030  -22.0380  -12.4330 C.2     1  UNL1        0.0560
@<TRIPOS>BOND
     1    31    30    1
     2    29    28    1
     3    30    28    2
     4    30    32    1
     5    28    27    1
     6    18    17    1
     7    32    25    2
     8    17    19    2
     9    17    16    1
    10    27    26    2
    11    19    20    1
    12    16    15    2
    13    25    26    1
    14    25    23    1
    15    20    14    2
    16    15    14    1
    17    24    23    1
    18    23    21   am
    19    14    13    1
    20    21    22    2
    21    21     1    1
    22    13    12    1
    23     2     1    2
    24     2     3    1
    25     1     6    1
    26     3     4    2
    27    12    11    1
    28     6     5    2
    29     4     5    1
    30     4     7    1
    31    11     7   ar
    32    11    10   ar
    33     7     8   ar
    34    10     9   ar
    35     8     9   ar
