@<TRIPOS>MOLECULE
62804_out_ligand_01.pdbqt
 35 38 0 0 0
SMALL
GASTEIGER

@<TRIPOS>ATOM
      1  C         15.9010  -22.1930  -10.2900 C.3     1  UNL1        0.0700
      2  C         17.3590  -22.0290  -10.6130 C.2     1  UNL1        0.0330
      3  C         17.7590  -21.1480  -11.6090 C.2     1  UNL1        0.0280
      4  C         19.1180  -21.0060  -11.8690 C.2     1  UNL1        0.0210
      5  C         20.0330  -21.7490  -11.1240 C.2     1  UNL1        0.0620
      6  C         21.4880  -21.6130  -11.3750 C.2     1  UNL1        0.2090
      7  O         21.8880  -20.8680  -12.2610 O.2     1  UNL1       -0.2860
      8  C         22.4010  -22.3970  -10.5240 C.2     1  UNL1        0.1300
      9  C         21.8620  -23.1970   -9.5920 C.2     1  UNL1        0.1210
     10  N         20.5050  -23.3710   -9.3820 N.pl3   1  UNL1       -0.3310
     11  C         19.5720  -22.6190  -10.1300 C.2     1  UNL1        0.1440
     12  N         18.2420  -22.7410   -9.8650 N.2     1  UNL1       -0.2350
     13  C         19.9610  -24.2430   -8.3260 C.3     1  UNL1        0.2330
     14  C         19.2240  -23.4280   -7.2570 C.2     1  UNL1        0.2400
     15  O         19.7300  -22.4140   -6.7840 O.2     1  UNL1       -0.2710
     16  N         17.9930  -23.9640   -6.9240 N.am    1  UNL1       -0.3260
     17  H         17.7210  -24.7890   -7.4630 H       1  UNL1        0.1690
     18  C         17.0530  -23.4680   -6.0040 C.2     1  UNL1        0.0370
     19  C         17.1860  -23.5670   -4.6160 C.2     1  UNL1        0.0290
     20  C         16.2090  -23.0380   -3.7640 C.2     1  UNL1        0.0050
     21  C         15.0880  -22.4140   -4.2960 C.2     1  UNL1        0.0420
     22  C         14.9490  -22.3290   -5.6760 C.2     1  UNL1        0.1180
     23  F         13.8520  -21.7610   -6.1950 F       1  UNL1       -0.2060
     24  C         15.9210  -22.8430   -6.5300 C.2     1  UNL1        0.0710
     25  S         24.1110  -22.2730  -10.6690 S.O2    1  UNL1        0.2120
     26  O         24.7450  -23.3680   -9.9460 O.2     1  UNL1       -0.2170
     27  O         24.5350  -20.9120  -10.3890 O.2     1  UNL1       -0.2170
     28  C         24.4280  -22.6070  -12.3920 C.2     1  UNL1        0.0650
     29  C         24.6500  -23.9220  -12.8020 C.2     1  UNL1        0.0240
     30  C         24.9260  -24.1820  -14.1450 C.2     1  UNL1        0.0090
     31  C         24.9910  -23.1390  -15.0840 C.2     1  UNL1       -0.0560
     32  C         25.2980  -23.4640  -16.5220 C.3     1  UNL1        0.0490
     33  C         24.7990  -21.8090  -14.6570 C.2     1  UNL1       -0.0550
     34  C         24.8620  -20.6570  -15.6210 C.3     1  UNL1        0.0490
     35  C         24.5150  -21.5530  -13.3050 C.2     1  UNL1        0.0310
@<TRIPOS>BOND
     1    32    31    1
     2    34    33    1
     3    31    33    2
     4    31    30    1
     5    33    35    1
     6    30    29    2
     7    35    28    2
     8    29    28    1
     9    28    25    1
    10     7     6    2
    11     4     3    1
    12     4     5    2
    13     3     2    2
    14     6     5    1
    15     6     8    1
    16     5    11    1
    17    25     8    1
    18    25    27    2
    19    25    26    2
    20     2     1    1
    21     2    12    1
    22     8     9    2
    23    11    12    2
    24    11    10    1
    25     9    10    1
    26    10    13    1
    27    13    14    1
    28    17    16    1
    29    14    16   am
    30    14    15    2
    31    16    18    1
    32    24    18    2
    33    24    22    1
    34    23    22    1
    35    18    19    1
    36    22    21    2
    37    19    20    2
    38    21    20    1
