@<TRIPOS>MOLECULE
62814_out_ligand_01.pdbqt
 33 37 0 0 0
SMALL
GASTEIGER

@<TRIPOS>ATOM
      1  C         16.3550  -23.1470   -7.8620 C.ar    1  UNL1        0.1710
      2  N         15.3760  -22.5290   -7.2300 N.ar    1  UNL1       -0.2210
      3  C         15.6500  -22.7000   -5.9000 C.ar    1  UNL1        0.1050
      4  C         14.9650  -22.2690   -4.7560 C.2     1  UNL1        0.0370
      5  C         15.5120  -22.6330   -3.5170 C.2     1  UNL1        0.0220
      6  C         16.6740  -23.3990   -3.4790 C.2     1  UNL1        0.1190
      7  N         17.3650  -23.8400   -4.5580 N.2     1  UNL1       -0.2410
      8  C         16.8060  -23.4530   -5.7250 C.ar    1  UNL1        0.1610
      9  N         17.2590  -23.7240   -6.9960 N.ar    1  UNL1       -0.3040
     10  S         16.4950  -23.2510   -9.5880 S.3     1  UNL1       -0.0870
     11  C         17.0250  -21.5730  -10.0200 C.3     1  UNL1        0.1210
     12  C         18.3180  -21.5240  -10.8030 C.2     1  UNL1       -0.0480
     13  C         18.8120  -20.3120  -11.3090 C.2     1  UNL1        0.0090
     14  C         20.0350  -20.2680  -11.9840 C.2     1  UNL1        0.0170
     15  C         20.7780  -21.4430  -12.1690 C.2     1  UNL1        0.0320
     16  C         20.2910  -22.6530  -11.6650 C.2     1  UNL1        0.0170
     17  C         19.0650  -22.6930  -10.9980 C.2     1  UNL1        0.0090
     18  C         22.1060  -21.4330  -12.8490 C.2     1  UNL1        0.2520
     19  O         22.2660  -20.7900  -13.8860 O.2     1  UNL1       -0.2680
     20  N         23.1100  -22.1690  -12.2370 N.am    1  UNL1       -0.3520
     21  H         22.9690  -22.5420  -11.3020 H       1  UNL1        0.1630
     22  C         24.4240  -22.2590  -12.7970 C.3     1  UNL1        0.0840
     23  C         25.0490  -23.6060  -13.0530 C.3     1  UNL1        0.0270
     24  C         25.5900  -22.7250  -11.9650 C.3     1  UNL1        0.0270
     25  C         18.3930  -24.5860   -7.3000 C.3     1  UNL1        0.1760
     26  C         19.6320  -23.8150   -7.6890 C.2     1  UNL1        0.0200
     27  C         20.5900  -24.4280   -8.5050 C.2     1  UNL1        0.1260
     28  F         20.4050  -25.6910   -8.9040 F       1  UNL1       -0.2050
     29  C         21.7540  -23.7710   -8.9100 C.2     1  UNL1        0.0430
     30  C         21.9910  -22.4680   -8.4920 C.2     1  UNL1        0.0050
     31  C         21.0630  -21.8380   -7.6640 C.2     1  UNL1        0.0240
     32  C         19.8950  -22.5050   -7.2650 C.2     1  UNL1        0.0450
     33 CL         18.8320  -21.6490   -6.2090 Cl      1  UNL1       -0.0840
@<TRIPOS>BOND
     1    19    18    2
     2    23    22    1
     3    23    24    1
     4    18    20   am
     5    18    15    1
     6    22    20    1
     7    22    24    1
     8    20    21    1
     9    15    14    2
    10    15    16    1
    11    14    13    1
    12    16    17    2
    13    13    12    2
    14    17    12    1
    15    12    11    1
    16    11    10    1
    17    10     1    1
    18    29    27    1
    19    29    30    2
    20    28    27    1
    21    27    26    2
    22    30    31    1
    23     1     2   ar
    24     1     9   ar
    25    26    25    1
    26    26    32    1
    27    31    32    2
    28    25     9    1
    29    32    33    1
    30     2     3   ar
    31     9     8   ar
    32     3     8   ar
    33     3     4    1
    34     8     7    1
    35     4     5    2
    36     7     6    2
    37     5     6    1
