@<TRIPOS>MOLECULE
62812_out_ligand_01.pdbqt
 32 35 0 0 0
SMALL
GASTEIGER

@<TRIPOS>ATOM
      1  C         20.1800  -22.3820   -9.8990 C.2     1  UNL1        0.0900
      2  C         19.8920  -21.5820  -11.0150 C.2     1  UNL1        0.0680
      3  C         18.5740  -21.3900  -11.3970 C.2     1  UNL1        0.1170
      4  F         18.3000  -20.6160  -12.4560 F       1  UNL1       -0.2060
      5  C         17.5350  -21.9700  -10.6870 C.2     1  UNL1        0.0430
      6  C         17.8180  -22.7840   -9.5880 C.2     1  UNL1        0.0130
      7  C         19.1470  -23.0400   -9.1890 C.2     1  UNL1       -0.0160
      8  S         21.8870  -22.4840   -9.3780 S.O2    1  UNL1        0.2630
      9  O         22.3510  -23.7970   -9.7650 O.2     1  UNL1       -0.2000
     10  O         21.9810  -22.0180   -8.0120 O.2     1  UNL1       -0.2000
     11  N         22.6970  -21.3960  -10.3580 N.pl3   1  UNL1       -0.2810
     12  H         22.2020  -20.5120  -10.4680 H       1  UNL1        0.1790
     13  C         23.7510  -21.7230  -11.2600 C.2     1  UNL1        0.0450
     14  C         25.0480  -21.7290  -10.7340 C.2     1  UNL1        0.0310
     15  C         26.1440  -22.0920  -11.5250 C.2     1  UNL1        0.0120
     16  C         25.9560  -22.4600  -12.8580 C.2     1  UNL1       -0.0230
     17  C         27.1080  -22.8810  -13.7170 C.3     1  UNL1        0.0510
     18  C         24.6560  -22.4820  -13.3630 C.2     1  UNL1        0.1240
     19  C         23.5590  -22.1210  -12.5800 C.2     1  UNL1        0.0720
     20  F         24.4430  -22.8630  -14.6310 F       1  UNL1       -0.2050
     21  C         19.4320  -23.9570   -8.0080 C.3     1  UNL1        0.1760
     22  N         18.6270  -23.6840   -6.8310 N.am    1  UNL1       -0.2740
     23  C         18.7390  -22.5490   -6.0780 C.2     1  UNL1        0.2630
     24  O         19.5010  -21.6110   -6.2030 O.2     1  UNL1       -0.2670
     25  C         17.7360  -22.6410   -5.0280 C.2     1  UNL1        0.0670
     26  C         17.4030  -21.7960   -3.9910 C.2     1  UNL1        0.0210
     27  C         17.0580  -23.8220   -5.1980 C.2     1  UNL1        0.1400
     28  C         16.3670  -22.2130   -3.1540 C.2     1  UNL1        0.0200
     29  C         15.7330  -23.4390   -3.4050 C.2     1  UNL1        0.1170
     30  N         16.0560  -24.2730   -4.4230 N.2     1  UNL1       -0.2540
     31  C         17.6290  -24.5030   -6.3710 C.2     1  UNL1        0.2800
     32  O         17.2840  -25.5830   -6.8130 O.2     1  UNL1       -0.2650
@<TRIPOS>BOND
     1    20    18    1
     2    17    16    1
     3    18    16    2
     4    18    19    1
     5    16    15    1
     6    19    13    2
     7     4     3    1
     8    15    14    2
     9     3     2    1
    10     3     5    2
    11    13    14    1
    12    13    11    1
    13     2     1    2
    14     5     6    1
    15    12    11    1
    16    11     8    1
    17     1     8    1
    18     1     7    1
    19     9     8    2
    20     6     7    2
    21     8    10    2
    22     7    21    1
    23    21    22    1
    24    22    31   am
    25    22    23   am
    26    32    31    2
    27    31    27    1
    28    24    23    2
    29    23    25    1
    30    27    25    2
    31    27    30    1
    32    25    26    1
    33    30    29    2
    34    26    28    2
    35    29    28    1
