@<TRIPOS>MOLECULE
62828_out_ligand_01.pdbqt
 38 42 0 0 0
SMALL
GASTEIGER

@<TRIPOS>ATOM
      1  C         20.7650  -22.3900   -7.5320 C.2     1  UNL1        0.0500
      2  C         21.9050  -22.0310   -8.2680 C.2     1  UNL1        0.0430
      3  C         22.3640  -22.8610   -9.2940 C.2     1  UNL1        0.0760
      4  C         21.7290  -24.0780   -9.5610 C.2     1  UNL1        0.0260
      5  C         20.5990  -24.4380   -8.8250 C.2     1  UNL1        0.0210
      6  C         20.0880  -23.5910   -7.8190 C.2     1  UNL1        0.0210
      7  C         20.3380  -21.4120   -6.4980 C.2     1  UNL1        0.2530
      8  O         21.1310  -20.5520   -6.1260 O.2     1  UNL1       -0.2680
      9  N         19.0820  -21.5910   -5.9670 N.am    1  UNL1       -0.3570
     10  H         18.5650  -22.4180   -6.2320 H       1  UNL1        0.1620
     11  C         18.6270  -20.8480   -4.8060 C.3     1  UNL1        0.1270
     12  C         18.0240  -21.7690   -3.7470 C.3     1  UNL1        0.0580
     13  C         16.7420  -22.4090   -4.2140 C.2     1  UNL1       -0.0570
     14  C         16.3380  -23.6470   -3.6930 C.2     1  UNL1        0.0070
     15  C         15.1610  -24.2510   -4.1380 C.2     1  UNL1        0.0010
     16  C         14.3740  -23.6180   -5.0980 C.2     1  UNL1        0.0000
     17  C         14.7640  -22.3870   -5.6220 C.2     1  UNL1        0.0010
     18  C         15.9460  -21.7870   -5.1850 C.2     1  UNL1        0.0070
     19  S         18.5910  -24.1100   -6.9820 S.3     1  UNL1       -0.0900
     20  C         17.3390  -23.5670   -8.1360 C.2     1  UNL1        0.0050
     21  C         16.1540  -24.3050   -8.2530 C.2     1  UNL1        0.0220
     22  C         15.1620  -23.9030   -9.1530 C.2     1  UNL1        0.0430
     23  C         15.3540  -22.7570   -9.9200 C.2     1  UNL1        0.1160
     24  F         14.4010  -22.3730  -10.7820 F       1  UNL1       -0.2060
     25  C         16.5190  -22.0060   -9.8060 C.2     1  UNL1        0.0430
     26  C         17.5150  -22.4090   -8.9110 C.2     1  UNL1        0.0220
     27  S         23.8200  -22.3970  -10.2160 S.O2    1  UNL1        0.2480
     28  O         24.7850  -23.4630  -10.0160 O.2     1  UNL1       -0.2050
     29  O         24.1400  -21.0310   -9.8540 O.2     1  UNL1       -0.2050
     30  N         23.2470  -22.4310  -11.8190 N.pl3   1  UNL1       -0.1710
     31  C         21.9870  -21.6520  -12.0940 C.3     1  UNL1        0.1180
     32  C         22.0460  -21.2340  -13.5700 C.3     1  UNL1        0.0560
     33  C         23.5060  -21.3660  -13.8720 C.2     1  UNL1       -0.0350
     34  C         24.1730  -20.9530  -15.0190 C.2     1  UNL1        0.0090
     35  C         24.1690  -22.0520  -12.8520 C.2     1  UNL1        0.0310
     36  C         25.5300  -21.2520  -15.1360 C.2     1  UNL1        0.0010
     37  C         26.1910  -21.9690  -14.1270 C.2     1  UNL1        0.0020
     38  C         25.5050  -22.3890  -12.9820 C.2     1  UNL1        0.0250
@<TRIPOS>BOND
     1    36    34    1
     2    36    37    2
     3    34    33    2
     4    37    38    1
     5    33    32    1
     6    33    35    1
     7    32    31    1
     8    38    35    2
     9    35    30    1
    10    31    30    1
    11    30    27    1
    12    24    23    1
    13    27    28    2
    14    27    29    2
    15    27     3    1
    16    23    25    2
    17    23    22    1
    18    25    26    1
    19     4     3    2
    20     4     5    1
    21     3     2    1
    22    22    21    2
    23    26    20    2
    24     5     6    2
    25     2     1    2
    26    21    20    1
    27    20    19    1
    28     6     1    1
    29     6    19    1
    30     1     7    1
    31     7     8    2
    32     7     9   am
    33    10     9    1
    34     9    11    1
    35    17    18    1
    36    17    16    2
    37    18    13    2
    38    16    15    1
    39    11    12    1
    40    13    12    1
    41    13    14    1
    42    15    14    2
