@<TRIPOS>MOLECULE
62829_out_ligand_01.pdbqt
 33 36 0 0 0
SMALL
GASTEIGER

@<TRIPOS>ATOM
      1  N         19.1530  -21.3720  -10.7530 N.ar    1  UNL1       -0.2080
      2  N         19.3440  -21.9920   -9.5270 N.ar    1  UNL1       -0.1440
      3  C         18.1990  -22.5740   -9.3200 C.ar    1  UNL1        0.2120
      4  C         17.7590  -23.4210   -8.1640 C.2     1  UNL1        0.2190
      5  N         16.5700  -23.9530   -8.0920 N.2     1  UNL1       -0.2320
      6  C         15.7130  -23.6970   -9.1470 C.2     1  UNL1        0.1370
      7  C         16.0230  -22.9470  -10.2180 C.2     1  UNL1        0.1230
      8  N         17.2630  -22.3940  -10.2830 N.ar    1  UNL1       -0.2510
      9  C         17.8560  -21.6100  -11.2300 C.ar    1  UNL1        0.3510
     10  O         17.4040  -21.2090  -12.2920 O.2     1  UNL1       -0.2440
     11  C         20.1490  -20.5380  -11.3880 C.3     1  UNL1        0.2590
     12  C         21.3670  -21.3480  -11.8350 C.2     1  UNL1        0.2420
     13  O         21.2930  -22.0810  -12.8190 O.2     1  UNL1       -0.2710
     14  N         22.4570  -21.2510  -10.9740 N.am    1  UNL1       -0.3250
     15  H         22.2780  -20.7530  -10.1010 H       1  UNL1        0.1690
     16  C         23.7430  -21.8320  -11.1350 C.2     1  UNL1        0.0490
     17  C         24.6440  -21.3760  -12.1070 C.2     1  UNL1        0.0300
     18  C         25.9130  -21.9450  -12.2510 C.2     1  UNL1        0.0020
     19  C         26.3120  -22.9800  -11.4170 C.2     1  UNL1        0.0010
     20  C         25.4380  -23.4450  -10.4400 C.2     1  UNL1        0.0180
     21  C         24.1500  -22.8850  -10.2870 C.2     1  UNL1        0.0740
     22  C         23.2670  -23.4270   -9.1930 C.3     1  UNL1        0.4190
     23  F         22.9050  -22.4740   -8.2890 F       1  UNL1       -0.1660
     24  F         22.0980  -23.9650   -9.6420 F       1  UNL1       -0.1660
     25  F         23.8770  -24.4140   -8.4800 F       1  UNL1       -0.1660
     26  O         18.7680  -23.5360   -7.2420 O.2     1  UNL1       -0.2890
     27  C         18.6260  -22.7060   -6.1270 C.2     1  UNL1        0.0810
     28  C         17.9900  -23.2100   -4.9920 C.2     1  UNL1        0.0370
     29  C         17.8790  -22.4060   -3.8570 C.2     1  UNL1        0.0060
     30  C         18.4160  -21.1160   -3.8650 C.2     1  UNL1        0.0420
     31  C         19.0630  -20.6430   -5.0050 C.2     1  UNL1        0.1190
     32  F         19.5840  -19.4090   -5.0000 F       1  UNL1       -0.2060
     33  C         19.1830  -21.4310   -6.1420 C.2     1  UNL1        0.0790
@<TRIPOS>BOND
     1    13    12    2
     2    10     9    2
     3    18    17    1
     4    18    19    2
     5    17    16    2
     6    12    11    1
     7    12    14   am
     8    19    20    1
     9    11     1    1
    10     9     1   ar
    11     9     8   ar
    12    16    14    1
    13    16    21    1
    14    14    15    1
    15     1     2   ar
    16    20    21    2
    17    21    22    1
    18     8     7    1
    19     8     3   ar
    20     7     6    2
    21    24    22    1
    22     2     3   ar
    23     3     4    1
    24    22    25    1
    25    22    23    1
    26     6     5    1
    27     4     5    2
    28     4    26    1
    29    26    27    1
    30    33    27    2
    31    33    31    1
    32    27    28    1
    33    31    32    1
    34    31    30    2
    35    28    29    2
    36    30    29    1
