@<TRIPOS>MOLECULE
62824_out_ligand_01.pdbqt
 31 33 0 0 0
SMALL
GASTEIGER

@<TRIPOS>ATOM
      1  C         18.0770  -22.7580   -6.5440 C.2     1  UNL1        0.0800
      2  C         18.2620  -21.6960   -5.6540 C.2     1  UNL1        0.0280
      3  C         19.4720  -21.0060   -5.6570 C.2     1  UNL1        0.0450
      4  C         20.4850  -21.3790   -6.5400 C.2     1  UNL1        0.1320
      5  F         21.6310  -20.6820   -6.5070 F       1  UNL1       -0.2050
      6  C         20.3160  -22.4440   -7.4310 C.2     1  UNL1        0.0720
      7  C         19.0980  -23.1440   -7.4200 C.2     1  UNL1        0.0450
      8  S         16.5460  -23.6610   -6.5230 S.O2    1  UNL1        0.2590
      9  O         16.8130  -25.0370   -6.8690 O.2     1  UNL1       -0.2010
     10  O         15.8470  -23.3010   -5.3090 O.2     1  UNL1       -0.2010
     11  N         15.7130  -22.9390   -7.7760 N.3     1  UNL1       -0.3110
     12  H         14.8060  -22.5670   -7.5010 H       1  UNL1        0.1720
     13  C         15.8160  -23.5340   -9.1060 C.3     1  UNL1        0.1700
     14  C         16.8330  -22.7930   -9.9370 C.2     1  UNL1       -0.0400
     15  C         18.0520  -23.3970  -10.2670 C.2     1  UNL1        0.0090
     16  C         19.0080  -22.7040  -11.0130 C.2     1  UNL1        0.0070
     17  C         18.7700  -21.3880  -11.4240 C.2     1  UNL1       -0.0620
     18  C         19.7810  -20.6500  -12.2500 C.3     1  UNL1        0.0480
     19  C         17.5520  -20.7830  -11.0940 C.2     1  UNL1        0.0070
     20  C         16.5950  -21.4760  -10.3500 C.2     1  UNL1        0.0090
     21  C         21.3680  -22.8690   -8.4070 C.2     1  UNL1        0.2590
     22  O         21.6670  -24.0580   -8.4320 O.2     1  UNL1       -0.2670
     23  N         21.9140  -21.8770   -9.1980 N.am    1  UNL1       -0.3230
     24  H         21.5520  -20.9370   -9.0770 H       1  UNL1        0.1690
     25  C         22.9200  -22.0070  -10.1790 C.2     1  UNL1        0.0350
     26  C         22.6500  -22.8610  -11.2570 C.2     1  UNL1        0.0290
     27  C         23.5850  -23.0410  -12.2760 C.2     1  UNL1        0.0030
     28  C         24.8050  -22.3710  -12.2290 C.2     1  UNL1        0.0070
     29  C         25.1010  -21.5260  -11.1560 C.2     1  UNL1       -0.0600
     30  C         26.3980  -20.7730  -11.1120 C.3     1  UNL1        0.0480
     31  C         24.1460  -21.3400  -10.1410 C.2     1  UNL1        0.0360
@<TRIPOS>BOND
     1    27    28    2
     2    27    26    1
     3    18    17    1
     4    28    29    1
     5    17    19    2
     6    17    16    1
     7    26    25    2
     8    29    30    1
     9    29    31    2
    10    19    20    1
    11    16    15    2
    12    20    14    2
    13    15    14    1
    14    25    31    1
    15    25    23    1
    16    14    13    1
    17    23    24    1
    18    23    21   am
    19    13    11    1
    20    22    21    2
    21    21     6    1
    22    11    12    1
    23    11     8    1
    24     6     7    1
    25     6     4    2
    26     7     1    2
    27     9     8    2
    28     1     8    1
    29     1     2    1
    30     4     5    1
    31     4     3    1
    32     8    10    2
    33     3     2    2
