@<TRIPOS>MOLECULE
62837_out_ligand_01.pdbqt
 36 40 0 0 0
SMALL
GASTEIGER

@<TRIPOS>ATOM
      1  C         23.8930  -21.5510  -10.2200 C.ar    1  UNL1        0.1920
      2  N         25.0500  -20.9660  -10.4240 N.ar    1  UNL1       -0.1220
      3  N         25.4980  -21.3460  -11.6610 N.ar    1  UNL1       -0.1280
      4  C         24.6090  -22.1670  -12.1920 C.ar    1  UNL1        0.1670
      5  N         23.5690  -22.3340  -11.2970 N.ar    1  UNL1       -0.3030
      6  S         22.9150  -21.3740   -8.8070 S.3     1  UNL1       -0.0860
      7  C         22.5090  -23.1190   -8.4850 C.3     1  UNL1        0.1210
      8  C         21.0620  -23.2930   -8.0920 C.2     1  UNL1       -0.0480
      9  C         20.3810  -24.4820   -8.3920 C.2     1  UNL1        0.0090
     10  C         19.0470  -24.6500   -8.0100 C.2     1  UNL1        0.0170
     11  C         18.3720  -23.6230   -7.3420 C.2     1  UNL1        0.0320
     12  C         19.0440  -22.4350   -7.0310 C.2     1  UNL1        0.0170
     13  C         20.3810  -22.2730   -7.4050 C.2     1  UNL1        0.0090
     14  C         16.9540  -23.8420   -6.9480 C.2     1  UNL1        0.2520
     15  O         16.3120  -24.7570   -7.4540 O.2     1  UNL1       -0.2680
     16  N         16.4400  -22.9440   -6.0280 N.am    1  UNL1       -0.3520
     17  H         16.9860  -22.1240   -5.7900 H       1  UNL1        0.1630
     18  C         15.0900  -23.0050   -5.5620 C.3     1  UNL1        0.0840
     19  C         14.1800  -21.8140   -5.6860 C.3     1  UNL1        0.0270
     20  C         14.6790  -22.2360   -4.3380 C.3     1  UNL1        0.0270
     21  C         22.3510  -23.0940  -11.5170 C.3     1  UNL1        0.1710
     22  C         21.1160  -22.2260  -11.5200 C.2     1  UNL1       -0.0400
     23  C         19.8900  -22.7540  -11.0820 C.2     1  UNL1        0.0090
     24  C         18.7360  -21.9700  -11.0830 C.2     1  UNL1        0.0010
     25  C         18.7890  -20.6520  -11.5290 C.2     1  UNL1        0.0000
     26  C         19.9940  -20.1180  -11.9790 C.2     1  UNL1        0.0010
     27  C         21.1520  -20.9000  -11.9780 C.2     1  UNL1        0.0090
     28  C         24.7340  -22.7790  -13.5090 C.2     1  UNL1        0.0450
     29  C         25.1340  -24.1230  -13.5930 C.2     1  UNL1        0.0180
     30  C         25.3410  -24.7320  -14.8360 C.2     1  UNL1        0.0010
     31  C         25.1720  -24.0050  -16.0140 C.2     1  UNL1        0.0020
     32  C         24.7830  -22.6660  -15.9570 C.2     1  UNL1        0.0370
     33  C         24.5670  -22.0660  -14.7060 C.2     1  UNL1        0.1170
     34  N         24.1020  -20.6880  -14.6920 N.pl3   1  UNL1       -0.1150
     35  O         24.9600  -19.7970  -14.6940 O.2     1  UNL1       -0.5320
     36  O         22.8780  -20.5060  -14.7570 O.2     1  UNL1       -0.5320
@<TRIPOS>BOND
     1    31    32    2
     2    31    30    1
     3    32    33    1
     4    30    29    2
     5    36    34    2
     6    33    34    1
     7    33    28    2
     8    35    34    2
     9    29    28    1
    10    28     4    1
    11     4     3   ar
    12     4     5   ar
    13    26    27    1
    14    26    25    2
    15    27    22    2
    16     3     2   ar
    17    25    24    1
    18    22    21    1
    19    22    23    1
    20    21     5    1
    21     5     1   ar
    22    24    23    2
    23     2     1   ar
    24     1     6    1
    25     6     7    1
    26     7     8    1
    27     9     8    2
    28     9    10    1
    29     8    13    1
    30    10    11    2
    31    15    14    2
    32    13    12    2
    33    11    12    1
    34    11    14    1
    35    14    16   am
    36    16    17    1
    37    16    18    1
    38    19    18    1
    39    19    20    1
    40    18    20    1
