@<TRIPOS>MOLECULE
6283_out_ligand_01.pdbqt
 35 38 0 0 0
SMALL
GASTEIGER

@<TRIPOS>ATOM
      1  C         20.8040  -22.5260  -10.8310 C.2     1  UNL1        0.0340
      2  C         20.5950  -23.5190   -9.8620 C.2     1  UNL1        0.0310
      3  C         19.3330  -23.7060   -9.2930 C.2     1  UNL1        0.0270
      4  C         18.2720  -22.8920   -9.6940 C.2     1  UNL1        0.0800
      5  C         18.4590  -21.9140  -10.6720 C.2     1  UNL1        0.0270
      6  C         19.7270  -21.7310  -11.2340 C.2     1  UNL1        0.0310
      7  S         16.6640  -23.1180   -8.9790 S.O2    1  UNL1        0.2630
      8  O         15.8390  -23.8490   -9.9140 O.2     1  UNL1       -0.2000
      9  O         16.2410  -21.8320   -8.4620 O.2     1  UNL1       -0.2000
     10  N         16.9900  -24.0760   -7.6280 N.pl3   1  UNL1       -0.2800
     11  H         17.8720  -24.5750   -7.7240 H       1  UNL1        0.1790
     12  C         16.6640  -23.5610   -6.3360 C.2     1  UNL1        0.0530
     13  C         15.4930  -24.0330   -5.7340 C.2     1  UNL1        0.0310
     14  C         15.1160  -23.5670   -4.4800 C.2     1  UNL1        0.0030
     15  C         15.9080  -22.6270   -3.8230 C.2     1  UNL1        0.0120
     16  C         17.0860  -22.1350   -4.4110 C.2     1  UNL1       -0.0240
     17  C         17.8720  -21.1880   -3.7360 C.2     1  UNL1        0.0120
     18  C         17.4800  -22.5960   -5.6920 C.2     1  UNL1        0.0010
     19  C         19.0400  -20.6850   -4.3090 C.2     1  UNL1        0.0010
     20  C         19.4350  -21.1220   -5.5680 C.2     1  UNL1        0.0010
     21  C         18.6660  -22.0650   -6.2510 C.2     1  UNL1        0.0140
     22  N         22.1060  -22.4010  -11.3480 N.am    1  UNL1       -0.3250
     23  C         23.1920  -21.7610  -10.7770 C.2     1  UNL1        0.2510
     24  O         23.2170  -21.1870   -9.6910 O.2     1  UNL1       -0.2700
     25  H         22.3120  -22.9140  -12.2000 H       1  UNL1        0.1690
     26  C         24.4410  -21.7970  -11.6780 C.3     1  UNL1        0.2170
     27  C         25.5970  -21.1430  -10.9260 C.3     1  UNL1        0.0500
     28  O         24.2690  -21.0610  -12.8920 O.2     1  UNL1       -0.3370
     29  C         24.6150  -21.6610  -14.0720 C.2     1  UNL1        0.0700
     30  C         24.5900  -20.8070  -15.1800 C.2     1  UNL1        0.0400
     31  C         24.9100  -21.2830  -16.4530 C.2     1  UNL1        0.0450
     32  C         25.2500  -22.6200  -16.6120 C.2     1  UNL1        0.1160
     33  F         25.5560  -23.0830  -17.8310 F       1  UNL1       -0.2060
     34  C         25.2780  -23.4820  -15.5230 C.2     1  UNL1        0.0450
     35  C         24.9590  -23.0040  -14.2480 C.2     1  UNL1        0.0400
@<TRIPOS>BOND
     1    33    32    1
     2    32    31    2
     3    32    34    1
     4    31    30    1
     5    34    35    2
     6    30    29    2
     7    35    29    1
     8    29    28    1
     9    28    26    1
    10    25    22    1
    11    26    27    1
    12    26    23    1
    13    22     1    1
    14    22    23   am
    15     6     1    2
    16     6     5    1
    17     1     2    1
    18    23    24    2
    19     5     4    2
    20     8     7    2
    21     2     3    2
    22     4     3    1
    23     4     7    1
    24     7     9    2
    25     7    10    1
    26    11    10    1
    27    10    12    1
    28    12    13    2
    29    12    18    1
    30    21    18    1
    31    21    20    2
    32    13    14    1
    33    18    16    2
    34    20    19    1
    35    14    15    2
    36    16    15    1
    37    16    17    1
    38    19    17    2
