@<TRIPOS>MOLECULE
62865_out_ligand_01.pdbqt
 29 32 0 0 0
SMALL
GASTEIGER

@<TRIPOS>ATOM
      1  C         23.1590  -23.9590   -8.8320 C.3     1  UNL1        0.1630
      2  N         22.7970  -23.1800  -10.0000 N.ar    1  UNL1       -0.2860
      3  C         23.7540  -22.8250  -10.9450 C.ar    1  UNL1        0.3300
      4  O         24.9440  -23.1300  -10.8690 O.2     1  UNL1       -0.2460
      5  N         23.3240  -22.0800  -12.0300 N.ar    1  UNL1       -0.2730
      6  C         22.0440  -21.6400  -12.2860 C.ar    1  UNL1        0.2800
      7  O         21.7620  -20.9690  -13.2720 O.2     1  UNL1       -0.2650
      8  C         21.1240  -22.0460  -11.2850 C.ar    1  UNL1        0.1660
      9  C         21.4930  -22.7780  -10.1960 C.ar    1  UNL1        0.1850
     10  N         20.4390  -23.0320   -9.3740 N.ar    1  UNL1       -0.0430
     11  C         19.4000  -22.4450   -9.9460 C.ar    1  UNL1        0.7120
     12  N         19.7850  -21.8530  -11.1340 N.ar    1  UNL1       -0.1720
     13  C         18.8930  -21.1380  -12.0190 C.3     1  UNL1        0.1500
     14  C         17.4450  -21.5140  -11.7530 C.3     1  UNL1        0.0420
     15  C         17.1740  -21.4900  -10.2500 C.3     1  UNL1        0.1490
     16  N         18.0920  -22.4050   -9.5480 N.pl3   1  UNL1       -0.1810
     17  H         24.0330  -21.8290  -12.6990 H       1  UNL1        0.1730
     18  C         17.6820  -22.7380   -8.2310 C.2     1  UNL1        0.0510
     19  C         18.2910  -22.1280   -7.1190 C.2     1  UNL1        0.0320
     20  C         17.9010  -22.4340   -5.8120 C.2     1  UNL1        0.0270
     21  C         16.8780  -23.3580   -5.6020 C.2     1  UNL1        0.0740
     22  C         16.2580  -23.9870   -6.6820 C.2     1  UNL1        0.0270
     23  C         16.6560  -23.6670   -7.9840 C.2     1  UNL1        0.0320
     24  S         16.3580  -23.7530   -3.9560 S.O2    1  UNL1        0.2390
     25  O         17.5130  -24.1710   -3.1950 O.2     1  UNL1       -0.2060
     26  O         15.1520  -24.5430   -4.0350 O.2     1  UNL1       -0.2060
     27  N         15.9510  -22.2320   -3.3580 N.3     1  UNL1       -0.2250
     28  H         16.0760  -21.5420   -4.0990 H       1  UNL1        0.1360
     29  H         15.0120  -22.1960   -2.9600 H       1  UNL1        0.1360
@<TRIPOS>BOND
     1     7     6    2
     2    17     5    1
     3     6     5   ar
     4     6     8   ar
     5     5     3   ar
     6    13    14    1
     7    13    12    1
     8    14    15    1
     9     8    12   ar
    10     8     9   ar
    11    12    11   ar
    12     3     4    2
    13     3     2   ar
    14    15    16    1
    15     9     2   ar
    16     9    10   ar
    17     2     1    1
    18    11    16    1
    19    11    10   ar
    20    16    18    1
    21    18    23    2
    22    18    19    1
    23    23    22    1
    24    19    20    2
    25    22    21    2
    26    20    21    1
    27    21    24    1
    28    28    27    1
    29    26    24    2
    30    24    27    1
    31    24    25    2
    32    27    29    1
