@<TRIPOS>MOLECULE
62876_out_ligand_01.pdbqt
 28 30 0 0 0
SMALL
GASTEIGER

@<TRIPOS>ATOM
      1  N         20.3540  -22.5990   -8.9830 N.am    1  UNL1       -0.3230
      2  C         21.1420  -23.7240   -9.1330 C.2     1  UNL1        0.2580
      3  O         20.8940  -24.8610   -8.7550 O.2     1  UNL1       -0.2670
      4  H         20.7660  -21.7210   -9.2770 H       1  UNL1        0.1690
      5  C         19.0610  -22.5230   -8.4270 C.2     1  UNL1        0.0360
      6  C         18.7940  -22.5070   -7.0530 C.2     1  UNL1        0.0490
      7  C         17.4720  -22.4340   -6.5750 C.2     1  UNL1        0.0720
      8  C         16.4250  -22.3800   -7.4960 C.2     1  UNL1        0.1320
      9  C         16.6750  -22.3980   -8.8640 C.2     1  UNL1        0.0450
     10  F         15.1450  -22.3140   -7.0960 F       1  UNL1       -0.2050
     11  C         17.9890  -22.4720   -9.3280 C.2     1  UNL1        0.0320
     12  C         17.2490  -22.4240   -5.1000 C.2     1  UNL1        0.2540
     13  N         16.4080  -23.3820   -4.5750 N.am    1  UNL1       -0.3610
     14  C         16.2020  -23.4990   -3.1540 C.3     1  UNL1        0.1490
     15  H         16.0550  -24.1180   -5.1740 H       1  UNL1        0.1620
     16  O         17.8080  -21.5860   -4.4000 O.2     1  UNL1       -0.2680
     17  C         22.4510  -23.4180   -9.7800 C.2     1  UNL1        0.0590
     18  C         23.5370  -23.8440   -9.1160 C.2     1  UNL1        0.1090
     19  N         24.8060  -23.5620   -9.5510 N.am    1  UNL1       -0.3320
     20  C         25.0960  -22.8210  -10.6750 C.2     1  UNL1        0.2560
     21  H         25.6080  -23.8910   -9.0250 H       1  UNL1        0.1680
     22  O         26.2480  -22.5630  -11.0000 O.2     1  UNL1       -0.2670
     23  C         23.9280  -22.3550  -11.4710 C.2     1  UNL1        0.0430
     24  C         24.1460  -21.6350  -12.6530 C.2     1  UNL1        0.0180
     25  C         22.6260  -22.6690  -11.0390 C.2     1  UNL1       -0.0030
     26  C         23.0590  -21.2360  -13.4280 C.2     1  UNL1        0.0010
     27  C         21.7650  -21.5630  -13.0300 C.2     1  UNL1        0.0010
     28  C         21.5480  -22.2810  -11.8490 C.2     1  UNL1        0.0130
@<TRIPOS>BOND
     1    26    27    2
     2    26    24    1
     3    27    28    1
     4    24    23    2
     5    28    25    2
     6    23    25    1
     7    23    20    1
     8    25    17    1
     9    22    20    2
    10    20    19   am
    11    17     2    1
    12    17    18    2
    13    19    18    1
    14    19    21    1
    15    11     9    1
    16    11     5    2
    17     4     1    1
    18     2     1   am
    19     2     3    2
    20     1     5    1
    21     9     8    2
    22     5     6    1
    23     8    10    1
    24     8     7    1
    25     6     7    2
    26     7    12    1
    27    15    13    1
    28    12    13   am
    29    12    16    2
    30    13    14    1
