@<TRIPOS>MOLECULE
62878_out_ligand_01.pdbqt
 31 34 0 0 0
SMALL
GASTEIGER

@<TRIPOS>ATOM
      1  C         17.3310  -22.5750   -7.3300 C.2     1  UNL1       -0.0190
      2  C         16.1240  -22.7830   -8.0220 C.2     1  UNL1        0.0100
      3  C         16.1060  -22.9350   -9.4080 C.2     1  UNL1        0.0030
      4  C         17.2940  -22.8750  -10.1320 C.2     1  UNL1        0.0290
      5  C         18.5110  -22.6550   -9.4790 C.2     1  UNL1        0.0350
      6  C         18.5180  -22.5110   -8.0870 C.2     1  UNL1        0.0390
      7  N         19.6720  -22.6080  -10.2810 N.am    1  UNL1       -0.3230
      8  C         20.0820  -21.5790  -11.1090 C.2     1  UNL1        0.2560
      9  O         19.4640  -20.5520  -11.3650 O.2     1  UNL1       -0.2670
     10  H         20.2240  -23.4560  -10.2980 H       1  UNL1        0.1690
     11  C         21.3950  -21.7980  -11.7800 C.2     1  UNL1        0.0320
     12  C         22.3310  -22.6320  -11.1600 C.2     1  UNL1        0.0170
     13  C         23.5740  -22.8620  -11.7570 C.2     1  UNL1        0.0100
     14  C         23.9020  -22.2710  -12.9900 C.2     1  UNL1       -0.0350
     15  C         22.9440  -21.4490  -13.6110 C.2     1  UNL1        0.0100
     16  C         21.6990  -21.2190  -13.0170 C.2     1  UNL1        0.0170
     17  C         25.2600  -22.5350  -13.6100 C.3     1  UNL1        0.1410
     18  S         26.2450  -23.7300  -12.6490 S.3     1  UNL1       -0.1480
     19  C         27.0000  -24.5540  -14.0700 C.3     1  UNL1        0.0850
     20  C         25.9280  -24.6980  -15.1300 C.3     1  UNL1        0.0850
     21  S         25.1270  -23.0870  -15.3460 S.3     1  UNL1       -0.1480
     22  C         17.3280  -22.4020   -5.8140 C.3     1  UNL1        0.1390
     23  C         18.5700  -21.7560   -5.1870 C.3     1  UNL1        0.0540
     24  N         16.1460  -21.6660   -5.3960 N.am    1  UNL1       -0.3210
     25  C         15.3510  -22.3820   -4.5380 C.2     1  UNL1        0.3240
     26  H         15.8650  -20.7650   -5.7570 H       1  UNL1        0.1650
     27  O         14.2840  -22.0040   -4.0900 O.2     1  UNL1       -0.2470
     28  N         15.9340  -23.5810   -4.3060 N.am    1  UNL1       -0.2770
     29  C         17.0620  -23.7270   -5.0580 C.2     1  UNL1        0.2580
     30  H         15.5240  -24.3080   -3.7460 H       1  UNL1        0.1730
     31  O         17.7360  -24.7470   -5.0960 O.2     1  UNL1       -0.2700
@<TRIPOS>BOND
     1    21    20    1
     2    21    17    1
     3    20    19    1
     4    19    18    1
     5    15    16    1
     6    15    14    2
     7    17    14    1
     8    17    18    1
     9    16    11    2
    10    14    13    1
    11    11    12    1
    12    11     8    1
    13    13    12    2
    14     9     8    2
    15     8     7   am
    16    10     7    1
    17     7     5    1
    18     4     5    2
    19     4     3    1
    20     5     6    1
    21     3     2    2
    22     6     1    2
    23     2     1    1
    24     1    22    1
    25    22    24    1
    26    22    23    1
    27    22    29    1
    28    26    24    1
    29    24    25   am
    30    31    29    2
    31    29    28   am
    32    25    28   am
    33    25    27    2
    34    28    30    1
