@<TRIPOS>MOLECULE
62889_out_ligand_01.pdbqt
 34 37 0 0 0
SMALL
GASTEIGER

@<TRIPOS>ATOM
      1  C         19.6230  -22.8430   -9.9840 C.2     1  UNL1        0.0320
      2  C         20.2730  -22.1930  -11.0370 C.2     1  UNL1        0.0190
      3  C         21.6470  -22.3790  -11.2310 C.2     1  UNL1        0.0300
      4  C         22.3890  -23.2080  -10.3770 C.2     1  UNL1        0.0340
      5  C         21.7360  -23.8410   -9.3190 C.2     1  UNL1        0.0300
      6  C         20.3630  -23.6550   -9.1190 C.2     1  UNL1        0.0190
      7  C         18.1640  -22.6790   -9.7310 C.2     1  UNL1        0.2520
      8  N         17.6760  -23.2590   -8.5810 N.am    1  UNL1       -0.3490
      9  H         18.3240  -23.5950   -7.8820 H       1  UNL1        0.1630
     10  O         17.4710  -22.0310  -10.5070 O.2     1  UNL1       -0.2680
     11  C         16.2870  -23.1010   -8.1720 C.3     1  UNL1        0.1140
     12  C         15.4020  -24.1190   -8.9050 C.3     1  UNL1        0.0370
     13  C         16.2110  -23.1430   -6.6450 C.2     1  UNL1       -0.0250
     14  C         15.2410  -23.9400   -6.0040 C.2     1  UNL1        0.0100
     15  C         15.1640  -24.0040   -4.6160 C.2     1  UNL1        0.0020
     16  C         16.0630  -23.2850   -3.8360 C.2     1  UNL1        0.0120
     17  C         17.0570  -22.4970   -4.4300 C.2     1  UNL1       -0.0250
     18  C         17.9610  -21.7940   -3.6160 C.2     1  UNL1        0.0120
     19  C         17.1510  -22.4180   -5.8440 C.2     1  UNL1       -0.0180
     20  C         18.9710  -21.0120   -4.1730 C.2     1  UNL1        0.0010
     21  C         19.0880  -20.9250   -5.5510 C.2     1  UNL1        0.0010
     22  C         18.1940  -21.6160   -6.3730 C.2     1  UNL1        0.0130
     23  N         23.7650  -23.3370  -10.6480 N.am    1  UNL1       -0.3270
     24  C         24.7430  -22.3630  -10.5850 C.2     1  UNL1        0.2310
     25  O         24.5540  -21.1800  -10.3020 O.2     1  UNL1       -0.2720
     26  H         24.0950  -24.2700  -10.8630 H       1  UNL1        0.1690
     27  C         26.1430  -22.8120  -10.9920 C.3     1  UNL1        0.1850
     28  S         26.7070  -22.2350  -12.6240 S.3     1  UNL1       -0.0800
     29  C         26.1260  -23.5030  -13.6390 C.ar    1  UNL1        0.1980
     30  N         25.4740  -24.5780  -13.2680 N.ar    1  UNL1       -0.1350
     31  N         25.2070  -25.2720  -14.4250 N.ar    1  UNL1        0.0180
     32  N         25.6830  -24.6320  -15.4850 N.ar    1  UNL1       -0.0030
     33  N         26.2640  -23.5230  -14.9950 N.ar    1  UNL1       -0.2590
     34  C         26.9030  -22.5820  -15.8710 C.3     1  UNL1        0.1770
@<TRIPOS>BOND
     1    34    33    1
     2    32    33   ar
     3    32    31   ar
     4    33    29   ar
     5    31    30   ar
     6    29    30   ar
     7    29    28    1
     8    28    27    1
     9     3     2    1
    10     3     4    2
    11     2     1    2
    12    27    24    1
    13    26    23    1
    14    23    24   am
    15    23     4    1
    16    24    25    2
    17    10     7    2
    18     4     5    1
    19     1     7    1
    20     1     6    1
    21     7     8   am
    22     5     6    2
    23    12    11    1
    24     8    11    1
    25     8     9    1
    26    11    13    1
    27    13    14    2
    28    13    19    1
    29    22    19    1
    30    22    21    2
    31    14    15    1
    32    19    17    2
    33    21    20    1
    34    15    16    2
    35    17    16    1
    36    17    18    1
    37    20    18    2
