@<TRIPOS>MOLECULE
62896_out_ligand_01.pdbqt
 36 40 0 0 0
SMALL
GASTEIGER

@<TRIPOS>ATOM
      1  C         18.3830  -22.3340  -10.5730 C.2     1  UNL1        0.0840
      2  C         17.0340  -22.1140  -10.2520 C.2     1  UNL1        0.0390
      3  C         16.4480  -22.7440   -9.1520 C.2     1  UNL1        0.0270
      4  C         17.2150  -23.5940   -8.3600 C.2     1  UNL1        0.0760
      5  C         18.5600  -23.8220   -8.6560 C.2     1  UNL1        0.0440
      6  C         19.1640  -23.1820   -9.7540 C.2     1  UNL1        0.0660
      7  C         20.6210  -23.4680   -9.9690 C.2     1  UNL1        0.2540
      8  O         21.1130  -24.4950   -9.5150 O.2     1  UNL1       -0.2680
      9  N         21.3530  -22.5350  -10.6660 N.am    1  UNL1       -0.3500
     10  H         20.8420  -21.7580  -11.0740 H       1  UNL1        0.1630
     11  C         22.7660  -22.6540  -10.9710 C.3     1  UNL1        0.1140
     12  C         23.7080  -22.2600   -9.8330 C.3     1  UNL1        0.0570
     13  C         24.7330  -21.3330  -10.4790 C.3     1  UNL1        0.2750
     14  N         24.6880  -21.5830  -11.9320 N.3     1  UNL1        0.0940
     15  C         23.2570  -21.8410  -12.1790 C.3     1  UNL1        0.2970
     16  C         25.5230  -22.7270  -12.3380 C.3     1  UNL1        0.3110
     17  C         25.3520  -23.1140  -13.7940 C.2     1  UNL1       -0.0300
     18  C         25.2810  -24.4640  -14.1670 C.2     1  UNL1        0.0090
     19  C         25.0990  -24.8240  -15.5050 C.2     1  UNL1        0.0010
     20  C         24.9820  -23.8370  -16.4820 C.2     1  UNL1        0.0000
     21  C         25.0420  -22.4920  -16.1250 C.2     1  UNL1        0.0010
     22  C         25.2210  -22.1330  -14.7870 C.2     1  UNL1        0.0090
     23  O         18.9910  -21.7290  -11.6460 O.2     1  UNL1       -0.3550
     24  C         19.1780  -20.3170  -11.5720 C.3     1  UNL1        0.2100
     25  S         16.4890  -24.4100   -6.9530 S.O2    1  UNL1        0.2480
     26  O         15.2220  -24.9680   -7.3810 O.2     1  UNL1       -0.2050
     27  O         17.5240  -25.2540   -6.3960 O.2     1  UNL1       -0.2050
     28  N         16.1710  -23.0950   -5.9190 N.pl3   1  UNL1       -0.1710
     29  C         15.3600  -23.4050   -4.6920 C.3     1  UNL1        0.1180
     30  C         15.7950  -22.3960   -3.6180 C.3     1  UNL1        0.0560
     31  C         17.1040  -21.9140   -4.1470 C.2     1  UNL1       -0.0350
     32  C         18.0290  -21.1080   -3.5020 C.2     1  UNL1        0.0090
     33  C         17.2970  -22.3300   -5.4640 C.2     1  UNL1        0.0310
     34  C         19.1560  -20.6960   -4.2130 C.2     1  UNL1        0.0010
     35  C         19.3340  -21.0810   -5.5500 C.2     1  UNL1        0.0020
     36  C         18.3900  -21.8910   -6.1900 C.2     1  UNL1        0.0250
@<TRIPOS>BOND
     1    20    21    2
     2    20    19    1
     3    21    22    1
     4    19    18    2
     5    22    17    2
     6    18    17    1
     7    17    16    1
     8    16    14    1
     9    15    14    1
    10    15    11    1
    11    14    13    1
    12    23    24    1
    13    23     1    1
    14    10     9    1
    15    11     9    1
    16    11    12    1
    17     9     7   am
    18     1     2    2
    19     1     6    1
    20    13    12    1
    21     2     3    1
    22     7     6    1
    23     7     8    2
    24     6     5    2
    25     3     4    2
    26     5     4    1
    27     4    25    1
    28    26    25    2
    29    25    27    2
    30    25    28    1
    31    36    35    2
    32    36    33    1
    33    28    33    1
    34    28    29    1
    35    35    34    1
    36    33    31    2
    37    29    30    1
    38    34    32    2
    39    31    30    1
    40    31    32    1
