@<TRIPOS>MOLECULE
6290_out_ligand_01.pdbqt
 37 40 0 0 0
SMALL
GASTEIGER

@<TRIPOS>ATOM
      1  C         20.6930  -22.4080  -10.8330 C.2     1  UNL1        0.0340
      2  C         20.5150  -23.3830   -9.8420 C.2     1  UNL1        0.0310
      3  C         19.2550  -23.6030   -9.2750 C.2     1  UNL1        0.0270
      4  C         18.1670  -22.8440   -9.7050 C.2     1  UNL1        0.0800
      5  C         18.3350  -21.8530  -10.6740 C.2     1  UNL1        0.0270
      6  C         19.5960  -21.6430  -11.2410 C.2     1  UNL1        0.0310
      7  N         21.9920  -22.2510  -11.3510 N.am    1  UNL1       -0.3250
      8  C         23.0890  -21.6740  -10.7350 C.2     1  UNL1        0.2510
      9  O         23.1210  -21.1660   -9.6170 O.2     1  UNL1       -0.2700
     10  H         22.1360  -22.5180  -12.3200 H       1  UNL1        0.1690
     11  C         24.3630  -21.7550  -11.5970 C.3     1  UNL1        0.2170
     12  C         25.3520  -22.6910  -10.9080 C.3     1  UNL1        0.0500
     13  O         24.1170  -22.2980  -12.8960 O.2     1  UNL1       -0.3370
     14  C         24.6260  -21.6390  -13.9810 C.2     1  UNL1        0.0710
     15  C         25.2410  -20.3880  -13.9750 C.2     1  UNL1        0.0450
     16  C         25.7100  -19.8110  -15.1690 C.2     1  UNL1       -0.0370
     17  C         26.3620  -18.4550  -15.1160 C.3     1  UNL1        0.0500
     18  C         25.5510  -20.5100  -16.3800 C.2     1  UNL1        0.0460
     19  C         24.9250  -21.7690  -16.4010 C.2     1  UNL1       -0.0370
     20 CL         26.1280  -19.8130  -17.8620 Cl      1  UNL1       -0.0830
     21  C         24.4660  -22.3160  -15.1920 C.2     1  UNL1        0.0450
     22  C         24.7380  -22.5490  -17.6740 C.3     1  UNL1        0.0500
     23  S         16.5700  -23.1050   -8.9770 S.O2    1  UNL1        0.2630
     24  O         15.7400  -23.8210   -9.9190 O.2     1  UNL1       -0.2000
     25  O         16.1380  -21.8370   -8.4240 O.2     1  UNL1       -0.2000
     26  N         16.9230  -24.0870   -7.6500 N.pl3   1  UNL1       -0.2800
     27  H         17.8340  -24.5320   -7.7490 H       1  UNL1        0.1790
     28  C         16.5660  -23.6180   -6.3470 C.2     1  UNL1        0.0530
     29  C         15.3790  -24.1090   -5.7950 C.2     1  UNL1        0.0310
     30  C         14.9640  -23.6800   -4.5390 C.2     1  UNL1        0.0030
     31  C         15.7360  -22.7620   -3.8310 C.2     1  UNL1        0.0120
     32  C         16.9310  -22.2550   -4.3670 C.2     1  UNL1       -0.0240
     33  C         17.6970  -21.3280   -3.6400 C.2     1  UNL1        0.0120
     34  C         17.3640  -22.6770   -5.6490 C.2     1  UNL1        0.0010
     35  C         18.8810  -20.8100   -4.1620 C.2     1  UNL1        0.0010
     36  C         19.3160  -21.2090   -5.4200 C.2     1  UNL1        0.0010
     37  C         18.5670  -22.1310   -6.1550 C.2     1  UNL1        0.0140
@<TRIPOS>BOND
     1    20    18    1
     2    22    19    1
     3    19    18    2
     4    19    21    1
     5    18    16    1
     6    21    14    2
     7    16    17    1
     8    16    15    2
     9    14    15    1
    10    14    13    1
    11    13    11    1
    12    10     7    1
    13    11    12    1
    14    11     8    1
    15     7     1    1
    16     7     8   am
    17     6     1    2
    18     6     5    1
    19     1     2    1
    20     8     9    2
    21     5     4    2
    22    24    23    2
    23     2     3    2
    24     4     3    1
    25     4    23    1
    26    23    25    2
    27    23    26    1
    28    27    26    1
    29    26    28    1
    30    28    29    2
    31    28    34    1
    32    37    34    1
    33    37    36    2
    34    29    30    1
    35    34    32    2
    36    36    35    1
    37    30    31    2
    38    32    31    1
    39    32    33    1
    40    35    33    2
