@<TRIPOS>MOLECULE
62907_out_ligand_01.pdbqt
 34 38 0 0 0
SMALL
GASTEIGER

@<TRIPOS>ATOM
      1  C         20.1410  -21.9260  -11.0210 C.2     1  UNL1        0.0330
      2  C         19.2550  -21.1500  -11.7830 C.2     1  UNL1        0.0170
      3  C         17.8970  -21.0990  -11.4610 C.2     1  UNL1        0.0030
      4  C         17.4160  -21.8150  -10.3680 C.2     1  UNL1        0.0250
      5  C         18.3070  -22.5650   -9.5920 C.2     1  UNL1        0.0760
      6  C         19.6680  -22.6270   -9.9070 C.2     1  UNL1        0.0410
      7  C         21.5720  -21.9620  -11.4290 C.2     1  UNL1        0.2520
      8  O         21.9190  -21.4740  -12.4980 O.2     1  UNL1       -0.2680
      9  N         22.4430  -22.5990  -10.5710 N.am    1  UNL1       -0.3500
     10  H         22.0840  -23.1220   -9.7830 H       1  UNL1        0.1630
     11  C         23.8330  -22.7920  -10.9420 C.3     1  UNL1        0.1140
     12  C         24.6390  -21.4990  -10.8920 C.3     1  UNL1        0.0570
     13  C         25.7080  -21.7190  -11.9460 C.3     1  UNL1        0.2750
     14  N         24.9410  -22.3400  -13.0260 N.3     1  UNL1        0.0940
     15  C         24.0440  -23.3150  -12.3790 C.3     1  UNL1        0.2970
     16  C         25.7760  -22.9620  -14.0570 C.3     1  UNL1        0.3110
     17  C         25.3360  -22.6210  -15.4660 C.2     1  UNL1       -0.0300
     18  C         25.4460  -21.3110  -15.9510 C.2     1  UNL1        0.0090
     19  C         25.0400  -21.0000  -17.2510 C.2     1  UNL1        0.0010
     20  C         24.5230  -21.9950  -18.0780 C.2     1  UNL1        0.0000
     21  C         24.4100  -23.3020  -17.6070 C.2     1  UNL1        0.0010
     22  C         24.8140  -23.6140  -16.3090 C.2     1  UNL1        0.0090
     23  S         17.6740  -23.4630   -8.1900 S.O2    1  UNL1        0.2480
     24  O         18.6610  -24.4640   -7.8360 O.2     1  UNL1       -0.2050
     25  O         16.3190  -23.8380   -8.5350 O.2     1  UNL1       -0.2050
     26  N         17.6640  -22.2670   -6.9800 N.pl3   1  UNL1       -0.1710
     27  C         19.0020  -21.6900   -6.6080 C.3     1  UNL1        0.1180
     28  C         18.8870  -21.2440   -5.1410 C.3     1  UNL1        0.0560
     29  C         17.6990  -22.0150   -4.6700 C.2     1  UNL1       -0.0350
     30  C         17.2340  -22.1370   -3.3690 C.2     1  UNL1        0.0090
     31  C         17.0180  -22.5940   -5.7400 C.2     1  UNL1        0.0310
     32  C         16.0530  -22.8460   -3.1530 C.2     1  UNL1        0.0010
     33  C         15.3470  -23.3990   -4.2310 C.2     1  UNL1        0.0020
     34  C         15.8200  -23.2590   -5.5400 C.2     1  UNL1        0.0250
@<TRIPOS>BOND
     1    20    21    2
     2    20    19    1
     3    21    22    1
     4    19    18    2
     5    22    17    2
     6    18    17    1
     7    17    16    1
     8    16    14    1
     9    14    15    1
    10    14    13    1
    11     8     7    2
    12    15    11    1
    13    13    12    1
    14     2     3    1
    15     2     1    2
    16     3     4    2
    17     7     1    1
    18     7     9   am
    19     1     6    1
    20    11    12    1
    21    11     9    1
    22     9    10    1
    23     4     5    1
    24     6     5    2
    25     5    23    1
    26    25    23    2
    27    23    24    2
    28    23    26    1
    29    26    27    1
    30    26    31    1
    31    27    28    1
    32    31    34    1
    33    31    29    2
    34    34    33    2
    35    28    29    1
    36    29    30    1
    37    33    32    1
    38    30    32    2
