@<TRIPOS>MOLECULE
62923_out_ligand_01.pdbqt
 32 35 0 0 0
SMALL
GASTEIGER

@<TRIPOS>ATOM
      1  C         22.2220  -21.9380  -12.0330 C.2     1  UNL1        0.0340
      2  C         22.1470  -22.7680  -10.9120 C.2     1  UNL1        0.0300
      3  C         20.9500  -22.8900  -10.1990 C.2     1  UNL1        0.0190
      4  C         19.8240  -22.1560  -10.5880 C.2     1  UNL1        0.0320
      5  C         19.8890  -21.3190  -11.7040 C.2     1  UNL1        0.0190
      6  C         21.0830  -21.2190  -12.4270 C.2     1  UNL1        0.0300
      7  C         18.5620  -22.3300   -9.8240 C.2     1  UNL1        0.2560
      8  O         17.5110  -21.9820  -10.3540 O.2     1  UNL1       -0.2670
      9  N         18.7210  -22.9030   -8.5820 N.am    1  UNL1       -0.3210
     10  H         19.6330  -23.2720   -8.3210 H       1  UNL1        0.1690
     11  C         17.7270  -23.1740   -7.6080 C.2     1  UNL1        0.0640
     12  C         16.6480  -24.0340   -7.8350 C.2     1  UNL1        0.0320
     13  C         15.7040  -24.2550   -6.8330 C.2     1  UNL1        0.0030
     14  C         15.8380  -23.6190   -5.6030 C.2     1  UNL1        0.0140
     15  C         16.9170  -22.7500   -5.3670 C.2     1  UNL1       -0.0050
     16  C         17.0750  -22.1010   -4.1360 C.2     1  UNL1        0.0150
     17  C         17.8770  -22.5140   -6.3760 C.2     1  UNL1        0.0930
     18  C         18.1530  -21.2500   -3.9330 C.2     1  UNL1        0.0200
     19  C         19.0430  -21.0720   -4.9730 C.2     1  UNL1        0.1170
     20  N         18.9270  -21.6780   -6.1770 N.2     1  UNL1       -0.2580
     21  N         23.3760  -21.7910  -12.8290 N.am    1  UNL1       -0.3270
     22  C         24.6660  -21.5280  -12.4030 C.2     1  UNL1        0.2310
     23  O         25.0140  -21.2740  -11.2520 O.2     1  UNL1       -0.2720
     24  H         23.2290  -21.8170  -13.8370 H       1  UNL1        0.1690
     25  C         25.6910  -21.6030  -13.5220 C.3     1  UNL1        0.1850
     26  S         25.4250  -20.2820  -14.7430 S.3     1  UNL1       -0.0800
     27  C         24.7640  -21.1950  -16.0510 C.ar    1  UNL1        0.1980
     28  N         24.0900  -22.3210  -15.9660 N.ar    1  UNL1       -0.1350
     29  N         23.8090  -22.6890  -17.2640 N.ar    1  UNL1        0.0180
     30  N         24.2990  -21.8100  -18.1290 N.ar    1  UNL1       -0.0030
     31  N         24.8810  -20.8580  -17.3700 N.ar    1  UNL1       -0.2590
     32  C         25.5110  -19.7250  -17.9890 C.3     1  UNL1        0.1770
@<TRIPOS>BOND
     1    30    31   ar
     2    30    29   ar
     3    32    31    1
     4    31    27   ar
     5    29    28   ar
     6    27    28   ar
     7    27    26    1
     8    26    25    1
     9    24    21    1
    10    25    22    1
    11    21    22   am
    12    21     1    1
    13     6     1    2
    14     6     5    1
    15    22    23    2
    16     1     2    1
    17     5     4    2
    18     2     3    2
    19     4     3    1
    20     4     7    1
    21     8     7    2
    22     7     9   am
    23     9    10    1
    24     9    11    1
    25    12    11    2
    26    12    13    1
    27    11    17    1
    28    13    14    2
    29    17    20    1
    30    17    15    2
    31    20    19    2
    32    14    15    1
    33    15    16    1
    34    19    18    1
    35    16    18    2
