@<TRIPOS>MOLECULE
62929_out_ligand_01.pdbqt
 29 31 0 0 0
SMALL
GASTEIGER

@<TRIPOS>ATOM
      1  C         25.0230  -22.1340  -14.6020 C.2     1  UNL1        0.0970
      2  S         24.9090  -22.8220  -16.1570 S.3     1  UNL1       -0.0830
      3  C         26.5050  -22.3720  -16.5640 C.2     1  UNL1        0.0530
      4  C         27.1210  -21.6950  -15.5370 C.2     1  UNL1        0.0330
      5  C         26.2620  -21.5520  -14.4040 C.2     1  UNL1        0.0790
      6  C         26.6370  -20.8800  -13.1980 C.1     1  UNL1        0.1020
      7  N         26.9010  -20.3330  -12.2090 N.1     1  UNL1       -0.1910
      8  N         23.9600  -22.1720  -13.7050 N.am    1  UNL1       -0.3160
      9  C         22.9080  -21.2750  -13.6320 C.2     1  UNL1        0.2560
     10  O         22.6750  -20.3250  -14.3670 O.2     1  UNL1       -0.2670
     11  H         23.9200  -22.9790  -13.0950 H       1  UNL1        0.1690
     12  C         21.9390  -21.5530  -12.5340 C.2     1  UNL1        0.0320
     13  C         22.2980  -22.4780  -11.5450 C.2     1  UNL1        0.0190
     14  C         21.4200  -22.7630  -10.4970 C.2     1  UNL1        0.0250
     15  C         20.1710  -22.1400  -10.4460 C.2     1  UNL1        0.0250
     16  C         19.8080  -21.2210  -11.4330 C.2     1  UNL1        0.0250
     17  C         20.6850  -20.9300  -12.4820 C.2     1  UNL1        0.0190
     18  N         19.2430  -22.3740   -9.3710 N.pl3   1  UNL1       -0.1760
     19  C         17.9150  -22.8780   -9.7990 C.3     1  UNL1        0.1360
     20  S         19.9560  -23.2350   -8.0590 S.O2    1  UNL1        0.2470
     21  O         20.0370  -24.6320   -8.4360 O.2     1  UNL1       -0.2050
     22  O         21.1250  -22.5130   -7.6000 O.2     1  UNL1       -0.2050
     23  C         18.7220  -23.0750   -6.7890 C.2     1  UNL1        0.0750
     24  C         17.8170  -24.1120   -6.5530 C.2     1  UNL1        0.0250
     25  C         16.8560  -23.9680   -5.5510 C.2     1  UNL1        0.0080
     26  C         16.8080  -22.8020   -4.7750 C.2     1  UNL1       -0.0620
     27  C         15.7560  -22.6360   -3.7160 C.3     1  UNL1        0.0480
     28  C         17.7220  -21.7690   -5.0250 C.2     1  UNL1        0.0080
     29  C         18.6860  -21.9060   -6.0250 C.2     1  UNL1        0.0250
@<TRIPOS>BOND
     1     3     2    1
     2     3     4    2
     3     2     1    1
     4     4     5    1
     5     1     5    2
     6     1     8    1
     7     5     6    1
     8    10     9    2
     9     8     9   am
    10     8    11    1
    11     9    12    1
    12     6     7    3
    13    12    17    2
    14    12    13    1
    15    17    16    1
    16    13    14    2
    17    16    15    2
    18    14    15    1
    19    15    18    1
    20    19    18    1
    21    18    20    1
    22    21    20    2
    23    20    22    2
    24    20    23    1
    25    23    24    2
    26    23    29    1
    27    24    25    1
    28    29    28    2
    29    25    26    2
    30    28    26    1
    31    26    27    1
