@<TRIPOS>MOLECULE
62932_out_ligand_01.pdbqt
 31 33 0 0 0
SMALL
GASTEIGER

@<TRIPOS>ATOM
      1  C         21.9620  -21.8670  -10.7680 C.2     1  UNL1        0.2540
      2  O         22.5320  -21.3870   -9.7980 O.2     1  UNL1       -0.2680
      3  N         22.6100  -22.4940  -11.8090 N.am    1  UNL1       -0.3520
      4  H         22.0680  -23.0090  -12.4920 H       1  UNL1        0.1630
      5  C         20.4980  -21.7800  -10.9140 C.2     1  UNL1        0.0670
      6  C         19.9710  -20.8310  -11.7980 C.2     1  UNL1        0.0210
      7  C         18.5930  -20.7260  -11.9450 C.2     1  UNL1        0.0200
      8  C         17.7920  -21.5800  -11.2070 C.2     1  UNL1        0.1180
      9  N         18.2740  -22.5120  -10.3560 N.2     1  UNL1       -0.2530
     10  C         19.6240  -22.5980  -10.1990 C.2     1  UNL1        0.1130
     11  S         20.1730  -23.9000   -9.1090 S.3     1  UNL1       -0.0700
     12  C         19.3050  -23.4350   -7.6220 C.2     1  UNL1        0.0070
     13  C         18.3430  -24.2840   -7.0780 C.2     1  UNL1        0.0190
     14  C         17.6570  -23.9170   -5.9180 C.2     1  UNL1        0.0090
     15  C         17.9210  -22.6930   -5.2850 C.2     1  UNL1       -0.0560
     16  C         17.1600  -22.3310   -4.0380 C.3     1  UNL1        0.0490
     17  C         18.8790  -21.8220   -5.8400 C.2     1  UNL1       -0.0550
     18  C         19.5660  -22.2090   -7.0040 C.2     1  UNL1        0.0260
     19  C         19.2000  -20.4970   -5.2050 C.3     1  UNL1        0.0490
     20  C         24.0330  -22.7260  -11.7410 C.3     1  UNL1        0.1690
     21  C         24.5310  -23.0260  -13.1170 C.2     1  UNL1        0.0020
     22  C         25.3480  -24.0630  -13.5230 C.2     1  UNL1        0.0180
     23  C         25.5950  -24.0360  -14.9260 C.2     1  UNL1        0.0330
     24  C         24.9630  -22.9790  -15.5510 C.2     1  UNL1        0.1150
     25  S         24.0860  -22.0250  -14.4370 S.3     1  UNL1       -0.0800
     26  S         24.9050  -22.4620  -17.2500 S.O2    1  UNL1        0.2450
     27  O         26.1290  -22.9460  -17.8410 O.2     1  UNL1       -0.2060
     28  O         24.5480  -21.0630  -17.1960 O.2     1  UNL1       -0.2060
     29  N         23.6290  -23.2690  -17.9810 N.3     1  UNL1       -0.2250
     30  H         22.7310  -22.8290  -17.7840 H       1  UNL1        0.1360
     31  H         23.8110  -23.4810  -18.9610 H       1  UNL1        0.1360
@<TRIPOS>BOND
     1    31    29    1
     2    29    30    1
     3    29    26    1
     4    27    26    2
     5    26    28    2
     6    26    24    1
     7    24    23    2
     8    24    25    1
     9    23    22    1
    10    25    21    1
    11    22    21    2
    12    21    20    1
    13     4     3    1
    14     7     6    1
    15     7     8    2
    16     3    20    1
    17     3     1   am
    18     6     5    2
    19     8     9    1
    20     5     1    1
    21     5    10    1
    22     1     2    2
    23     9    10    2
    24    10    11    1
    25    11    12    1
    26    12    13    2
    27    12    18    1
    28    13    14    1
    29    18    17    2
    30    14    15    2
    31    17    15    1
    32    17    19    1
    33    15    16    1
