@<TRIPOS>MOLECULE
62938_out_ligand_01.pdbqt
 35 37 0 0 0
SMALL
GASTEIGER

@<TRIPOS>ATOM
      1  C         20.2260  -22.8380  -10.1240 C.2     1  UNL1        0.0340
      2  C         19.6030  -21.9030  -10.9610 C.2     1  UNL1        0.0190
      3  C         20.3000  -21.3370  -12.0310 C.2     1  UNL1        0.0260
      4  C         21.6200  -21.7150  -12.2760 C.2     1  UNL1        0.0560
      5 CL         22.4630  -20.9910  -13.5970 Cl      1  UNL1       -0.0820
      6  C         22.2480  -22.6590  -11.4470 C.2     1  UNL1        0.0450
      7  C         21.5490  -23.2250  -10.3780 C.2     1  UNL1        0.0430
      8  C         19.4350  -23.4350   -9.0080 C.2     1  UNL1        0.2560
      9  N         18.1850  -22.8760   -8.8000 N.am    1  UNL1       -0.3230
     10  H         17.8380  -22.2380   -9.5050 H       1  UNL1        0.1690
     11  O         19.9190  -24.3780   -8.3960 O.2     1  UNL1       -0.2670
     12  C         17.2790  -23.1940   -7.7670 C.2     1  UNL1        0.0360
     13  C         17.2230  -22.5130   -6.5470 C.2     1  UNL1        0.0490
     14  C         16.2980  -22.8890   -5.5580 C.2     1  UNL1        0.0720
     15  C         15.4160  -23.9370   -5.8110 C.2     1  UNL1        0.1320
     16  C         15.4520  -24.6120   -7.0280 C.2     1  UNL1        0.0450
     17  F         14.5290  -24.3460   -4.8920 F       1  UNL1       -0.2050
     18  C         16.3790  -24.2420   -8.0030 C.2     1  UNL1        0.0320
     19  C         16.2300  -22.1690   -4.2640 C.2     1  UNL1        0.2520
     20  N         17.4180  -21.8560   -3.6620 N.am    1  UNL1       -0.3660
     21  H         18.3130  -22.2140   -3.9670 H       1  UNL1        0.1590
     22  H         17.3650  -21.4300   -2.7450 H       1  UNL1        0.1590
     23  O         15.1680  -21.8630   -3.7400 O.2     1  UNL1       -0.2680
     24  N         23.5750  -23.1230  -11.7330 N.pl3   1  UNL1       -0.1800
     25  H         23.7450  -24.1120  -11.5240 H       1  UNL1        0.1460
     26  S         24.8530  -22.2220  -11.0620 S.O2    1  UNL1        0.2450
     27  O         25.8270  -23.1860  -10.5980 O.2     1  UNL1       -0.2060
     28  O         24.3130  -21.2010  -10.1920 O.2     1  UNL1       -0.2060
     29  C         25.5420  -21.4370  -12.5010 C.2     1  UNL1        0.0750
     30  C         25.6500  -22.1690  -13.6900 C.2     1  UNL1        0.0280
     31  C         26.1790  -21.5550  -14.8260 C.2     1  UNL1        0.0440
     32  C         26.5970  -20.2280  -14.7580 C.2     1  UNL1        0.1160
     33  F         27.0980  -19.6420  -15.8520 F       1  UNL1       -0.2060
     34  C         26.5030  -19.5020  -13.5730 C.2     1  UNL1        0.0440
     35  C         25.9780  -20.1080  -12.4320 C.2     1  UNL1        0.0280
@<TRIPOS>BOND
     1    33    32    1
     2    31    32    2
     3    31    30    1
     4    32    34    1
     5    30    29    2
     6     5     4    1
     7    34    35    2
     8    29    35    1
     9    29    26    1
    10     4     3    2
    11     4     6    1
    12     3     2    1
    13    24    25    1
    14    24     6    1
    15    24    26    1
    16     6     7    2
    17    26    27    2
    18    26    28    2
    19     2     1    2
    20     7     1    1
    21     1     8    1
    22    10     9    1
    23     8     9   am
    24     8    11    2
    25     9    12    1
    26    18    12    2
    27    18    16    1
    28    12    13    1
    29    16    15    2
    30    13    14    2
    31    15    14    1
    32    15    17    1
    33    14    19    1
    34    19    23    2
    35    19    20   am
    36    21    20    1
    37    20    22    1
