@<TRIPOS>MOLECULE
62930_out_ligand_01.pdbqt
 30 33 0 0 0
SMALL
GASTEIGER

@<TRIPOS>ATOM
      1  N         20.1960  -23.2340   -8.5190 N.am    1  UNL1       -0.3560
      2  C         20.0610  -22.2480   -7.5700 C.2     1  UNL1        0.2310
      3  O         21.0260  -21.7600   -6.9820 O.2     1  UNL1       -0.2720
      4  H         19.3810  -23.5280   -9.0460 H       1  UNL1        0.1620
      5  C         18.6230  -21.7720   -7.3050 C.2     1  UNL1        0.1490
      6  C         17.6510  -22.4620   -8.2360 C.2     1  UNL1       -0.0070
      7  C         17.6840  -22.2200   -9.6200 C.3     1  UNL1        0.0110
      8  C         16.7240  -23.3750   -7.7280 C.2     1  UNL1        0.0830
      9  C         16.8070  -22.8880  -10.4750 C.2     1  UNL1        0.0010
     10  C         15.8930  -23.8050   -9.9590 C.2     1  UNL1        0.0030
     11  C         15.8520  -24.0480   -8.5860 C.2     1  UNL1        0.0380
     12  O         16.6090  -23.6710   -6.3910 O.2     1  UNL1       -0.3100
     13  C         17.2770  -22.8820   -5.4860 C.2     1  UNL1        0.0830
     14  C         16.9510  -23.0740   -4.1420 C.2     1  UNL1        0.0380
     15  C         18.2420  -21.9400   -5.8510 C.2     1  UNL1       -0.0070
     16  C         17.5800  -22.3180   -3.1530 C.2     1  UNL1        0.0030
     17  C         18.5390  -21.3710   -3.5080 C.2     1  UNL1        0.0010
     18  C         18.8710  -21.1810   -4.8500 C.2     1  UNL1        0.0110
     19  C         21.4920  -23.7310   -8.9070 C.3     1  UNL1        0.1610
     20  C         21.9580  -23.0690  -10.1760 C.2     1  UNL1       -0.0400
     21  C         23.2980  -23.1650  -10.5740 C.2     1  UNL1        0.0100
     22  C         23.7270  -22.5770  -11.7660 C.2     1  UNL1        0.0170
     23  C         22.8210  -21.8840  -12.5780 C.2     1  UNL1        0.0310
     24  C         21.4740  -21.8120  -12.2030 C.2     1  UNL1        0.0170
     25  C         21.0460  -22.4040  -11.0090 C.2     1  UNL1        0.0100
     26  C         23.3250  -21.2690  -13.8340 C.2     1  UNL1        0.2490
     27  N         22.5360  -20.3250  -14.4340 N.am    1  UNL1       -0.3660
     28  H         22.9680  -19.8220  -15.1980 H       1  UNL1        0.1590
     29  H         21.8000  -19.8520  -13.9290 H       1  UNL1        0.1590
     30  O         24.4190  -21.5570  -14.3010 O.2     1  UNL1       -0.2680
@<TRIPOS>BOND
     1    28    27    1
     2    27    29    1
     3    27    26   am
     4    30    26    2
     5    26    23    1
     6    23    24    2
     7    23    22    1
     8    24    25    1
     9    22    21    2
    10    25    20    2
    11    21    20    1
    12     9    10    2
    13     9     7    1
    14    20    19    1
    15    10    11    1
    16     7     6    1
    17     4     1    1
    18    19     1    1
    19    11     8    2
    20     1     2   am
    21     6     8    1
    22     6     5    2
    23     8    12    1
    24     2     5    1
    25     2     3    2
    26     5    15    1
    27    12    13    1
    28    15    13    2
    29    15    18    1
    30    13    14    1
    31    18    17    2
    32    14    16    2
    33    17    16    1
