@<TRIPOS>MOLECULE
62941_out_ligand_01.pdbqt
 29 32 0 0 0
SMALL
GASTEIGER

@<TRIPOS>ATOM
      1  N         21.6550  -23.6250   -9.4040 N.am    1  UNL1       -0.3530
      2  C         20.8680  -22.8420   -8.5930 C.2     1  UNL1        0.2530
      3  O         21.2630  -22.2360   -7.6060 O.2     1  UNL1       -0.2680
      4  H         21.2520  -24.0370  -10.2340 H       1  UNL1        0.1630
      5  C         19.4530  -22.7590   -9.0070 C.ar    1  UNL1        0.0520
      6  C         19.1360  -22.0900  -10.1770 C.ar    1  UNL1       -0.0170
      7  C         17.8110  -22.0490  -10.5630 C.ar    1  UNL1        0.0420
      8  C         20.0040  -21.3780  -11.1620 C.3     1  UNL1        0.0420
      9  N         16.7980  -22.6090   -9.8870 N.ar    1  UNL1       -0.2520
     10  C         17.6490  -21.3200  -11.8670 C.3     1  UNL1        0.0600
     11  C         17.1030  -23.2350   -8.7350 C.ar    1  UNL1        0.0680
     12  C         16.0660  -23.8070   -8.0090 C.2     1  UNL1        0.0320
     13  C         18.4240  -23.3430   -8.2310 C.ar    1  UNL1        0.0090
     14  C         16.2860  -24.4800   -6.8060 C.2     1  UNL1        0.0020
     15  C         17.5760  -24.5920   -6.3050 C.2     1  UNL1        0.0010
     16  C         18.6380  -24.0300   -7.0100 C.2     1  UNL1        0.0150
     17  C         18.9670  -20.5390  -11.9250 C.3     1  UNL1        0.0110
     18  C         23.0930  -23.6520   -9.2680 C.3     1  UNL1        0.1610
     19  C         23.7370  -22.8780  -10.3920 C.2     1  UNL1       -0.0400
     20  C         23.2250  -22.9470  -11.6940 C.2     1  UNL1        0.0100
     21  C         23.7970  -22.1890  -12.7190 C.2     1  UNL1        0.0170
     22  C         24.8910  -21.3540  -12.4550 C.2     1  UNL1        0.0310
     23  C         25.3940  -21.2660  -11.1520 C.2     1  UNL1        0.0170
     24  C         24.8190  -22.0250  -10.1290 C.2     1  UNL1        0.0100
     25  C         25.4570  -20.5610  -13.5780 C.2     1  UNL1        0.2490
     26  N         24.5800  -20.0580  -14.4990 N.am    1  UNL1       -0.3660
     27  H         23.5910  -19.9800  -14.3130 H       1  UNL1        0.1590
     28  H         24.9740  -19.4150  -15.1760 H       1  UNL1        0.1590
     29  O         26.6560  -20.3330  -13.6640 O.2     1  UNL1       -0.2680
@<TRIPOS>BOND
     1    28    26    1
     2    26    27    1
     3    26    25   am
     4    29    25    2
     5    25    22    1
     6    21    22    2
     7    21    20    1
     8    22    23    1
     9    17    10    1
    10    17     8    1
    11    10     7    1
    12    20    19    2
    13     8     6    1
    14    23    24    2
    15     7     6   ar
    16     7     9   ar
    17    19    24    1
    18    19    18    1
    19     4     1    1
    20     6     5   ar
    21     9    11   ar
    22     1    18    1
    23     1     2   am
    24     5     2    1
    25     5    13   ar
    26    11    13   ar
    27    11    12    1
    28     2     3    2
    29    13    16    1
    30    12    14    2
    31    16    15    2
    32    14    15    1
