@<TRIPOS>MOLECULE
6295_out_ligand_01.pdbqt
 41 44 0 0 0
SMALL
GASTEIGER

@<TRIPOS>ATOM
      1  C         19.9040  -21.6990  -11.7430 C.2     1  UNL1        0.0340
      2  C         18.6570  -21.0710  -11.8810 C.2     1  UNL1        0.0310
      3  C         17.5770  -21.4460  -11.0790 C.2     1  UNL1        0.0270
      4  C         17.7460  -22.4560  -10.1300 C.2     1  UNL1        0.0800
      5  C         18.9770  -23.1020   -9.9940 C.2     1  UNL1        0.0270
      6  C         20.0540  -22.7170  -10.7970 C.2     1  UNL1        0.0310
      7  N         20.9270  -21.2720  -12.6090 N.am    1  UNL1       -0.3260
      8  C         22.2150  -21.7660  -12.7160 C.2     1  UNL1        0.2410
      9  O         22.7200  -22.6220  -11.9930 O.2     1  UNL1       -0.2710
     10  H         20.7150  -20.4430  -13.1700 H       1  UNL1        0.1690
     11  C         23.0080  -21.1610  -13.8670 C.3     1  UNL1        0.2460
     12  N         24.3560  -21.7400  -14.1200 N.pl3   1  UNL1       -0.2540
     13  C         25.3570  -21.4840  -13.1070 C.2     1  UNL1        0.0530
     14  C         25.8940  -22.5570  -12.3740 C.2     1  UNL1       -0.0340
     15  C         26.7750  -22.2850  -11.3140 C.2     1  UNL1        0.0090
     16  C         25.5440  -23.9940  -12.6420 C.3     1  UNL1        0.0500
     17  C         27.1210  -20.9730  -10.9890 C.2     1  UNL1        0.0070
     18  C         26.5860  -19.9030  -11.7080 C.2     1  UNL1       -0.0600
     19  C         26.9130  -18.4910  -11.3260 C.3     1  UNL1        0.0480
     20  C         25.6880  -20.1670  -12.7480 C.2     1  UNL1        0.0370
     21  S         24.8730  -21.7400  -15.7260 S.O2    1  UNL1        0.3050
     22  O         24.1010  -20.7360  -16.4310 O.2     1  UNL1       -0.1880
     23  O         26.3140  -21.7670  -15.8010 O.2     1  UNL1       -0.1880
     24  N         24.3080  -23.2640  -16.2270 N.3     1  UNL1       -0.2010
     25  C         25.2130  -24.3880  -15.8850 C.3     1  UNL1        0.1300
     26  C         23.9240  -23.3010  -17.6560 C.3     1  UNL1        0.1300
     27  S         16.3710  -22.9400   -9.1190 S.O2    1  UNL1        0.2630
     28  O         15.4920  -23.7840   -9.8970 O.2     1  UNL1       -0.2000
     29  O         15.8740  -21.7440   -8.4730 O.2     1  UNL1       -0.2000
     30  N         17.1160  -23.8460   -7.9020 N.pl3   1  UNL1       -0.2800
     31  H         18.1010  -23.9980   -8.1100 H       1  UNL1        0.1790
     32  C         16.7740  -23.5410   -6.5480 C.2     1  UNL1        0.0530
     33  C         15.6330  -24.1480   -6.0170 C.2     1  UNL1        0.0310
     34  C         15.2250  -23.8550   -4.7210 C.2     1  UNL1        0.0030
     35  C         15.9600  -22.9560   -3.9480 C.2     1  UNL1        0.0120
     36  C         17.1110  -22.3360   -4.4610 C.2     1  UNL1       -0.0240
     37  C         17.8440  -21.4350   -3.6690 C.2     1  UNL1        0.0120
     38  C         17.5320  -22.6170   -5.7840 C.2     1  UNL1        0.0010
     39  C         18.9830  -20.8030   -4.1670 C.2     1  UNL1        0.0010
     40  C         19.4040  -21.0610   -5.4650 C.2     1  UNL1        0.0010
     41  C         18.6870  -21.9530   -6.2650 C.2     1  UNL1        0.0140
@<TRIPOS>BOND
     1    26    24    1
     2    22    21    2
     3    24    25    1
     4    24    21    1
     5    23    21    2
     6    21    12    1
     7    12    11    1
     8    12    13    1
     9    11     8    1
    10    10     7    1
    11    13    20    2
    12    13    14    1
    13    20    18    1
    14     8     7   am
    15     8     9    2
    16    16    14    1
    17     7     1    1
    18    14    15    2
    19     2     1    2
    20     2     3    1
    21     1     6    1
    22    18    19    1
    23    18    17    2
    24    15    17    1
    25     3     4    2
    26     6     5    2
    27     4     5    1
    28     4    27    1
    29    28    27    2
    30    27    29    2
    31    27    30    1
    32    31    30    1
    33    30    32    1
    34    32    33    2
    35    32    38    1
    36    41    38    1
    37    41    40    2
    38    33    34    1
    39    38    36    2
    40    40    39    1
    41    34    35    2
    42    36    35    1
    43    36    37    1
    44    39    37    2
