@<TRIPOS>MOLECULE
62956_out_ligand_01.pdbqt
 27 30 0 0 0
SMALL
GASTEIGER

@<TRIPOS>ATOM
      1  C         20.3650  -21.7670  -11.4540 C.2     1  UNL1        0.0330
      2  C         19.3390  -21.0580  -12.0860 C.2     1  UNL1        0.0190
      3  C         18.0330  -21.0790  -11.5860 C.2     1  UNL1        0.0310
      4  C         17.7910  -21.8420  -10.4390 C.ar    1  UNL1        0.0430
      5  N         16.6170  -22.0450   -9.7430 N.ar    1  UNL1       -0.3580
      6  C         16.8440  -22.8840   -8.6900 C.ar    1  UNL1        0.0170
      7  C         18.1790  -23.2320   -8.6880 C.ar    1  UNL1       -0.0230
      8  C         18.7910  -22.5760   -9.7930 C.ar    1  UNL1       -0.0000
      9  C         20.1000  -22.5450  -10.3140 C.2     1  UNL1        0.0310
     10  C         18.7600  -24.1610   -7.6770 C.3     1  UNL1        0.0410
     11  C         17.8170  -24.3280   -6.4690 C.3     1  UNL1        0.0050
     12  C         16.3500  -24.5190   -6.8990 C.3     1  UNL1        0.0060
     13  C         15.8180  -23.3190   -7.7040 C.3     1  UNL1        0.0570
     14  H         15.7260  -21.6340   -9.9890 H       1  UNL1        0.1660
     15  C         21.7360  -21.6970  -12.0340 C.2     1  UNL1        0.2560
     16  O         21.8800  -21.1510  -13.1220 O.2     1  UNL1       -0.2670
     17  N         22.7290  -22.2350  -11.2340 N.am    1  UNL1       -0.3230
     18  H         22.4600  -22.5200  -10.3030 H       1  UNL1        0.1690
     19  C         24.1030  -22.3510  -11.5340 C.2     1  UNL1        0.0350
     20  C         24.9780  -21.4900  -10.8610 C.2     1  UNL1        0.0290
     21  C         26.3510  -21.5430  -11.1020 C.2     1  UNL1        0.0030
     22  C         26.8650  -22.4610  -12.0160 C.2     1  UNL1        0.0090
     23  C         26.0120  -23.3460  -12.6880 C.2     1  UNL1       -0.0330
     24  C         24.6280  -23.2730  -12.4430 C.2     1  UNL1        0.0380
     25  C         26.5240  -24.3310  -13.7060 C.3     1  UNL1        0.2030
     26  O         25.4800  -25.1540  -14.2120 O.3     1  UNL1       -0.3960
     27  H         25.4390  -24.9880  -15.1670 H       1  UNL1        0.2090
@<TRIPOS>BOND
     1    27    26    1
     2    26    25    1
     3    25    23    1
     4    16    15    2
     5    23    24    1
     6    23    22    2
     7    24    19    2
     8     2     3    1
     9     2     1    2
    10    15     1    1
    11    15    17   am
    12    22    21    1
    13     3     4    2
    14    19    17    1
    15    19    20    1
    16     1     9    1
    17    17    18    1
    18    21    20    2
    19     4     8   ar
    20     4     5   ar
    21     9     8    2
    22    14     5    1
    23     8     7   ar
    24     5     6   ar
    25     6     7   ar
    26     6    13    1
    27     7    10    1
    28    13    12    1
    29    10    11    1
    30    12    11    1
