@<TRIPOS>MOLECULE
62955_out_ligand_01.pdbqt
 32 36 0 0 0
SMALL
GASTEIGER

@<TRIPOS>ATOM
      1  C         17.5830  -23.1260   -9.3030 C.2     1  UNL1        0.1850
      2  N         16.2740  -23.1620   -9.6480 N.2     1  UNL1       -0.2170
      3  C         15.3640  -22.8780   -8.7070 C.2     1  UNL1        0.2370
      4  N         15.5920  -22.5780   -7.4270 N.2     1  UNL1       -0.2340
      5  C         16.9000  -22.5670   -7.1210 C.2     1  UNL1        0.1140
      6  S         17.4090  -22.2260   -5.5330 S.3     1  UNL1       -0.0800
      7  C         19.0540  -22.3980   -5.9610 C.2     1  UNL1        0.0650
      8  C         19.2190  -22.7030   -7.2990 C.2     1  UNL1       -0.0020
      9  C         17.9550  -22.8170   -7.9850 C.2     1  UNL1        0.0650
     10  O         18.5600  -23.4460  -10.2380 O.2     1  UNL1       -0.2910
     11  C         19.2110  -22.4120  -10.8660 C.2     1  UNL1        0.0790
     12  C         18.5280  -21.2020  -10.9860 C.2     1  UNL1        0.0370
     13  C         19.1220  -20.1290  -11.6500 C.2     1  UNL1        0.0040
     14  C         20.3850  -20.2780  -12.2260 C.2     1  UNL1        0.0170
     15  C         21.0510  -21.5100  -12.1470 C.2     1  UNL1        0.0350
     16  C         20.4620  -22.5790  -11.4630 C.2     1  UNL1        0.0540
     17  C         22.3950  -21.7130  -12.7580 C.2     1  UNL1        0.2570
     18  O         23.1590  -22.5140  -12.2340 O.2     1  UNL1       -0.2670
     19  N         22.6220  -20.9710  -13.8920 N.am    1  UNL1       -0.3000
     20  H         21.9010  -20.3700  -14.2630 H       1  UNL1        0.1710
     21  C         23.7520  -20.9790  -14.6730 C.2     1  UNL1        0.1960
     22  N         23.8480  -21.7320  -15.7500 N.2     1  UNL1       -0.1240
     23  N         25.0600  -21.5700  -16.3910 N.2     1  UNL1       -0.1530
     24  C         25.8210  -20.6890  -15.7790 C.2     1  UNL1        0.1940
     25  S         25.1300  -20.0240  -14.3580 S.3     1  UNL1       -0.0410
     26  C         20.5520  -22.8450   -7.8650 C.2     1  UNL1       -0.0240
     27  C         21.4400  -21.7620   -7.8750 C.2     1  UNL1        0.0140
     28  C         22.7240  -21.9110   -8.4060 C.2     1  UNL1        0.0240
     29  C         23.1200  -23.1440   -8.9270 C.2     1  UNL1        0.0340
     30 CL         24.7040  -23.3400   -9.5670 Cl      1  UNL1       -0.0840
     31  C         22.2420  -24.2250   -8.9250 C.2     1  UNL1        0.0240
     32  C         20.9580  -24.0760   -8.3970 C.2     1  UNL1        0.0140
@<TRIPOS>BOND
     1    23    24    2
     2    23    22    1
     3    24    25    1
     4    22    21    2
     5    21    25    1
     6    21    19    1
     7    20    19    1
     8    19    17   am
     9    17    18    2
    10    17    15    1
    11    14    15    2
    12    14    13    1
    13    15    16    1
    14    13    12    2
    15    16    11    2
    16    12    11    1
    17    11    10    1
    18    10     1    1
    19     2     1    2
    20     2     3    1
    21    30    29    1
    22     1     9    1
    23    29    31    2
    24    29    28    1
    25    31    32    1
    26     3     4    2
    27    28    27    2
    28    32    26    2
    29     9     8    1
    30     9     5    2
    31    27    26    1
    32    26     8    1
    33     4     5    1
    34     8     7    2
    35     5     6    1
    36     7     6    1
