@<TRIPOS>MOLECULE
62952_out_ligand_01.pdbqt
 35 38 0 0 0
SMALL
GASTEIGER

@<TRIPOS>ATOM
      1  C         22.8990  -22.5080  -10.7690 C.2     1  UNL1        0.0360
      2  C         23.7190  -21.7080   -9.9600 C.2     1  UNL1        0.0290
      3  C         25.0640  -21.4980  -10.2820 C.2     1  UNL1        0.0040
      4  C         25.6040  -22.0810  -11.4250 C.2     1  UNL1        0.0250
      5  C         24.7850  -22.8630  -12.2390 C.2     1  UNL1        0.0820
      6  C         23.4380  -23.0750  -11.9220 C.2     1  UNL1        0.0540
      7  N         21.5600  -22.6720  -10.3620 N.am    1  UNL1       -0.3260
      8  C         21.0580  -23.5810   -9.4350 C.2     1  UNL1        0.2350
      9  O         21.7610  -24.3150   -8.7430 O.2     1  UNL1       -0.2720
     10  H         20.8900  -22.0460  -10.7960 H       1  UNL1        0.1690
     11  C         19.5150  -23.5070   -9.2640 C.3     1  UNL1        0.1440
     12  C         19.0640  -23.3230   -7.8130 C.2     1  UNL1       -0.0410
     13  C         18.2990  -24.3010   -7.1540 C.2     1  UNL1        0.0080
     14  C         17.8790  -24.1070   -5.8380 C.2     1  UNL1        0.0010
     15  C         18.2220  -22.9390   -5.1600 C.2     1  UNL1        0.0000
     16  C         18.9900  -21.9650   -5.7960 C.2     1  UNL1        0.0010
     17  C         19.4120  -22.1560   -7.1120 C.2     1  UNL1        0.0080
     18  C         18.8100  -22.5170  -10.1920 C.2     1  UNL1       -0.0410
     19  C         19.5080  -21.7600  -11.1470 C.2     1  UNL1        0.0080
     20  C         18.8390  -20.8360  -11.9560 C.2     1  UNL1        0.0010
     21  C         17.4680  -20.6480  -11.8140 C.2     1  UNL1        0.0000
     22  C         16.7620  -21.3810  -10.8630 C.2     1  UNL1        0.0010
     23  C         17.4270  -22.3050  -10.0560 C.2     1  UNL1        0.0080
     24  S         25.4370  -23.5890  -13.7190 S.O2    1  UNL1        0.2640
     25  O         26.8030  -23.1210  -13.8500 O.2     1  UNL1       -0.2000
     26  O         25.1410  -25.0050  -13.7360 O.2     1  UNL1       -0.2000
     27  N         24.5850  -22.8340  -14.9360 N.pl3   1  UNL1       -0.2680
     28  H         23.8580  -23.4350  -15.3140 H       1  UNL1        0.1800
     29  C         24.8410  -21.5710  -15.4840 C.2     1  UNL1        0.1080
     30  N         25.3970  -21.4740  -16.6320 N.2     1  UNL1       -0.2760
     31  C         25.6710  -20.1540  -17.1860 C.3     1  UNL1        0.1510
     32  C         26.7730  -19.4400  -16.4080 C.3     1  UNL1        0.0220
     33  C         26.2700  -18.7330  -15.1500 C.3     1  UNL1        0.0020
     34  C         25.6480  -19.6570  -14.1040 C.3     1  UNL1        0.0080
     35  C         24.4230  -20.4040  -14.6180 C.3     1  UNL1        0.0790
@<TRIPOS>BOND
     1    31    30    1
     2    31    32    1
     3    30    29    2
     4    32    33    1
     5    29    27    1
     6    29    35    1
     7    28    27    1
     8    33    34    1
     9    27    24    1
    10    35    34    1
    11    25    24    2
    12    26    24    2
    13    24     5    1
    14     5     6    1
    15     5     4    2
    16    20    21    2
    17    20    19    1
    18     6     1    2
    19    21    22    1
    20     4     3    1
    21    19    18    2
    22    22    23    2
    23    10     7    1
    24     1     7    1
    25     1     2    1
    26     7     8   am
    27     3     2    2
    28    18    23    1
    29    18    11    1
    30     8    11    1
    31     8     9    2
    32    11    12    1
    33    12    13    2
    34    12    17    1
    35    13    14    1
    36    17    16    2
    37    14    15    2
    38    16    15    1
