@<TRIPOS>MOLECULE
62978_out_ligand_01.pdbqt
 35 38 0 0 0
SMALL
GASTEIGER

@<TRIPOS>ATOM
      1  N         24.3890  -21.2750  -13.4320 N.am    1  UNL1       -0.2430
      2  C         25.0100  -21.9550  -12.4040 C.2     1  UNL1        0.2660
      3  O         26.1820  -22.2150  -12.1930 O.2     1  UNL1       -0.2670
      4  C         23.9680  -22.3480  -11.4620 C.2     1  UNL1        0.0480
      5  C         24.0620  -23.0240  -10.2580 C.2     1  UNL1        0.0190
      6  C         22.8710  -23.2730   -9.5650 C.2     1  UNL1        0.0180
      7  C         21.6270  -22.8390  -10.0850 C.2     1  UNL1        0.0330
      8  C         21.5660  -22.1710  -11.3190 C.2     1  UNL1        0.0350
      9  C         22.7590  -21.9340  -11.9760 C.2     1  UNL1        0.0490
     10  C         23.0210  -21.2860  -13.2580 C.2     1  UNL1        0.2660
     11  O         22.1050  -20.9350  -13.9790 O.2     1  UNL1       -0.2670
     12  C         20.3500  -23.1100   -9.3690 C.2     1  UNL1        0.2560
     13  O         19.4140  -23.5530  -10.0220 O.2     1  UNL1       -0.2670
     14  N         20.3560  -22.8000   -8.0220 N.am    1  UNL1       -0.3230
     15  H         21.1820  -22.3440   -7.6550 H       1  UNL1        0.1690
     16  C         19.2980  -22.9680   -7.1020 C.2     1  UNL1        0.0350
     17  C         18.4820  -24.1010   -7.0490 C.2     1  UNL1        0.0310
     18  C         17.4520  -24.1930   -6.1070 C.2     1  UNL1        0.0270
     19  C         17.2490  -23.1550   -5.1970 C.2     1  UNL1        0.0790
     20  C         18.0440  -22.0070   -5.2500 C.2     1  UNL1        0.0270
     21  C         19.0670  -21.9210   -6.1980 C.2     1  UNL1        0.0310
     22  S         15.9180  -23.2570   -4.0170 S.O2    1  UNL1        0.2600
     23  O         15.9300  -24.5980   -3.4720 O.2     1  UNL1       -0.2000
     24  O         16.0150  -22.0990   -3.1550 O.2     1  UNL1       -0.2000
     25  N         14.5290  -23.0910   -4.9870 N.3     1  UNL1       -0.3150
     26  C         14.5790  -22.0820   -6.0590 C.3     1  UNL1        0.1620
     27  C         13.8400  -24.3290   -5.3840 C.3     1  UNL1        0.1620
     28  C         25.0640  -20.7710  -14.5820 C.2     1  UNL1        0.0520
     29  C         25.2590  -21.5210  -15.7620 C.2     1  UNL1       -0.0350
     30  C         26.0060  -20.9610  -16.8190 C.2     1  UNL1        0.0090
     31  C         24.6710  -22.8840  -16.0160 C.3     1  UNL1        0.0500
     32  C         26.5140  -19.6670  -16.7450 C.2     1  UNL1        0.0070
     33  C         26.2950  -18.8990  -15.6060 C.2     1  UNL1       -0.0600
     34  C         26.7920  -17.4850  -15.5280 C.3     1  UNL1        0.0480
     35  C         25.5610  -19.4510  -14.5450 C.2     1  UNL1        0.0370
@<TRIPOS>BOND
     1    30    32    2
     2    30    29    1
     3    32    33    1
     4    31    29    1
     5    29    28    2
     6    33    34    1
     7    33    35    2
     8    28    35    1
     9    28     1    1
    10    11    10    2
    11     1    10   am
    12     1     2   am
    13    10     9    1
    14     2     3    2
    15     2     4    1
    16     9     4    2
    17     9     8    1
    18     4     5    1
    19     8     7    2
    20     5     6    2
    21     7     6    1
    22     7    12    1
    23    13    12    2
    24    12    14   am
    25    14    15    1
    26    14    16    1
    27    16    17    2
    28    16    21    1
    29    17    18    1
    30    21    20    2
    31    18    19    2
    32    26    25    1
    33    27    25    1
    34    20    19    1
    35    19    22    1
    36    25    22    1
    37    22    23    2
    38    22    24    2
