@<TRIPOS>MOLECULE
62975_out_ligand_01.pdbqt
 28 31 0 0 0
SMALL
GASTEIGER

@<TRIPOS>ATOM
      1  N         22.3070  -22.2960   -9.6420 N.am    1  UNL1       -0.3220
      2  C         21.5930  -23.3390   -9.0650 C.2     1  UNL1        0.2630
      3  O         21.7590  -24.5200   -9.3540 O.2     1  UNL1       -0.2670
      4  H         22.1500  -21.3750   -9.2570 H       1  UNL1        0.1690
      5  C         20.6220  -22.9020   -8.0590 C.2     1  UNL1        0.0740
      6  C         20.6530  -21.8300   -7.1820 C.2     1  UNL1        0.0330
      7  C         19.4930  -21.7680   -6.3540 C.2     1  UNL1       -0.0380
      8  C         18.6000  -22.7860   -6.6320 C.2     1  UNL1        0.0230
      9  C         19.1710  -20.7440   -5.3070 C.3     1  UNL1        0.0440
     10  S         19.1640  -23.7960   -7.8770 S.3     1  UNL1       -0.0840
     11  C         17.3300  -22.9610   -5.9140 C.2     1  UNL1       -0.0120
     12  C         16.2980  -23.8010   -6.3500 C.2     1  UNL1        0.0130
     13  C         17.1530  -22.2090   -4.7250 C.2     1  UNL1       -0.0460
     14  C         15.1130  -23.9040   -5.6160 C.2     1  UNL1        0.0010
     15  C         14.9500  -23.1750   -4.4390 C.2     1  UNL1        0.0010
     16  C         15.9660  -22.3340   -3.9900 C.2     1  UNL1        0.0080
     17  C         18.2820  -21.3380   -4.1980 C.3     1  UNL1        0.0440
     18  C         23.2870  -22.3670  -10.6540 C.2     1  UNL1        0.0350
     19  C         24.5760  -22.8670  -10.4700 C.2     1  UNL1        0.0290
     20  C         25.4890  -22.8930  -11.5300 C.2     1  UNL1        0.0030
     21  C         25.1200  -22.4280  -12.7920 C.2     1  UNL1        0.0170
     22  C         23.8260  -21.9430  -12.9970 C.2     1  UNL1        0.0340
     23  C         22.9200  -21.9050  -11.9260 C.2     1  UNL1        0.0460
     24  C         23.3640  -21.4360  -14.3170 C.2     1  UNL1        0.2490
     25  N         22.5960  -20.3070  -14.3340 N.am    1  UNL1       -0.3660
     26  H         22.5350  -19.6790  -13.5460 H       1  UNL1        0.1590
     27  H         22.3980  -19.9210  -15.2490 H       1  UNL1        0.1590
     28  O         23.6890  -21.9880  -15.3620 O.2     1  UNL1       -0.2680
@<TRIPOS>BOND
     1    28    24    2
     2    27    25    1
     3    25    24   am
     4    25    26    1
     5    24    22    1
     6    22    21    2
     7    22    23    1
     8    21    20    1
     9    23    18    2
    10    20    19    2
    11    18    19    1
    12    18     1    1
    13     1     4    1
    14     1     2   am
    15     3     2    2
    16     2     5    1
    17     5    10    1
    18     5     6    2
    19    10     8    1
    20     6     7    1
    21     8     7    2
    22     8    11    1
    23     7     9    1
    24    12    11    2
    25    12    14    1
    26    11    13    1
    27    14    15    2
    28     9    17    1
    29    13    17    1
    30    13    16    2
    31    15    16    1
