@<TRIPOS>MOLECULE
62981_out_ligand_01.pdbqt
 32 36 0 0 0
SMALL
GASTEIGER

@<TRIPOS>ATOM
      1  C         22.4510  -23.3690   -8.8700 C.2     1  UNL1       -0.0230
      2  C         21.4180  -24.2570   -9.1570 C.2     1  UNL1        0.0130
      3  C         20.1350  -23.9990   -8.6720 C.2     1  UNL1        0.0450
      4  C         19.8900  -22.8610   -7.9030 C.2     1  UNL1        0.1050
      5  N         20.8840  -21.9850   -7.6420 N.2     1  UNL1       -0.2480
      6  C         22.1240  -22.2480   -8.1190 C.2     1  UNL1        0.1270
      7  C         23.8440  -23.5760   -9.3830 C.3     1  UNL1        0.1630
      8  N         23.9330  -23.2670  -10.7900 N.am    1  UNL1       -0.3510
      9  C         24.1580  -21.9700  -11.2240 C.2     1  UNL1        0.2720
     10  O         24.3950  -21.0580  -10.4360 O.2     1  UNL1       -0.2660
     11  H         23.5400  -23.9320  -11.4390 H       1  UNL1        0.1630
     12  C         24.0730  -21.7780  -12.6880 C.2     1  UNL1        0.1460
     13  C         25.0940  -21.9530  -13.6650 C.2     1  UNL1        0.0730
     14  C         24.5160  -21.6510  -14.8780 C.2     1  UNL1        0.0860
     15  N         23.2270  -21.3180  -14.5870 N.pl3   1  UNL1       -0.2750
     16  N         22.9310  -21.3780  -13.2810 N.2     1  UNL1       -0.1690
     17  H         22.4940  -21.0340  -15.2260 H       1  UNL1        0.1890
     18  C         25.0800  -21.6550  -16.1890 C.2     1  UNL1        0.1030
     19  C         25.6880  -20.6320  -16.8980 C.2     1  UNL1        0.0410
     20  C         26.0770  -21.1630  -18.1530 C.2     1  UNL1        0.0270
     21  C         25.6840  -22.4780  -18.1440 C.2     1  UNL1        0.1420
     22  O         25.0820  -22.7830  -16.9690 O.2     1  UNL1       -0.3200
     23  N         18.5850  -22.6020   -7.4440 N.pl3   1  UNL1       -0.2630
     24  C         17.5390  -23.2020   -8.2850 C.3     1  UNL1        0.1020
     25  C         16.1890  -22.5640   -7.9380 C.3     1  UNL1        0.0540
     26  C         15.9290  -22.5290   -6.4530 C.2     1  UNL1       -0.0500
     27  C         14.6310  -22.3060   -5.9750 C.2     1  UNL1        0.0070
     28  C         16.9970  -22.6500   -5.5450 C.2     1  UNL1       -0.0380
     29  C         14.3860  -22.2310   -4.6040 C.2     1  UNL1        0.0010
     30  C         15.4370  -22.3720   -3.7010 C.2     1  UNL1        0.0010
     31  C         16.7340  -22.5840   -4.1670 C.2     1  UNL1        0.0090
     32  C         18.4170  -22.9170   -6.0160 C.3     1  UNL1        0.1360
@<TRIPOS>BOND
     1    20    21    2
     2    20    19    1
     3    21    22    1
     4    22    18    1
     5    19    18    2
     6    18    14    1
     7    17    15    1
     8    14    15    1
     9    14    13    2
    10    15    16    1
    11    13    12    1
    12    16    12    2
    13    12     9    1
    14    11     8    1
    15     9     8   am
    16     9    10    2
    17     8     7    1
    18     7     1    1
    19     2     1    2
    20     2     3    1
    21     1     6    1
    22     3     4    2
    23    24    25    1
    24    24    23    1
    25     6     5    2
    26    25    26    1
    27     4     5    1
    28     4    23    1
    29    23    32    1
    30    26    27    2
    31    26    28    1
    32    32    28    1
    33    27    29    1
    34    28    31    2
    35    29    30    2
    36    31    30    1
