@<TRIPOS>MOLECULE
62987_out_ligand_01.pdbqt
 29 31 0 0 0
SMALL
GASTEIGER

@<TRIPOS>ATOM
      1  C         22.8100  -22.2420   -9.4990 C.2     1  UNL1        0.2260
      2  O         23.0630  -21.0430   -9.4180 O.2     1  UNL1       -0.2730
      3  N         23.3110  -23.1250  -10.4460 N.am    1  UNL1       -0.3270
      4  H         23.0360  -24.0960  -10.3550 H       1  UNL1        0.1690
      5  C         21.8800  -22.9150   -8.4990 C.3     1  UNL1        0.1440
      6  C         20.4510  -22.9070   -8.9290 C.2     1  UNL1       -0.0140
      7  C         19.9380  -23.0520  -10.2050 C.2     1  UNL1        0.1510
      8  O         18.5850  -22.9650  -10.2030 O.2     1  UNL1       -0.3210
      9  C         18.2020  -22.7660   -8.9140 C.2     1  UNL1        0.0860
     10  C         16.8890  -22.6250   -8.4740 C.2     1  UNL1        0.0450
     11  C         19.3110  -22.7220   -8.0850 C.2     1  UNL1        0.0070
     12  C         16.6820  -22.4240   -7.0930 C.2     1  UNL1       -0.0530
     13  C         15.2600  -22.2740   -6.6190 C.3     1  UNL1        0.0490
     14  C         17.7810  -22.3800   -6.2000 C.2     1  UNL1       -0.0480
     15  C         19.0970  -22.5200   -6.7080 C.2     1  UNL1        0.0230
     16  C         17.5890  -22.1760   -4.6980 C.3     1  UNL1        0.0110
     17  C         18.6070  -21.1760   -4.1400 C.3     1  UNL1        0.0150
     18  C         17.6490  -23.5010   -3.9280 C.3     1  UNL1        0.0150
     19  C         24.1880  -22.8340  -11.5110 C.2     1  UNL1        0.0350
     20  C         25.5350  -23.2020  -11.5400 C.2     1  UNL1        0.0290
     21  C         26.3410  -22.8640  -12.6330 C.2     1  UNL1        0.0030
     22  C         25.8080  -22.1590  -13.7130 C.2     1  UNL1        0.0170
     23  C         24.4580  -21.7970  -13.7020 C.2     1  UNL1        0.0340
     24  C         23.6580  -22.1270  -12.5970 C.2     1  UNL1        0.0460
     25  C         23.8280  -21.0440  -14.8190 C.2     1  UNL1        0.2490
     26  N         22.7290  -20.2840  -14.5340 N.am    1  UNL1       -0.3660
     27  H         22.4030  -19.6830  -15.2810 H       1  UNL1        0.1590
     28  H         22.4850  -20.0200  -13.5900 H       1  UNL1        0.1590
     29  O         24.2980  -21.0710  -15.9500 O.2     1  UNL1       -0.2680
@<TRIPOS>BOND
     1    29    25    2
     2    27    26    1
     3    25    26   am
     4    25    23    1
     5    26    28    1
     6    22    23    2
     7    22    21    1
     8    23    24    1
     9    21    20    2
    10    24    19    2
    11    20    19    1
    12    19     3    1
    13     3     4    1
    14     3     1   am
    15     7     8    1
    16     7     6    2
    17     8     9    1
    18     1     2    2
    19     1     5    1
    20     6     5    1
    21     6    11    1
    22     9    10    2
    23     9    11    1
    24    10    12    1
    25    11    15    2
    26    12    13    1
    27    12    14    2
    28    15    14    1
    29    14    16    1
    30    16    17    1
    31    16    18    1
