@<TRIPOS>MOLECULE
62999_out_ligand_01.pdbqt
 32 35 0 0 0
SMALL
GASTEIGER

@<TRIPOS>ATOM
      1  C         19.9770  -21.8240  -11.3380 C.2     1  UNL1        0.0330
      2  C         20.6910  -22.7050  -10.4860 C.2     1  UNL1        0.0180
      3  C         22.0450  -22.9860  -10.7000 C.2     1  UNL1        0.0190
      4  C         22.6490  -22.3730  -11.7780 C.2     1  UNL1        0.0480
      5  C         21.9540  -21.5230  -12.6190 C.2     1  UNL1        0.0490
      6  C         20.6160  -21.2270  -12.4350 C.2     1  UNL1        0.0350
      7  C         22.8840  -21.0600  -13.6480 C.2     1  UNL1        0.2620
      8  O         22.5820  -20.2730  -14.5230 O.2     1  UNL1       -0.2670
      9  N         24.0820  -21.6620  -13.3830 N.am    1  UNL1       -0.2740
     10  C         24.0230  -22.4560  -12.2720 C.2     1  UNL1        0.2620
     11  O         24.9000  -23.1170  -11.7500 O.2     1  UNL1       -0.2670
     12  C         18.5390  -21.5780  -11.0400 C.2     1  UNL1        0.2510
     13  O         17.9590  -20.6340  -11.5650 O.2     1  UNL1       -0.2680
     14  N         17.9230  -22.4780  -10.1920 N.am    1  UNL1       -0.3570
     15  H         18.4010  -23.3460   -9.9860 H       1  UNL1        0.1620
     16  C         16.4840  -22.4500  -10.0020 C.3     1  UNL1        0.1240
     17  C         16.0930  -22.7890   -8.5640 C.3     1  UNL1        0.0390
     18  C         17.1450  -22.3140   -7.5610 C.3     1  UNL1        0.1270
     19  N         16.9360  -22.9010   -6.2420 N.am    1  UNL1       -0.3520
     20  C         15.8670  -23.8760   -6.0750 C.3     1  UNL1        0.1250
     21  C         14.6870  -23.3140   -5.2880 C.3     1  UNL1        0.0200
     22  C         15.0580  -22.3600   -4.1520 C.3     1  UNL1        0.0020
     23  C         16.1670  -22.8440   -3.2190 C.3     1  UNL1        0.0090
     24  C         17.5130  -23.1970   -3.8560 C.3     1  UNL1        0.1030
     25  C         17.7880  -22.5470   -5.2010 C.2     1  UNL1        0.2190
     26  O         18.7240  -21.7590   -5.3420 O.2     1  UNL1       -0.2730
     27  C         25.2680  -21.4960  -14.1920 C.3     1  UNL1        0.2000
     28  C         25.0520  -22.1320  -15.5170 C.2     1  UNL1        0.0700
     29  C         24.7960  -23.4300  -15.9140 C.2     1  UNL1        0.0360
     30  C         24.6810  -23.4010  -17.3250 C.2     1  UNL1        0.0270
     31  C         24.8750  -22.0930  -17.6980 C.2     1  UNL1        0.1420
     32  O         25.1020  -21.3150  -16.6080 O.2     1  UNL1       -0.3250
@<TRIPOS>BOND
     1    31    30    2
     2    31    32    1
     3    30    29    1
     4    32    28    1
     5    29    28    2
     6    28    27    1
     7     8     7    2
     8    27     9    1
     9     7     9   am
    10     7     5    1
    11     9    10   am
    12     5     6    1
    13     5     4    2
    14     6     1    2
    15    10     4    1
    16    10    11    2
    17     4     3    1
    18    13    12    2
    19     1    12    1
    20     1     2    1
    21    12    14   am
    22     3     2    2
    23    14    16    1
    24    14    15    1
    25    16    17    1
    26    17    18    1
    27    18    19    1
    28    19    20    1
    29    19    25   am
    30    20    21    1
    31    26    25    2
    32    21    22    1
    33    25    24    1
    34    22    23    1
    35    24    23    1
