@<TRIPOS>MOLECULE
62998_out_ligand_01.pdbqt
 27 29 0 0 0
SMALL
GASTEIGER

@<TRIPOS>ATOM
      1  N         19.5590  -22.5020   -9.2610 N.am    1  UNL1       -0.3260
      2  C         19.2590  -23.5080   -8.3510 C.2     1  UNL1        0.2350
      3  O         19.9530  -24.4930   -8.1210 O.2     1  UNL1       -0.2720
      4  H         18.9180  -21.7180   -9.2870 H       1  UNL1        0.1690
      5  C         17.9150  -23.2690   -7.6110 C.3     1  UNL1        0.0680
      6  C         17.1800  -24.6020   -7.3330 C.3     1  UNL1        0.0240
      7  C         15.7110  -24.2160   -7.2130 C.3     1  UNL1        0.0020
      8  C         15.5210  -23.0480   -8.1740 C.3     1  UNL1        0.0020
      9  C         16.9240  -22.6120   -8.6040 C.3     1  UNL1        0.0240
     10  C         18.1600  -22.5160   -6.2910 C.2     1  UNL1       -0.0370
     11  C         17.7630  -23.1170   -5.0770 C.2     1  UNL1        0.0090
     12  C         17.9710  -22.4850   -3.8470 C.2     1  UNL1        0.0040
     13  C         18.5810  -21.2360   -3.8050 C.2     1  UNL1        0.0420
     14  C         18.9710  -20.6320   -4.9910 C.2     1  UNL1        0.1170
     15  F         19.5590  -19.4280   -4.9550 F       1  UNL1       -0.2060
     16  C         18.7700  -21.2540   -6.2230 C.2     1  UNL1        0.0500
     17  C         20.6870  -22.4020  -10.1010 C.2     1  UNL1        0.0350
     18  C         20.4700  -21.8900  -11.3880 C.2     1  UNL1        0.0290
     19  C         21.5250  -21.7520  -12.2930 C.2     1  UNL1        0.0030
     20  C         22.8130  -22.1330  -11.9220 C.2     1  UNL1        0.0170
     21  C         23.0400  -22.6550  -10.6440 C.2     1  UNL1        0.0340
     22  C         21.9800  -22.7790   -9.7330 C.2     1  UNL1        0.0460
     23  C         24.4030  -23.0640  -10.2100 C.2     1  UNL1        0.2490
     24  N         24.4880  -23.8920   -9.1240 N.am    1  UNL1       -0.3660
     25  H         23.7230  -23.9860   -8.4710 H       1  UNL1        0.1590
     26  H         25.4230  -24.0370   -8.7640 H       1  UNL1        0.1590
     27  O         25.4120  -22.6620  -10.7710 O.2     1  UNL1       -0.2680
@<TRIPOS>BOND
     1    19    20    2
     2    19    18    1
     3    20    21    1
     4    18    17    2
     5    27    23    2
     6    21    23    1
     7    21    22    2
     8    23    24   am
     9    17    22    1
    10    17     1    1
    11     4     1    1
    12     1     2   am
    13    24    26    1
    14    24    25    1
    15     9     8    1
    16     9     5    1
    17     2     3    2
    18     2     5    1
    19     8     7    1
    20     5     6    1
    21     5    10    1
    22     6     7    1
    23    10    16    2
    24    10    11    1
    25    16    14    1
    26    11    12    2
    27    14    15    1
    28    14    13    2
    29    12    13    1
