@<TRIPOS>MOLECULE
62994_out_ligand_01.pdbqt
 34 36 0 0 0
SMALL
GASTEIGER

@<TRIPOS>ATOM
      1  C         20.7650  -22.8360   -9.6220 C.2     1  UNL1        0.0320
      2  C         21.0120  -22.4240  -10.9390 C.2     1  UNL1        0.0190
      3  C         22.2900  -22.5670  -11.4850 C.2     1  UNL1        0.0310
      4  C         23.3200  -23.1170  -10.7200 C.2     1  UNL1        0.0420
      5  C         23.0870  -23.5020   -9.4010 C.2     1  UNL1        0.0310
      6  C         21.8110  -23.3590   -8.8510 C.2     1  UNL1        0.0190
      7  C         19.4190  -22.6970   -8.9940 C.2     1  UNL1        0.2560
      8  N         19.2460  -23.4130   -7.8210 N.am    1  UNL1       -0.3230
      9  H         20.0680  -23.8530   -7.4320 H       1  UNL1        0.1690
     10  O         18.6080  -21.9520   -9.5240 O.2     1  UNL1       -0.2670
     11  C         18.0720  -23.5070   -7.0450 C.2     1  UNL1        0.0360
     12  C         17.8900  -22.8710   -5.8120 C.2     1  UNL1        0.0490
     13  C         16.6840  -23.0090   -5.1000 C.2     1  UNL1        0.0720
     14  C         15.6650  -23.7930   -5.6420 C.2     1  UNL1        0.1320
     15  C         15.8300  -24.4270   -6.8700 C.2     1  UNL1        0.0450
     16  F         14.4940  -23.9590   -5.0060 F       1  UNL1       -0.2050
     17  C         17.0290  -24.2830   -7.5700 C.2     1  UNL1        0.0320
     18  C         16.5440  -22.3040   -3.7980 C.2     1  UNL1        0.2520
     19  N         17.6160  -21.6050   -3.3200 N.am    1  UNL1       -0.3660
     20  H         18.5040  -21.5500   -3.8010 H       1  UNL1        0.1590
     21  H         17.5110  -21.1330   -2.4310 H       1  UNL1        0.1590
     22  O         15.5020  -22.3380   -3.1550 O.2     1  UNL1       -0.2680
     23  N         24.6220  -23.2250  -11.2780 N.pl3   1  UNL1       -0.2810
     24  H         25.1750  -24.0420  -11.0170 H       1  UNL1        0.1790
     25  S         25.5990  -21.8410  -11.2760 S.O2    1  UNL1        0.2630
     26  O         24.9780  -20.8140  -10.4690 O.2     1  UNL1       -0.2000
     27  O         26.9420  -22.3040  -10.9910 O.2     1  UNL1       -0.2000
     28  C         25.5630  -21.3400  -12.9780 C.2     1  UNL1        0.0800
     29  C         25.8710  -20.0160  -13.3100 C.2     1  UNL1        0.0260
     30  C         25.8360  -19.6180  -14.6480 C.2     1  UNL1        0.0200
     31  C         25.4860  -20.5390  -15.6370 C.2     1  UNL1        0.0110
     32 BR         25.4450  -19.9980  -17.4470 Br      1  UNL1       -0.0510
     33  C         25.1650  -21.8560  -15.3020 C.2     1  UNL1        0.0200
     34  C         25.1970  -22.2600  -13.9660 C.2     1  UNL1        0.0260
@<TRIPOS>BOND
     1    32    31    1
     2    31    33    2
     3    31    30    1
     4    33    34    1
     5    30    29    2
     6    34    28    2
     7    29    28    1
     8    28    25    1
     9     3     2    1
    10     3     4    2
    11    23    25    1
    12    23    24    1
    13    23     4    1
    14    25    27    2
    15    25    26    2
    16     2     1    2
    17     4     5    1
    18     1     7    1
    19     1     6    1
    20    10     7    2
    21     5     6    2
    22     7     8   am
    23     8     9    1
    24     8    11    1
    25    17    11    2
    26    17    15    1
    27    11    12    1
    28    15    14    2
    29    12    13    2
    30    14    13    1
    31    14    16    1
    32    13    18    1
    33    20    19    1
    34    18    19   am
    35    18    22    2
    36    19    21    1
