@<TRIPOS>MOLECULE
63024_out_ligand_01.pdbqt
 28 30 0 0 0
SMALL
GASTEIGER

@<TRIPOS>ATOM
      1  N         20.6650  -22.2180  -11.2270 N.am    1  UNL1       -0.3230
      2  C         19.5170  -21.4510  -11.3020 C.2     1  UNL1        0.2560
      3  O         19.3270  -20.4800  -12.0240 O.2     1  UNL1       -0.2670
      4  H         20.6120  -23.0680  -10.6790 H       1  UNL1        0.1690
      5  C         18.4030  -21.9070  -10.4270 C.2     1  UNL1        0.0350
      6  C         17.0620  -21.6660  -10.7580 C.2     1  UNL1        0.0170
      7  C         16.0430  -22.1040   -9.9090 C.2     1  UNL1        0.0040
      8  C         16.3590  -22.7970   -8.7400 C.2     1  UNL1        0.0370
      9  C         17.6950  -23.0720   -8.4310 C.2     1  UNL1        0.0770
     10  C         18.7170  -22.6190   -9.2640 C.2     1  UNL1        0.0540
     11  O         18.0680  -23.7270   -7.2800 O.2     1  UNL1       -0.3110
     12  C         18.2100  -22.9650   -6.1430 C.2     1  UNL1        0.0760
     13  C         17.6130  -23.4470   -4.9760 C.2     1  UNL1        0.0370
     14  C         17.6950  -22.7060   -3.7980 C.2     1  UNL1        0.0030
     15  C         18.3580  -21.4790   -3.7900 C.2     1  UNL1        0.0000
     16  C         18.9350  -20.9870   -4.9620 C.2     1  UNL1        0.0030
     17  C         18.8550  -21.7250   -6.1420 C.2     1  UNL1        0.0370
     18  C         21.8860  -22.0010  -11.8990 C.2     1  UNL1        0.0350
     19  C         21.9880  -21.4250  -13.1650 C.2     1  UNL1        0.0290
     20  C         23.2400  -21.2260  -13.7580 C.2     1  UNL1        0.0030
     21  C         24.4030  -21.6070  -13.0910 C.2     1  UNL1        0.0170
     22  C         24.3140  -22.1960  -11.8270 C.2     1  UNL1        0.0340
     23  C         23.0580  -22.3790  -11.2320 C.2     1  UNL1        0.0460
     24  C         25.5170  -22.6220  -11.0630 C.2     1  UNL1        0.2490
     25  N         25.3390  -23.5200  -10.0480 N.am    1  UNL1       -0.3660
     26  H         26.1500  -23.6930   -9.4660 H       1  UNL1        0.1590
     27  H         24.4330  -23.7010   -9.6400 H       1  UNL1        0.1590
     28  O         26.6250  -22.1600  -11.3040 O.2     1  UNL1       -0.2680
@<TRIPOS>BOND
     1    20    19    1
     2    20    21    2
     3    19    18    2
     4    21    22    1
     5     3     2    2
     6    18    23    1
     7    18     1    1
     8    22    23    2
     9    22    24    1
    10    28    24    2
    11     2     1   am
    12     2     5    1
    13     1     4    1
    14    24    25   am
    15     6     5    2
    16     6     7    1
    17     5    10    1
    18    25    27    1
    19    25    26    1
    20     7     8    2
    21    10     9    2
    22     8     9    1
    23     9    11    1
    24    11    12    1
    25    12    17    2
    26    12    13    1
    27    17    16    1
    28    13    14    2
    29    16    15    2
    30    14    15    1
