@<TRIPOS>MOLECULE
63021_out_ligand_01.pdbqt
 36 40 0 0 0
SMALL
GASTEIGER

@<TRIPOS>ATOM
      1  C         20.4790  -22.0340  -11.2570 C.2     1  UNL1        0.0840
      2  C         21.2120  -21.6930  -12.4000 C.2     1  UNL1        0.0380
      3  C         22.5910  -21.9190  -12.4660 C.2     1  UNL1        0.0110
      4  C         23.2690  -22.5120  -11.3990 C.2     1  UNL1       -0.0390
      5  C         22.5380  -22.8550  -10.2550 C.2     1  UNL1        0.0280
      6  C         21.1490  -22.6230  -10.1640 C.2     1  UNL1        0.0660
      7  C         20.4950  -23.0040   -8.8580 C.2     1  UNL1        0.2590
      8  O         20.8340  -24.0550   -8.3200 O.2     1  UNL1       -0.2670
      9  N         19.5490  -22.1300   -8.3630 N.am    1  UNL1       -0.3230
     10  H         19.3940  -21.2970   -8.9220 H       1  UNL1        0.1690
     11  C         18.8310  -22.2160   -7.1530 C.2     1  UNL1        0.0370
     12  C         19.2690  -21.4050   -6.0980 C.2     1  UNL1        0.0320
     13  C         18.6290  -21.4430   -4.8560 C.2     1  UNL1        0.0410
     14  C         17.5540  -22.3020   -4.6530 C.2     1  UNL1        0.0960
     15  C         17.1010  -23.1000   -5.7040 C.2     1  UNL1        0.0700
     16  O         16.9670  -22.2690   -3.4200 O.2     1  UNL1       -0.3400
     17  C         17.7310  -23.0550   -6.9490 C.2     1  UNL1        0.0620
     18  N         15.9930  -23.9300   -5.5250 N.am    1  UNL1       -0.3230
     19  C         15.3930  -24.0690   -4.3100 C.2     1  UNL1        0.2460
     20  H         15.5900  -24.4370   -6.3060 H       1  UNL1        0.1690
     21  O         14.3880  -24.7600   -4.1600 O.2     1  UNL1       -0.2710
     22  C         16.1110  -23.3720   -3.1530 C.3     1  UNL1        0.2780
     23  O         19.1240  -21.8340  -11.1480 O.2     1  UNL1       -0.3550
     24  C         18.5890  -20.6370  -11.6990 C.3     1  UNL1        0.2100
     25  C         24.7590  -22.7590  -11.4580 C.3     1  UNL1        0.1740
     26  N         25.3060  -22.5330  -12.7790 N.am    1  UNL1       -0.2760
     27  C         25.7620  -21.3210  -13.2190 C.2     1  UNL1        0.2620
     28  O         25.7950  -20.2530  -12.6380 O.2     1  UNL1       -0.2670
     29  C         26.2240  -21.5250  -14.5900 C.2     1  UNL1        0.0480
     30  C         26.7750  -20.6360  -15.4910 C.2     1  UNL1        0.0180
     31  C         26.0180  -22.8580  -14.9060 C.2     1  UNL1        0.0480
     32  C         27.1200  -21.1340  -16.7510 C.2     1  UNL1        0.0010
     33  C         26.9080  -22.4930  -17.0750 C.2     1  UNL1        0.0010
     34  C         26.3490  -23.3750  -16.1440 C.2     1  UNL1        0.0180
     35  C         25.4320  -23.5060  -13.7330 C.2     1  UNL1        0.2620
     36  O         25.1430  -24.6880  -13.6780 O.2     1  UNL1       -0.2670
@<TRIPOS>BOND
     1    33    32    2
     2    33    34    1
     3    32    30    1
     4    34    31    2
     5    30    29    2
     6    31    29    1
     7    31    35    1
     8    29    27    1
     9    35    36    2
    10    35    26   am
    11    27    26   am
    12    27    28    2
    13    26    25    1
    14     3     2    1
    15     3     4    2
    16     2     1    2
    17    24    23    1
    18    25     4    1
    19     4     5    1
    20     1    23    1
    21     1     6    1
    22     5     6    2
    23     6     7    1
    24    10     9    1
    25     7     9   am
    26     7     8    2
    27     9    11    1
    28    11    17    2
    29    11    12    1
    30    17    15    1
    31    20    18    1
    32    12    13    2
    33    15    18    1
    34    15    14    2
    35    18    19   am
    36    13    14    1
    37    14    16    1
    38    19    21    2
    39    19    22    1
    40    16    22    1
