@<TRIPOS>MOLECULE
63020_out_ligand_01.pdbqt
 33 37 0 0 0
SMALL
GASTEIGER

@<TRIPOS>ATOM
      1  C         19.5980  -21.5450  -10.9670 C.2     1  UNL1        0.0390
      2  C         18.7840  -20.6390  -11.6690 C.2     1  UNL1        0.0170
      3  C         17.3990  -20.6850  -11.5250 C.2     1  UNL1        0.0010
      4  C         16.8230  -21.6310  -10.6830 C.2     1  UNL1        0.0010
      5  C         17.6300  -22.5260   -9.9760 C.2     1  UNL1        0.0090
      6  C         19.0310  -22.4960  -10.0960 C.2     1  UNL1       -0.0330
      7  C         21.0670  -21.4670  -11.1890 C.2     1  UNL1        0.2560
      8  N         21.4430  -21.7480  -12.4900 N.am    1  UNL1       -0.3230
      9  H         20.7030  -22.0170  -13.1270 H       1  UNL1        0.1690
     10  O         21.7960  -21.1910  -10.2480 O.2     1  UNL1       -0.2670
     11  C         22.7500  -21.7480  -13.0210 C.2     1  UNL1        0.0370
     12  C         23.6740  -22.6250  -12.4380 C.2     1  UNL1        0.0320
     13  C         24.9910  -22.6870  -12.9040 C.2     1  UNL1        0.0410
     14  C         25.3930  -21.8790  -13.9640 C.2     1  UNL1        0.0960
     15  O         26.7020  -21.9820  -14.3400 O.2     1  UNL1       -0.3400
     16  C         24.4780  -21.0030  -14.5470 C.2     1  UNL1        0.0700
     17  C         27.0350  -21.3160  -15.5490 C.3     1  UNL1        0.2780
     18  C         26.1320  -20.2230  -16.1190 C.2     1  UNL1        0.2460
     19  O         26.4850  -19.4680  -17.0220 O.2     1  UNL1       -0.2710
     20  N         24.8740  -20.1690  -15.5920 N.am    1  UNL1       -0.3230
     21  H         24.2360  -19.4870  -15.9830 H       1  UNL1        0.1690
     22  C         23.1610  -20.9350  -14.0800 C.2     1  UNL1        0.0620
     23  C         19.8610  -23.4780   -9.2970 C.3     1  UNL1        0.1220
     24  S         20.3560  -22.8370   -7.6740 S.3     1  UNL1       -0.0800
     25  C         18.8710  -22.9250   -6.7790 C.ar    1  UNL1        0.2100
     26  N         18.5570  -22.1270   -5.7740 N.ar    1  UNL1       -0.2160
     27  C         17.3070  -22.5450   -5.3970 C.ar    1  UNL1        0.0940
     28  C         16.4480  -22.0920   -4.3880 C.2     1  UNL1        0.0340
     29  C         16.9020  -23.5950   -6.2000 C.ar    1  UNL1        0.1070
     30  C         15.2090  -22.7330   -4.2400 C.2     1  UNL1        0.0020
     31  C         14.8360  -23.7940   -5.0750 C.2     1  UNL1        0.0030
     32  C         15.6850  -24.2560   -6.0880 C.2     1  UNL1        0.0400
     33  O         17.9000  -23.8430   -7.0940 O.2     1  UNL1       -0.2840
@<TRIPOS>BOND
     1    19    18    2
     2    18    20   am
     3    18    17    1
     4    21    20    1
     5    20    16    1
     6    17    15    1
     7    16    22    1
     8    16    14    2
     9    15    14    1
    10    22    11    2
    11    14    13    1
    12     9     8    1
    13    11     8    1
    14    11    12    1
    15    13    12    2
    16     8     7   am
    17     2     3    1
    18     2     1    2
    19     3     4    2
    20     7     1    1
    21     7    10    2
    22     1     6    1
    23     4     5    1
    24     6     5    2
    25     6    23    1
    26    23    24    1
    27    24    25    1
    28    33    25   ar
    29    33    29   ar
    30    25    26   ar
    31    29    32    1
    32    29    27   ar
    33    32    31    2
    34    26    27   ar
    35    27    28    1
    36    31    30    1
    37    28    30    2
