@<TRIPOS>MOLECULE
63027_out_ligand_01.pdbqt
 35 39 0 0 0
SMALL
GASTEIGER

@<TRIPOS>ATOM
      1  C         21.9690  -22.1040   -8.0410 C.3     1  UNL1        0.2260
      2  C         23.0320  -22.6530   -9.0100 C.2     1  UNL1        0.2400
      3  O         23.3830  -23.8290   -8.9530 O.2     1  UNL1       -0.2710
      4  N         23.4960  -21.7010   -9.8990 N.am    1  UNL1       -0.3260
      5  H         23.0170  -20.8060   -9.8180 H       1  UNL1        0.1690
      6  C         24.4610  -21.8410  -10.9090 C.2     1  UNL1        0.0350
      7  C         25.6350  -21.0880  -10.7740 C.2     1  UNL1        0.0290
      8  C         26.6490  -21.1620  -11.7320 C.2     1  UNL1        0.0030
      9  C         26.4980  -21.9920  -12.8390 C.2     1  UNL1        0.0170
     10  C         25.3270  -22.7470  -12.9840 C.2     1  UNL1        0.0340
     11  C         24.3160  -22.6800  -12.0150 C.2     1  UNL1        0.0460
     12  C         25.1460  -23.6540  -14.1450 C.2     1  UNL1        0.2520
     13  O         25.1260  -24.8690  -13.9800 O.2     1  UNL1       -0.2680
     14  N         24.9820  -23.0290  -15.3680 N.am    1  UNL1       -0.3520
     15  H         24.8380  -22.0280  -15.3850 H       1  UNL1        0.1630
     16  C         24.7560  -23.7630  -16.5730 C.3     1  UNL1        0.0840
     17  C         23.4860  -23.5800  -17.3570 C.3     1  UNL1        0.0270
     18  C         24.7850  -23.0600  -17.9020 C.3     1  UNL1        0.0270
     19  N         20.6750  -22.8390   -8.1300 N.pl3   1  UNL1       -0.3670
     20  C         20.3520  -23.3470   -9.4800 C.3     1  UNL1        0.1690
     21  C         19.6180  -22.4120  -10.4070 C.2     1  UNL1        0.0000
     22  C         20.1070  -21.4030  -11.2150 C.2     1  UNL1        0.0170
     23  C         19.0780  -20.7410  -11.9450 C.2     1  UNL1        0.0080
     24  C         17.8350  -21.2570  -11.6660 C.2     1  UNL1        0.0500
     25  S         17.9110  -22.5440  -10.5450 S.3     1  UNL1       -0.1050
     26  C         19.6930  -22.6620   -7.1530 C.2     1  UNL1        0.0330
     27  C         19.6360  -21.5120   -6.3420 C.2     1  UNL1        0.0320
     28  C         18.6440  -21.3290   -5.3690 C.2     1  UNL1        0.0420
     29  C         17.6670  -22.2950   -5.1850 C.2     1  UNL1        0.1020
     30  C         17.6660  -23.4250   -5.9960 C.2     1  UNL1        0.1040
     31  O         16.7400  -22.0660   -4.2030 O.2     1  UNL1       -0.3460
     32  C         18.6690  -23.6070   -6.9550 C.2     1  UNL1        0.0690
     33  O         16.7120  -24.4090   -5.9090 O.2     1  UNL1       -0.3460
     34  C         15.5750  -23.9730   -5.1550 C.3     1  UNL1        0.2020
     35  C         16.0130  -23.2590   -3.8860 C.3     1  UNL1        0.2020
@<TRIPOS>BOND
     1    18    17    1
     2    18    16    1
     3    17    16    1
     4    16    14    1
     5    15    14    1
     6    14    12   am
     7    12    13    2
     8    12    10    1
     9    10     9    2
    10    10    11    1
    11     9     8    1
    12    11     6    2
    13    23    24    2
    14    23    22    1
    15     8     7    2
    16    24    25    1
    17    22    21    2
    18     6     7    1
    19     6     4    1
    20    25    21    1
    21    21    20    1
    22     4     5    1
    23     4     2   am
    24    20    19    1
    25     2     3    2
    26     2     1    1
    27    19     1    1
    28    19    26    1
    29    26    32    2
    30    26    27    1
    31    32    30    1
    32    27    28    2
    33    30    33    1
    34    30    29    2
    35    33    34    1
    36    28    29    1
    37    29    31    1
    38    34    35    1
    39    31    35    1
