@<TRIPOS>MOLECULE
63031_out_ligand_01.pdbqt
 29 32 0 0 0
SMALL
GASTEIGER

@<TRIPOS>ATOM
      1  N         23.4130  -22.9940  -11.5280 N.am    1  UNL1       -0.3270
      2  C         23.0450  -22.2380  -10.4250 C.2     1  UNL1        0.2260
      3  O         23.6750  -21.3050   -9.9380 O.2     1  UNL1       -0.2730
      4  H         22.7460  -23.6910  -11.8430 H       1  UNL1        0.1690
      5  C         21.7130  -22.6770   -9.8310 C.3     1  UNL1        0.1440
      6  C         20.5310  -22.0120  -10.4620 C.2     1  UNL1       -0.0130
      7  C         20.5580  -21.0990  -11.5010 C.2     1  UNL1        0.1510
      8  O         19.3100  -20.7250  -11.8580 O.2     1  UNL1       -0.3210
      9  C         18.4480  -21.3700  -11.0320 C.2     1  UNL1        0.0860
     10  C         17.0650  -21.2410  -11.0960 C.2     1  UNL1        0.0390
     11  C         19.1370  -22.1670  -10.1200 C.2     1  UNL1        0.0170
     12  C         16.3220  -21.9690  -10.1680 C.2     1  UNL1        0.0150
     13  C         16.9400  -22.7790   -9.2050 C.2     1  UNL1       -0.0250
     14  C         16.1630  -23.4880   -8.2750 C.2     1  UNL1        0.0120
     15  C         18.3590  -22.8890   -9.1550 C.2     1  UNL1       -0.0120
     16  C         16.7610  -24.2870   -7.3010 C.2     1  UNL1        0.0010
     17  C         18.1460  -24.3860   -7.2350 C.2     1  UNL1        0.0010
     18  C         18.9420  -23.6940   -8.1500 C.2     1  UNL1        0.0130
     19  C         24.5850  -22.8720  -12.3040 C.2     1  UNL1        0.0350
     20  C         25.8290  -23.3820  -11.9290 C.2     1  UNL1        0.0290
     21  C         26.9410  -23.2290  -12.7620 C.2     1  UNL1        0.0030
     22  C         26.8240  -22.5570  -13.9780 C.2     1  UNL1        0.0170
     23  C         25.5870  -22.0290  -14.3600 C.2     1  UNL1        0.0340
     24  C         24.4710  -22.1980  -13.5260 C.2     1  UNL1        0.0460
     25  C         25.3950  -21.3060  -15.6450 C.2     1  UNL1        0.2490
     26  N         24.2270  -20.6180  -15.8180 N.am    1  UNL1       -0.3660
     27  H         23.4120  -20.7880  -15.2470 H       1  UNL1        0.1590
     28  H         24.0710  -20.2440  -16.7460 H       1  UNL1        0.1590
     29  O         26.2350  -21.3490  -16.5340 O.2     1  UNL1       -0.2680
@<TRIPOS>BOND
     1    28    26    1
     2    29    25    2
     3    26    25   am
     4    26    27    1
     5    25    23    1
     6    23    22    2
     7    23    24    1
     8    22    21    1
     9    24    19    2
    10    21    20    2
    11    19    20    1
    12    19     1    1
    13     8     7    1
    14     8     9    1
    15     4     1    1
    16     1     2   am
    17     7     6    2
    18    10     9    2
    19    10    12    1
    20     9    11    1
    21     6    11    1
    22     6     5    1
    23     2     3    2
    24     2     5    1
    25    12    13    2
    26    11    15    2
    27    13    15    1
    28    13    14    1
    29    15    18    1
    30    14    16    2
    31    18    17    2
    32    16    17    1
