@<TRIPOS>MOLECULE
63039_out_ligand_01.pdbqt
 34 38 0 0 0
SMALL
GASTEIGER

@<TRIPOS>ATOM
      1  C         19.7530  -21.5830  -11.0490 C.2     1  UNL1        0.0390
      2  C         18.9840  -20.6680  -11.7860 C.2     1  UNL1        0.0170
      3  C         17.5970  -20.6560  -11.6530 C.2     1  UNL1        0.0010
      4  C         16.9780  -21.5520  -10.7870 C.2     1  UNL1        0.0010
      5  C         17.7410  -22.4670  -10.0580 C.2     1  UNL1        0.0090
      6  C         19.1420  -22.5050  -10.1780 C.2     1  UNL1       -0.0330
      7  C         21.2280  -21.5270  -11.2100 C.2     1  UNL1        0.2560
      8  N         21.6460  -21.8050  -12.4990 N.am    1  UNL1       -0.3230
      9  H         20.9160  -21.9650  -13.1830 H       1  UNL1        0.1690
     10  O         21.9190  -21.2410  -10.2440 O.2     1  UNL1       -0.2670
     11  C         22.9710  -21.8380  -12.9790 C.2     1  UNL1        0.0370
     12  C         23.9680  -22.6640  -12.4550 C.2     1  UNL1        0.0320
     13  C         25.2630  -22.6390  -12.9830 C.2     1  UNL1        0.0410
     14  C         25.5730  -21.7940  -14.0450 C.2     1  UNL1        0.0960
     15  O         26.8670  -21.8160  -14.4790 O.2     1  UNL1       -0.3400
     16  C         24.5840  -20.9650  -14.5730 C.2     1  UNL1        0.0700
     17  C         27.1200  -21.0930  -15.6720 C.3     1  UNL1        0.2780
     18  C         26.1200  -20.0630  -16.1960 C.2     1  UNL1        0.2460
     19  O         26.3800  -19.2760  -17.1030 O.2     1  UNL1       -0.2710
     20  N         24.8830  -20.0960  -15.6190 N.am    1  UNL1       -0.3230
     21  H         24.1960  -19.4490  -15.9820 H       1  UNL1        0.1690
     22  C         23.2900  -20.9850  -14.0450 C.2     1  UNL1        0.0620
     23  C         19.9250  -23.5220   -9.3770 C.3     1  UNL1        0.1220
     24  S         20.3300  -22.9460   -7.7030 S.3     1  UNL1       -0.0870
     25  C         18.8220  -23.1140   -6.8910 C.ar    1  UNL1        0.1670
     26  N         17.8560  -23.9620   -7.1410 N.ar    1  UNL1       -0.2230
     27  C         16.8850  -23.6670   -6.2140 C.ar    1  UNL1        0.0860
     28  C         15.6300  -24.2590   -6.0110 C.2     1  UNL1        0.0340
     29  C         17.2800  -22.6140   -5.3920 C.ar    1  UNL1        0.0630
     30  C         14.8140  -23.7680   -4.9830 C.2     1  UNL1        0.0020
     31  C         15.2380  -22.7110   -4.1750 C.2     1  UNL1        0.0020
     32  C         16.4870  -22.1050   -4.3620 C.2     1  UNL1        0.0320
     33  N         18.5250  -22.2790   -5.8550 N.ar    1  UNL1       -0.3330
     34  H         19.1290  -21.5510   -5.5050 H       1  UNL1        0.1680
@<TRIPOS>BOND
     1    19    18    2
     2    18    17    1
     3    18    20   am
     4    21    20    1
     5    17    15    1
     6    20    16    1
     7    16    14    2
     8    16    22    1
     9    15    14    1
    10    14    13    1
    11    22    11    2
    12     9     8    1
    13    13    12    2
    14    11     8    1
    15    11    12    1
    16     8     7   am
    17     2     3    1
    18     2     1    2
    19     3     4    2
    20     7     1    1
    21     7    10    2
    22     1     6    1
    23     4     5    1
    24     6     5    2
    25     6    23    1
    26    23    24    1
    27    24    25    1
    28    26    25   ar
    29    26    27   ar
    30    25    33   ar
    31    27    28    2
    32    27    29   ar
    33    28    30    1
    34    33    34    1
    35    33    29   ar
    36    29    32    2
    37    30    31    2
    38    32    31    1
