@<TRIPOS>MOLECULE
63038_out_ligand_01.pdbqt
 36 39 0 0 0
SMALL
GASTEIGER

@<TRIPOS>ATOM
      1  C         23.7960  -21.8070  -13.8450 C.2     1  UNL1        0.0340
      2  C         22.5360  -21.4500  -13.3260 C.2     1  UNL1        0.0300
      3  C         22.1530  -21.8490  -12.0430 C.2     1  UNL1        0.0190
      4  C         23.0340  -22.6070  -11.2650 C.2     1  UNL1        0.0320
      5  C         24.2850  -22.9670  -11.7740 C.2     1  UNL1        0.0190
      6  C         24.6610  -22.5720  -13.0630 C.2     1  UNL1        0.0300
      7  C         22.6740  -23.0420   -9.8940 C.2     1  UNL1        0.2510
      8  O         23.4650  -23.7150   -9.2370 O.2     1  UNL1       -0.2680
      9  N         21.4140  -22.6730   -9.4560 N.am    1  UNL1       -0.3560
     10  H         20.7490  -22.3470  -10.1420 H       1  UNL1        0.1620
     11  C         20.8820  -23.2110   -8.2070 C.3     1  UNL1        0.1370
     12  C         19.3300  -23.2260   -8.1640 C.3     1  UNL1        0.0690
     13  C         18.8380  -22.7940   -6.7840 C.2     1  UNL1       -0.0480
     14  C         17.9650  -23.6400   -6.0730 C.2     1  UNL1        0.0080
     15  C         17.5040  -23.2900   -4.8030 C.2     1  UNL1        0.0010
     16  C         17.9070  -22.0900   -4.2250 C.2     1  UNL1        0.0000
     17  C         18.7830  -21.2450   -4.9090 C.2     1  UNL1        0.0010
     18  C         19.2530  -21.5980   -6.1770 C.2     1  UNL1        0.0080
     19  C         18.6370  -22.4860   -9.3130 C.2     1  UNL1       -0.0480
     20  C         19.3390  -21.7870  -10.3100 C.2     1  UNL1        0.0080
     21  C         18.6550  -21.1000  -11.3180 C.2     1  UNL1        0.0010
     22  C         17.2620  -21.0980  -11.3480 C.2     1  UNL1        0.0000
     23  C         16.5480  -21.7780  -10.3620 C.2     1  UNL1        0.0010
     24  C         17.2290  -22.4650   -9.3510 C.2     1  UNL1        0.0080
     25  N         24.0940  -21.3550  -15.1460 N.am    1  UNL1       -0.3270
     26  C         24.9900  -20.3880  -15.5370 C.2     1  UNL1        0.2310
     27  O         25.6680  -19.7100  -14.7690 O.2     1  UNL1       -0.2720
     28  H         23.5170  -21.7510  -15.8900 H       1  UNL1        0.1690
     29  C         25.0860  -20.1190  -17.0430 C.3     1  UNL1        0.1850
     30  S         26.1490  -21.2860  -17.9700 S.3     1  UNL1       -0.0800
     31  C         25.8980  -22.7390  -17.0690 C.ar    1  UNL1        0.1980
     32  N         26.7390  -23.2350  -16.1870 N.ar    1  UNL1       -0.1350
     33  N         26.1490  -24.3960  -15.7400 N.ar    1  UNL1        0.0180
     34  N         24.9950  -24.6100  -16.3570 N.ar    1  UNL1       -0.0030
     35  N         24.8170  -23.5780  -17.1840 N.ar    1  UNL1       -0.2590
     36  C         23.6330  -23.4920  -18.0140 C.3     1  UNL1        0.1770
@<TRIPOS>BOND
     1    36    35    1
     2    30    31    1
     3    30    29    1
     4    35    31   ar
     5    35    34   ar
     6    31    32   ar
     7    29    26    1
     8    34    33   ar
     9    32    33   ar
    10    28    25    1
    11    26    25   am
    12    26    27    2
    13    25     1    1
    14     1     2    2
    15     1     6    1
    16     2     3    1
    17     6     5    2
    18     3     4    2
    19     5     4    1
    20    22    21    2
    21    22    23    1
    22    21    20    1
    23     4     7    1
    24    23    24    2
    25    20    19    2
    26    10     9    1
    27     7     9   am
    28     7     8    2
    29     9    11    1
    30    24    19    1
    31    19    12    1
    32    11    12    1
    33    12    13    1
    34    13    18    2
    35    13    14    1
    36    18    17    1
    37    14    15    2
    38    17    16    2
    39    15    16    1
