@<TRIPOS>MOLECULE
63045_out_ligand_01.pdbqt
 36 39 0 0 0
SMALL
GASTEIGER

@<TRIPOS>ATOM
      1  C         19.0010  -22.4920  -10.2000 C.2     1  UNL1        0.0320
      2  C         19.4040  -21.6510  -11.2460 C.2     1  UNL1        0.0190
      3  C         20.7230  -21.6800  -11.7060 C.2     1  UNL1        0.0310
      4  C         21.6400  -22.5520  -11.1210 C.2     1  UNL1        0.0420
      5  C         21.2440  -23.4050  -10.0920 C.2     1  UNL1        0.0310
      6  C         19.9240  -23.3780   -9.6320 C.2     1  UNL1        0.0190
      7  N         22.9670  -22.6080  -11.6250 N.pl3   1  UNL1       -0.2810
      8  H         23.1220  -22.2830  -12.5800 H       1  UNL1        0.1790
      9  S         24.2190  -22.0920  -10.6120 S.O2    1  UNL1        0.2630
     10  O         23.5890  -21.3130   -9.5660 O.2     1  UNL1       -0.2000
     11  O         25.0760  -23.2120  -10.2910 O.2     1  UNL1       -0.2000
     12  C         25.1140  -20.9620  -11.6490 C.2     1  UNL1        0.0820
     13  C         26.2200  -20.2600  -11.1070 C.2     1  UNL1        0.0280
     14  C         26.9570  -19.3710  -11.8980 C.2     1  UNL1        0.0330
     15  C         26.5530  -19.2300  -13.2050 C.ar    1  UNL1        0.0630
     16  N         27.0790  -18.4330  -14.2140 N.ar    1  UNL1       -0.3070
     17  C         25.4700  -19.9330  -13.7350 C.ar    1  UNL1        0.0640
     18  C         26.3300  -18.6310  -15.3840 C.ar    1  UNL1        0.3250
     19  H         27.8680  -17.8100  -14.1570 H       1  UNL1        0.1700
     20  O         26.5130  -18.0950  -16.4620 O.2     1  UNL1       -0.2470
     21  N         25.3330  -19.5650  -15.0690 N.ar    1  UNL1       -0.3060
     22  H         24.6480  -19.8940  -15.7290 H       1  UNL1        0.1700
     23  C         24.7280  -20.8150  -12.9890 C.2     1  UNL1        0.0570
     24  C         17.5800  -22.4310   -9.7530 C.2     1  UNL1        0.2510
     25  N         17.2480  -23.2110   -8.6680 N.am    1  UNL1       -0.3530
     26  H         17.9870  -23.5980   -8.0980 H       1  UNL1        0.1630
     27  O         16.7920  -21.6910  -10.3300 O.2     1  UNL1       -0.2680
     28  C         15.9430  -23.1210   -8.0500 C.3     1  UNL1        0.1610
     29  C         16.0710  -22.8870   -6.5670 C.2     1  UNL1       -0.0380
     30  C         15.0300  -23.2420   -5.7020 C.2     1  UNL1        0.0090
     31  C         15.1380  -23.0020   -4.3340 C.2     1  UNL1        0.0030
     32  C         16.2840  -22.3970   -3.8130 C.2     1  UNL1        0.0370
     33  C         17.3280  -22.0270   -4.6620 C.2     1  UNL1        0.0680
     34  C         17.2130  -22.2710   -6.0350 C.2     1  UNL1        0.0450
     35  O         18.4960  -21.4230   -4.2880 O.2     1  UNL1       -0.3560
     36  C         19.2390  -20.7740   -5.3130 C.3     1  UNL1        0.2100
@<TRIPOS>BOND
     1    20    18    2
     2    22    21    1
     3    18    21   ar
     4    18    16   ar
     5    21    17   ar
     6    16    19    1
     7    16    15   ar
     8    17    15   ar
     9    17    23    1
    10    15    14    1
    11    23    12    2
    12     8     7    1
    13    14    13    2
    14     3     2    1
    15     3     4    2
    16    12    13    1
    17    12     9    1
    18     7     4    1
    19     7     9    1
    20     2     1    2
    21     4     5    1
    22     9    11    2
    23     9    10    2
    24    27    24    2
    25     1    24    1
    26     1     6    1
    27     5     6    2
    28    24    25   am
    29    25    26    1
    30    25    28    1
    31    28    29    1
    32    29    34    2
    33    29    30    1
    34    34    33    1
    35    30    31    2
    36    36    35    1
    37    33    35    1
    38    33    32    2
    39    31    32    1
