@<TRIPOS>MOLECULE
63048_out_ligand_01.pdbqt
 32 35 0 0 0
SMALL
GASTEIGER

@<TRIPOS>ATOM
      1  C         18.8920  -22.0720  -10.5680 C.2     1  UNL1        0.0320
      2  C         19.6130  -22.9210   -9.7140 C.2     1  UNL1        0.0180
      3  C         18.9600  -23.6120   -8.6910 C.2     1  UNL1        0.0260
      4  C         17.5790  -23.4620   -8.5390 C.2     1  UNL1        0.0800
      5  C         16.8480  -22.6240   -9.3880 C.2     1  UNL1        0.0260
      6  C         17.5050  -21.9330  -10.4090 C.2     1  UNL1        0.0180
      7  C         19.6330  -21.3650  -11.6480 C.2     1  UNL1        0.2510
      8  N         20.8760  -21.8640  -11.9600 N.am    1  UNL1       -0.3530
      9  H         21.2190  -22.7020  -11.5140 H       1  UNL1        0.1630
     10  O         19.1170  -20.4080  -12.2130 O.2     1  UNL1       -0.2680
     11  C         21.7330  -21.2370  -12.9400 C.3     1  UNL1        0.1610
     12  C         23.1240  -21.8100  -12.8510 C.2     1  UNL1       -0.0380
     13  C         23.9590  -21.7950  -13.9790 C.2     1  UNL1        0.0090
     14  C         25.2560  -22.3000  -13.9020 C.2     1  UNL1        0.0030
     15  C         25.7280  -22.8180  -12.6960 C.2     1  UNL1        0.0370
     16  C         24.9130  -22.8390  -11.5610 C.2     1  UNL1        0.0680
     17  C         23.6140  -22.3300  -11.6390 C.2     1  UNL1        0.0450
     18  O         25.5020  -23.3720  -10.4470 O.2     1  UNL1       -0.3560
     19  C         26.8820  -23.7020  -10.5410 C.3     1  UNL1        0.2100
     20  S         16.7160  -24.3360   -7.2440 S.O2    1  UNL1        0.2650
     21  O         17.7450  -25.0400   -6.5070 O.2     1  UNL1       -0.2000
     22  O         15.6150  -25.0510   -7.8580 O.2     1  UNL1       -0.2000
     23  N         16.0700  -23.0330   -6.3090 N.pl3   1  UNL1       -0.2710
     24  C         14.7510  -23.3050   -5.6650 C.3     1  UNL1        0.1420
     25  C         14.9300  -23.9090   -4.2820 C.3     1  UNL1        0.0260
     26  C         15.6950  -22.9510   -3.3840 C.3     1  UNL1        0.0420
     27  C         16.8860  -22.3340   -4.0670 C.2     1  UNL1       -0.0310
     28  C         17.8360  -21.6600   -3.2800 C.2     1  UNL1        0.0090
     29  C         17.0300  -22.3430   -5.4660 C.2     1  UNL1        0.0510
     30  C         18.9160  -21.0070   -3.8710 C.2     1  UNL1        0.0010
     31  C         19.0460  -21.0010   -5.2550 C.2     1  UNL1        0.0020
     32  C         18.1030  -21.6590   -6.0470 C.2     1  UNL1        0.0310
@<TRIPOS>BOND
     1    13    14    1
     2    13    12    2
     3    14    15    2
     4    11    12    1
     5    11     8    1
     6    12    17    1
     7    15    16    1
     8    10     7    2
     9     8     7   am
    10     8     9    1
    11     7     1    1
    12    17    16    2
    13    16    18    1
    14     1     6    2
    15     1     2    1
    16    19    18    1
    17     6     5    1
    18     2     3    2
    19     5     4    2
    20     3     4    1
    21     4    20    1
    22    22    20    2
    23    20    21    2
    24    20    23    1
    25    23    24    1
    26    23    29    1
    27    32    29    1
    28    32    31    2
    29    24    25    1
    30    29    27    2
    31    31    30    1
    32    25    26    1
    33    27    26    1
    34    27    28    1
    35    30    28    2
