@<TRIPOS>MOLECULE
63044_out_ligand_01.pdbqt
 33 35 0 0 0
SMALL
GASTEIGER

@<TRIPOS>ATOM
      1  N         21.2140  -22.3620  -11.0450 N.am    1  UNL1       -0.3230
      2  C         20.0930  -21.6050  -11.3360 C.2     1  UNL1        0.2560
      3  O         20.0230  -20.6860  -12.1440 O.2     1  UNL1       -0.2670
      4  H         21.1590  -22.9730  -10.2390 H       1  UNL1        0.1690
      5  C         22.4750  -22.2940  -11.6770 C.2     1  UNL1        0.0360
      6  C         23.5660  -22.8290  -10.9860 C.2     1  UNL1        0.0460
      7  C         24.8540  -22.8070  -11.5420 C.2     1  UNL1        0.0350
      8  C         25.0460  -22.2520  -12.8080 C.2     1  UNL1        0.0340
      9  C         23.9610  -21.7070  -13.5090 C.2     1  UNL1        0.0350
     10  C         22.6780  -21.7440  -12.9440 C.2     1  UNL1        0.0460
     11  C         25.9640  -23.4020  -10.7470 C.2     1  UNL1        0.2490
     12  N         25.6560  -24.0180   -9.5680 N.am    1  UNL1       -0.3660
     13  H         26.4160  -24.4800   -9.0860 H       1  UNL1        0.1590
     14  H         24.7170  -24.2380   -9.2700 H       1  UNL1        0.1590
     15  O         27.1200  -23.3690  -11.1500 O.2     1  UNL1       -0.2680
     16  C         24.2270  -21.1230  -14.8530 C.2     1  UNL1        0.2490
     17  N         24.8120  -19.8920  -14.9220 N.am    1  UNL1       -0.3660
     18  H         25.2130  -19.4080  -14.1310 H       1  UNL1        0.1590
     19  H         25.0500  -19.5510  -15.8450 H       1  UNL1        0.1590
     20  O         23.9550  -21.7420  -15.8750 O.2     1  UNL1       -0.2680
     21  C         18.8840  -21.9410  -10.5360 C.2     1  UNL1        0.0350
     22  C         17.6000  -21.5480  -10.9410 C.2     1  UNL1        0.0170
     23  C         16.4890  -21.8870  -10.1670 C.2     1  UNL1        0.0040
     24  C         16.6560  -22.6050   -8.9820 C.2     1  UNL1        0.0370
     25  C         17.9400  -22.9620   -8.5590 C.2     1  UNL1        0.0770
     26  C         19.0510  -22.6450   -9.3380 C.2     1  UNL1        0.0540
     27  O         18.1670  -23.6950   -7.4150 O.2     1  UNL1       -0.3110
     28  C         18.1750  -23.0090   -6.2220 C.2     1  UNL1        0.0760
     29  C         17.4570  -23.4390   -5.1030 C.2     1  UNL1        0.0370
     30  C         17.4790  -22.6780   -3.9330 C.2     1  UNL1        0.0030
     31  C         18.2040  -21.4860   -3.8880 C.2     1  UNL1        0.0000
     32  C         18.9010  -21.0490   -5.0140 C.2     1  UNL1        0.0030
     33  C         18.8800  -21.8060   -6.1860 C.2     1  UNL1        0.0370
@<TRIPOS>BOND
     1    20    16    2
     2    19    17    1
     3    17    16   am
     4    17    18    1
     5    16     9    1
     6     9    10    1
     7     9     8    2
     8    10     5    2
     9     8     7    1
    10     3     2    2
    11     5     1    1
    12     5     6    1
    13     7     6    2
    14     7    11    1
    15     2     1   am
    16     2    21    1
    17    15    11    2
    18     1     4    1
    19    22    21    2
    20    22    23    1
    21    11    12   am
    22    21    26    1
    23    23    24    2
    24    12    14    1
    25    12    13    1
    26    26    25    2
    27    24    25    1
    28    25    27    1
    29    27    28    1
    30    28    33    2
    31    28    29    1
    32    33    32    1
    33    29    30    2
    34    32    31    2
    35    30    31    1
