@<TRIPOS>MOLECULE
63043_out_ligand_01.pdbqt
 29 32 0 0 0
SMALL
GASTEIGER

@<TRIPOS>ATOM
      1  C         20.6500  -22.5240   -7.6100 C.2     1  UNL1       -0.0410
      2  C         20.7070  -23.6990   -8.3720 C.2     1  UNL1        0.0090
      3  C         21.8250  -23.9780   -9.1640 C.2     1  UNL1        0.0090
      4  C         22.9100  -23.0910   -9.2040 C.2     1  UNL1       -0.0450
      5  C         22.8630  -21.9300   -8.4190 C.2     1  UNL1        0.0090
      6  C         21.7470  -21.6510   -7.6270 C.2     1  UNL1        0.0090
      7  C         19.4380  -22.2020   -6.7780 C.3     1  UNL1        0.1610
      8  N         18.2220  -22.3400   -7.5400 N.am    1  UNL1       -0.3530
      9  C         17.3640  -23.3890   -7.3680 C.2     1  UNL1        0.2410
     10  O         17.5230  -24.2950   -6.5560 O.2     1  UNL1       -0.2690
     11  H         18.0480  -21.6810   -8.2810 H       1  UNL1        0.1630
     12  C         16.1070  -23.3270   -8.1570 C.2     1  UNL1        0.0760
     13  C         15.8550  -22.8300   -9.3770 C.2     1  UNL1        0.0350
     14  C         16.8200  -22.3040  -10.2660 C.2     1  UNL1        0.0320
     15  C         18.0010  -22.7700  -10.8120 C.2     1  UNL1        0.0310
     16  C         18.4950  -21.7780  -11.6900 C.2     1  UNL1        0.0190
     17  C         17.6150  -20.7270  -11.6540 C.2     1  UNL1        0.0880
     18  N         16.5970  -21.0550  -10.7980 N.pl3   1  UNL1       -0.3660
     19  H         15.8080  -20.4540  -10.5870 H       1  UNL1        0.1650
     20  C         24.1020  -23.3650  -10.0980 C.3     1  UNL1        0.1340
     21  N         24.6630  -22.1310  -10.6440 N.pl3   1  UNL1       -0.2780
     22  C         26.1310  -22.0330  -10.7840 C.3     1  UNL1        0.1010
     23  C         26.4240  -20.9650  -11.8510 C.3     1  UNL1        0.0550
     24  C         25.1680  -21.0410  -12.6490 C.2     1  UNL1       -0.0360
     25  C         24.9180  -20.5250  -13.9090 C.2     1  UNL1        0.0090
     26  C         24.1910  -21.7190  -11.9110 C.2     1  UNL1        0.0170
     27  C         23.6460  -20.7040  -14.4500 C.2     1  UNL1        0.0010
     28  C         22.6540  -21.3740  -13.7230 C.2     1  UNL1        0.0020
     29  C         22.9220  -21.8780  -12.4460 C.2     1  UNL1        0.0240
@<TRIPOS>BOND
     1    27    25    1
     2    27    28    2
     3    25    24    2
     4    28    29    1
     5    24    26    1
     6    24    23    1
     7    29    26    2
     8    26    21    1
     9    23    22    1
    10    16    17    2
    11    16    15    1
    12    17    18    1
    13    15    14    2
    14    18    19    1
    15    18    14    1
    16    22    21    1
    17    21    20    1
    18    14    13    1
    19    20     4    1
    20    13    12    2
    21     4     3    2
    22     4     5    1
    23     3     2    1
    24     5     6    2
    25     2     1    2
    26    11     8    1
    27    12     9    1
    28     6     1    1
    29     1     7    1
    30     8     9   am
    31     8     7    1
    32     9    10    2
