@<TRIPOS>MOLECULE
63062_out_ligand_01.pdbqt
 33 37 0 0 0
SMALL
GASTEIGER

@<TRIPOS>ATOM
      1  C         20.0390  -22.0620  -11.0250 C.2     1  UNL1        0.0840
      2  C         20.7650  -21.6980  -12.1690 C.2     1  UNL1        0.0390
      3  C         22.1600  -21.7590  -12.1820 C.2     1  UNL1        0.0270
      4  C         22.8430  -22.1820  -11.0440 C.2     1  UNL1        0.0760
      5  C         22.1420  -22.5240   -9.8860 C.2     1  UNL1        0.0440
      6  C         20.7360  -22.4790   -9.8670 C.2     1  UNL1        0.0670
      7  C         20.0800  -22.9170   -8.5860 C.2     1  UNL1        0.2590
      8  O         20.4860  -23.9510   -8.0610 O.2     1  UNL1       -0.2670
      9  N         19.0720  -22.1080   -8.1040 N.am    1  UNL1       -0.3230
     10  H         18.8260  -21.3170   -8.6880 H       1  UNL1        0.1690
     11  C         18.3140  -22.2660   -6.9260 C.2     1  UNL1        0.0350
     12  C         18.8210  -21.6580   -5.7580 C.2     1  UNL1        0.0300
     13  C         18.1480  -21.7500   -4.5350 C.2     1  UNL1        0.0100
     14  C         16.9690  -22.4690   -4.4920 C.2     1  UNL1       -0.0520
     15  C         16.4580  -23.0750   -5.6420 C.2     1  UNL1       -0.0500
     16  C         16.0550  -22.6810   -3.3270 C.3     1  UNL1        0.0390
     17  C         17.1140  -22.9780   -6.8630 C.2     1  UNL1        0.0370
     18  C         15.1540  -23.7510   -5.3550 C.3     1  UNL1        0.0390
     19  C         15.2070  -23.8620   -3.8240 C.3     1  UNL1        0.0090
     20  O         18.6680  -22.0250  -10.9650 O.2     1  UNL1       -0.3550
     21  C         17.9900  -21.0810  -11.7870 C.3     1  UNL1        0.2100
     22  S         24.6250  -22.2310  -11.0600 S.O2    1  UNL1        0.2480
     23  O         25.0690  -20.8790  -10.7830 O.2     1  UNL1       -0.2050
     24  O         25.0440  -23.3350  -10.2240 O.2     1  UNL1       -0.2050
     25  N         24.9420  -22.6190  -12.6880 N.pl3   1  UNL1       -0.1710
     26  C         25.7580  -23.8620  -12.9230 C.3     1  UNL1        0.1180
     27  C         26.4910  -23.6490  -14.2560 C.3     1  UNL1        0.0560
     28  C         26.4380  -22.1660  -14.4100 C.2     1  UNL1       -0.0350
     29  C         27.1030  -21.3900  -15.3470 C.2     1  UNL1        0.0090
     30  C         25.5460  -21.5980  -13.5000 C.2     1  UNL1        0.0310
     31  C         26.8510  -20.0190  -15.3710 C.2     1  UNL1        0.0010
     32  C         25.9260  -19.4520  -14.4810 C.2     1  UNL1        0.0020
     33  C         25.2530  -20.2460  -13.5480 C.2     1  UNL1        0.0250
@<TRIPOS>BOND
     1    31    29    1
     2    31    32    2
     3    29    28    2
     4    32    33    1
     5    28    27    1
     6    28    30    1
     7    27    26    1
     8    33    30    2
     9    30    25    1
    10    26    25    1
    11    25    22    1
    12     3     2    1
    13     3     4    2
    14     2     1    2
    15    21    20    1
    16    22     4    1
    17    22    23    2
    18    22    24    2
    19     4     5    1
    20     1    20    1
    21     1     6    1
    22     5     6    2
    23     6     7    1
    24    10     9    1
    25     7     9   am
    26     7     8    2
    27     9    11    1
    28    11    17    2
    29    11    12    1
    30    17    15    1
    31    12    13    2
    32    15    18    1
    33    15    14    2
    34    18    19    1
    35    13    14    1
    36    14    16    1
    37    19    16    1
