@<TRIPOS>MOLECULE
6306_out_ligand_01.pdbqt
 39 42 0 0 0
SMALL
GASTEIGER

@<TRIPOS>ATOM
      1  C         22.0850  -22.5330  -11.0580 C.2     1  UNL1        0.2410
      2  O         22.5550  -23.5400  -10.5390 O.2     1  UNL1       -0.2710
      3  N         20.7920  -22.0610  -10.9040 N.am    1  UNL1       -0.3260
      4  H         20.5200  -21.2800  -11.5050 H       1  UNL1        0.1690
      5  C         19.7700  -22.5960  -10.1010 C.2     1  UNL1        0.0340
      6  C         20.1690  -23.3870   -9.0120 C.2     1  UNL1        0.0310
      7  C         19.2210  -23.9430   -8.1490 C.2     1  UNL1        0.0270
      8  C         17.8640  -23.7180   -8.3870 C.2     1  UNL1        0.0800
      9  C         17.4520  -22.9570   -9.4820 C.2     1  UNL1        0.0270
     10  C         18.4070  -22.3910  -10.3330 C.2     1  UNL1        0.0310
     11  S         16.6480  -24.3680   -7.2730 S.O2    1  UNL1        0.2630
     12  O         15.5500  -24.8520   -8.0850 O.2     1  UNL1       -0.2000
     13  O         17.3060  -25.2330   -6.3160 O.2     1  UNL1       -0.2000
     14  N         16.0780  -22.9870   -6.4830 N.pl3   1  UNL1       -0.2800
     15  H         15.0780  -23.0490   -6.3070 H       1  UNL1        0.1790
     16  C         16.8960  -22.3940   -5.4760 C.2     1  UNL1        0.0490
     17  C         17.9900  -21.6200   -5.8760 C.2     1  UNL1        0.0370
     18  C         18.8510  -21.0510   -4.9300 C.2     1  UNL1       -0.0600
     19  C         20.0040  -20.1990   -5.3710 C.3     1  UNL1        0.0480
     20  C         18.5890  -21.2520   -3.5720 C.2     1  UNL1        0.0070
     21  C         17.4990  -22.0300   -3.1690 C.2     1  UNL1        0.0090
     22  C         16.6400  -22.6110   -4.1150 C.2     1  UNL1       -0.0350
     23  C         15.5030  -23.4730   -3.6440 C.3     1  UNL1        0.0500
     24  C         22.9360  -21.6770  -11.9880 C.3     1  UNL1        0.2440
     25  N         24.2860  -22.2350  -12.2620 N.pl3   1  UNL1       -0.2670
     26  S         25.5490  -21.7930  -11.2320 S.O2    1  UNL1        0.2330
     27  O         26.1570  -23.0250  -10.7660 O.2     1  UNL1       -0.2050
     28  O         25.1050  -20.7930  -10.2850 O.2     1  UNL1       -0.2050
     29  C         26.6840  -20.9990  -12.3660 C.3     1  UNL1        0.1590
     30  C         26.3770  -19.5260  -12.5700 C.3     1  UNL1        0.0230
     31  C         24.5940  -22.5740  -13.6240 C.2     1  UNL1        0.0480
     32  C         25.1710  -23.8350  -13.8770 C.2     1  UNL1        0.0330
     33  C         25.4310  -24.2540  -15.1850 C.2     1  UNL1        0.0420
     34  C         25.0840  -23.3990  -16.2080 C.2     1  UNL1        0.1050
     35  C         24.4890  -22.1830  -15.9660 C.2     1  UNL1        0.1070
     36  O         25.2640  -23.6350  -17.5350 O.2     1  UNL1       -0.3230
     37  C         24.2180  -21.7440  -14.6870 C.2     1  UNL1        0.0700
     38  O         24.2140  -21.5040  -17.1140 O.2     1  UNL1       -0.3230
     39  C         24.7410  -22.4170  -18.1020 C.3     1  UNL1        0.3520
@<TRIPOS>BOND
     1    39    36    1
     2    39    38    1
     3    36    34    1
     4    38    35    1
     5    34    35    2
     6    34    33    1
     7    35    37    1
     8    33    32    2
     9    37    31    2
    10    32    31    1
    11    31    25    1
    12    30    29    1
    13    29    26    1
    14    25    24    1
    15    25    26    1
    16    24     1    1
    17     4     3    1
    18    26    27    2
    19    26    28    2
    20     1     3   am
    21     1     2    2
    22     3     5    1
    23    10     5    2
    24    10     9    1
    25     5     6    1
    26     9     8    2
    27     6     7    2
    28     8     7    1
    29     8    11    1
    30    12    11    2
    31    11    14    1
    32    11    13    2
    33    14    15    1
    34    14    16    1
    35    17    16    2
    36    17    18    1
    37    16    22    1
    38    19    18    1
    39    18    20    2
    40    22    23    1
    41    22    21    2
    42    20    21    1
