@<TRIPOS>MOLECULE
63060_out_ligand_01.pdbqt
 34 38 0 0 0
SMALL
GASTEIGER

@<TRIPOS>ATOM
      1  C         19.7650  -22.5510  -10.1960 C.2     1  UNL1        0.0320
      2  C         18.4060  -22.2140  -10.2810 C.2     1  UNL1        0.0180
      3  C         17.4930  -22.7670   -9.3800 C.2     1  UNL1        0.0260
      4  C         17.9430  -23.6640   -8.4050 C.2     1  UNL1        0.0800
      5  C         19.2940  -24.0100   -8.3140 C.2     1  UNL1        0.0260
      6  C         20.2020  -23.4590   -9.2200 C.2     1  UNL1        0.0180
      7  C         20.7710  -21.9920  -11.1420 C.2     1  UNL1        0.2570
      8  O         20.3920  -21.1500  -11.9470 O.2     1  UNL1       -0.2670
      9  N         22.0310  -22.5280  -11.0170 N.am    1  UNL1       -0.3010
     10  H         22.2140  -23.3020  -10.3970 H       1  UNL1        0.1710
     11  C         23.0790  -22.1150  -11.7900 C.2     1  UNL1        0.1740
     12  N         23.1610  -22.0030  -13.0880 N.2     1  UNL1       -0.2220
     13  C         24.4230  -21.5380  -13.4390 C.2     1  UNL1        0.0950
     14  C         25.2670  -21.3040  -12.3680 C.2     1  UNL1        0.0870
     15  S         24.4660  -21.6740  -10.8970 S.3     1  UNL1       -0.0610
     16  C         24.8090  -21.3210  -14.8320 C.2     1  UNL1        0.0850
     17  C         24.5290  -22.2850  -15.7960 C.2     1  UNL1        0.0340
     18  C         24.9110  -22.0470  -17.1150 C.2     1  UNL1        0.0040
     19  C         25.5570  -20.8580  -17.4300 C.2     1  UNL1        0.0190
     20  C         25.7960  -19.9520  -16.4100 C.2     1  UNL1        0.1170
     21  N         25.4390  -20.1530  -15.1230 N.2     1  UNL1       -0.2590
     22  S         16.7560  -24.3560   -7.2630 S.O2    1  UNL1        0.2650
     23  O         15.6890  -24.9440   -8.0470 O.2     1  UNL1       -0.2000
     24  O         17.5380  -25.1570   -6.3440 O.2     1  UNL1       -0.2000
     25  N         16.1500  -22.9400   -6.4800 N.pl3   1  UNL1       -0.2710
     26  C         14.7690  -23.0590   -5.9260 C.3     1  UNL1        0.1420
     27  C         14.7940  -23.5760   -4.4970 C.3     1  UNL1        0.0260
     28  C         15.5690  -22.6210   -3.6050 C.3     1  UNL1        0.0420
     29  C         16.8530  -22.1470   -4.2320 C.2     1  UNL1       -0.0310
     30  C         17.7950  -21.4960   -3.4180 C.2     1  UNL1        0.0090
     31  C         17.0970  -22.2660   -5.6110 C.2     1  UNL1        0.0510
     32  C         18.9650  -20.9690   -3.9640 C.2     1  UNL1        0.0010
     33  C         19.1950  -21.0710   -5.3310 C.2     1  UNL1        0.0020
     34  C         18.2620  -21.7090   -6.1500 C.2     1  UNL1        0.0310
@<TRIPOS>BOND
     1    19    18    2
     2    19    20    1
     3    18    17    1
     4    20    21    2
     5    17    16    2
     6    21    16    1
     7    16    13    1
     8    13    12    1
     9    13    14    2
    10    12    11    2
    11    14    15    1
    12     8     7    2
    13    11     9    1
    14    11    15    1
    15     7     9   am
    16     7     1    1
    17     9    10    1
    18     2     1    2
    19     2     3    1
    20     1     6    1
    21     3     4    2
    22     6     5    2
    23     4     5    1
    24     4    22    1
    25    23    22    2
    26    22    25    1
    27    22    24    2
    28    25    26    1
    29    25    31    1
    30    34    31    1
    31    34    33    2
    32    26    27    1
    33    31    29    2
    34    33    32    1
    35    27    28    1
    36    29    28    1
    37    29    30    1
    38    32    30    2
