@<TRIPOS>MOLECULE
63067_out_ligand_01.pdbqt
 32 35 0 0 0
SMALL
GASTEIGER

@<TRIPOS>ATOM
      1  N         20.1970  -22.0720  -10.3060 N.am    1  UNL1       -0.3270
      2  C         19.2790  -22.9060   -9.6850 C.2     1  UNL1        0.2260
      3  O         19.4910  -24.0430   -9.2720 O.2     1  UNL1       -0.2730
      4  H         19.8380  -21.1940  -10.6660 H       1  UNL1        0.1690
      5  C         21.5560  -22.3330  -10.5700 C.2     1  UNL1        0.0340
      6  C         21.9880  -22.1830  -11.8950 C.2     1  UNL1        0.0310
      7  C         23.3190  -22.4290  -12.2460 C.2     1  UNL1        0.0270
      8  C         24.2240  -22.8390  -11.2670 C.2     1  UNL1        0.0800
      9  C         23.8140  -22.9700   -9.9390 C.2     1  UNL1        0.0270
     10  C         22.4810  -22.7210   -9.5960 C.2     1  UNL1        0.0310
     11  S         25.9190  -23.1370  -11.6970 S.O2    1  UNL1        0.2650
     12  O         26.7030  -23.2620  -10.4900 O.2     1  UNL1       -0.2000
     13  O         25.9360  -24.1770  -12.7050 O.2     1  UNL1       -0.2000
     14  N         26.3550  -21.7490  -12.4980 N.am    1  UNL1       -0.2510
     15  C         26.3910  -20.4680  -11.9380 C.2     1  UNL1        0.2270
     16  C         26.8680  -19.4030  -12.8830 C.3     1  UNL1        0.1180
     17  O         26.0400  -20.2200  -10.7940 O.2     1  UNL1       -0.2730
     18  H         26.6080  -21.9120  -13.4670 H       1  UNL1        0.1810
     19  C         17.9010  -22.2720   -9.5580 C.3     1  UNL1        0.1440
     20  C         16.9650  -23.0450   -8.6870 C.2     1  UNL1       -0.0130
     21  C         16.0230  -23.9680   -9.1060 C.2     1  UNL1        0.1510
     22  O         15.3120  -24.4500   -8.0640 O.2     1  UNL1       -0.3210
     23  C         15.8040  -23.8700   -6.9400 C.2     1  UNL1        0.0860
     24  C         15.3210  -24.1180   -5.6600 C.2     1  UNL1        0.0390
     25  C         16.8510  -23.0040   -7.2480 C.2     1  UNL1        0.0170
     26  C         15.9460  -23.4410   -4.6110 C.2     1  UNL1        0.0150
     27  C         17.0190  -22.5680   -4.8350 C.2     1  UNL1       -0.0250
     28  C         17.6360  -21.9150   -3.7570 C.2     1  UNL1        0.0120
     29  C         17.5010  -22.3380   -6.1570 C.2     1  UNL1       -0.0120
     30  C         18.7160  -21.0570   -3.9590 C.2     1  UNL1        0.0010
     31  C         19.2020  -20.8400   -5.2450 C.2     1  UNL1        0.0010
     32  C         18.6040  -21.4740   -6.3360 C.2     1  UNL1        0.0130
@<TRIPOS>BOND
     1    18    14    1
     2    16    15    1
     3    13    11    2
     4    14    15   am
     5    14    11    1
     6     7     6    1
     7     7     8    2
     8    15    17    2
     9     6     5    2
    10    11     8    1
    11    11    12    2
    12     8     9    1
    13     4     1    1
    14     5     1    1
    15     5    10    1
    16     1     2   am
    17     9    10    2
    18     2    19    1
    19     2     3    2
    20    19    20    1
    21    21    20    2
    22    21    22    1
    23    20    25    1
    24    22    23    1
    25    25    23    2
    26    25    29    1
    27    23    24    1
    28    32    29    1
    29    32    31    2
    30    29    27    2
    31    24    26    2
    32    31    30    1
    33    27    26    1
    34    27    28    1
    35    30    28    2
