@<TRIPOS>MOLECULE
63072_out_ligand_01.pdbqt
 33 36 0 0 0
SMALL
GASTEIGER

@<TRIPOS>ATOM
      1  N         24.3350  -21.8110  -13.4570 N.am    1  UNL1       -0.2430
      2  C         24.8100  -22.4770  -12.3460 C.2     1  UNL1        0.2660
      3  O         25.9280  -22.8370  -12.0260 O.2     1  UNL1       -0.2670
      4  C         23.6800  -22.6410  -11.4350 C.2     1  UNL1        0.0480
      5  C         23.6070  -23.2560  -10.2000 C.2     1  UNL1        0.0190
      6  C         22.3710  -23.2290   -9.5420 C.2     1  UNL1        0.0180
      7  C         21.2440  -22.5980  -10.1260 C.2     1  UNL1        0.0330
      8  C         21.3570  -21.9640  -11.3710 C.2     1  UNL1        0.0350
      9  C         22.5910  -22.0140  -11.9970 C.2     1  UNL1        0.0490
     10  C         23.0140  -21.4580  -13.2780 C.2     1  UNL1        0.2660
     11  O         22.2310  -20.8450  -13.9820 O.2     1  UNL1       -0.2670
     12  C         19.9640  -22.5950   -9.3580 C.2     1  UNL1        0.2560
     13  O         18.9300  -22.3580   -9.9700 O.2     1  UNL1       -0.2670
     14  N         20.0890  -22.8290   -8.0000 N.am    1  UNL1       -0.3230
     15  H         21.0230  -22.8640   -7.6150 H       1  UNL1        0.1690
     16  C         19.0440  -22.9370   -7.0570 C.2     1  UNL1        0.0350
     17  C         18.7030  -21.9310   -6.1490 C.2     1  UNL1        0.0310
     18  C         17.6480  -22.1100   -5.2480 C.2     1  UNL1        0.0250
     19  C         16.9370  -23.3100   -5.2500 C.2     1  UNL1        0.0590
     20  C         17.2490  -24.3180   -6.1610 C.2     1  UNL1        0.0250
     21  C         18.3020  -24.1280   -7.0600 C.2     1  UNL1        0.0310
     22  S         15.5920  -23.5290   -4.1090 S.O2    1  UNL1        0.1710
     23  C         14.2500  -24.0330   -5.1530 C.3     1  UNL1        0.1670
     24  O         15.9360  -24.6370   -3.2390 O.2     1  UNL1       -0.2230
     25  O         15.2650  -22.2260   -3.5610 O.2     1  UNL1       -0.2230
     26  C         25.1250  -21.4100  -14.5730 C.2     1  UNL1        0.0520
     27  C         25.5620  -22.2980  -15.5800 C.2     1  UNL1       -0.0350
     28  C         26.4160  -21.8220  -16.5960 C.2     1  UNL1        0.0090
     29  C         25.1400  -23.7390  -15.6920 C.3     1  UNL1        0.0500
     30  C         26.7910  -20.4820  -16.6620 C.2     1  UNL1        0.0070
     31  C         26.3120  -19.5790  -15.7190 C.2     1  UNL1       -0.0600
     32  C         26.7200  -18.1350  -15.7640 C.3     1  UNL1        0.0480
     33  C         25.4940  -20.0520  -14.6820 C.2     1  UNL1        0.0370
@<TRIPOS>BOND
     1    30    28    2
     2    30    31    1
     3    28    27    1
     4    32    31    1
     5    31    33    2
     6    29    27    1
     7    27    26    2
     8    33    26    1
     9    26     1    1
    10    11    10    2
    11     1    10   am
    12     1     2   am
    13    10     9    1
    14     2     3    2
    15     2     4    1
    16     9     4    2
    17     9     8    1
    18     4     5    1
    19     8     7    2
    20     5     6    2
    21     7     6    1
    22     7    12    1
    23    13    12    2
    24    12    14   am
    25    14    15    1
    26    14    16    1
    27    21    16    2
    28    21    20    1
    29    16    17    1
    30    20    19    2
    31    17    18    2
    32    19    18    1
    33    19    22    1
    34    23    22    1
    35    22    25    2
    36    22    24    2
