@<TRIPOS>MOLECULE
63099_out_ligand_01.pdbqt
 29 32 0 0 0
SMALL
GASTEIGER

@<TRIPOS>ATOM
      1  C         22.3750  -22.6450  -10.1070 C.2     1  UNL1        0.0320
      2  C         22.2200  -23.6510   -9.1400 C.2     1  UNL1        0.0180
      3  C         20.9670  -23.9080   -8.5770 C.2     1  UNL1        0.0260
      4  C         19.8680  -23.1490   -8.9880 C.2     1  UNL1        0.0750
      5  C         20.0020  -22.1610   -9.9690 C.2     1  UNL1        0.0260
      6  C         21.2570  -21.9110  -10.5300 C.2     1  UNL1        0.0180
      7  S         18.2530  -23.4560   -8.2900 S.O2    1  UNL1        0.2480
      8  O         18.3230  -24.7010   -7.5510 O.2     1  UNL1       -0.2050
      9  O         17.3270  -23.2920   -9.3910 O.2     1  UNL1       -0.2050
     10  N         18.0980  -22.1550   -7.1360 N.pl3   1  UNL1       -0.1720
     11  C         19.4330  -21.7620   -6.5760 C.3     1  UNL1        0.1140
     12  C         19.2930  -20.8210   -5.3940 C.3     1  UNL1        0.0200
     13  C         18.5450  -21.5400   -4.2890 C.3     1  UNL1        0.0420
     14  C         17.2160  -22.0230   -4.7980 C.2     1  UNL1       -0.0360
     15  C         16.1680  -22.1800   -3.8740 C.2     1  UNL1        0.0090
     16  C         17.0160  -22.3260   -6.1590 C.2     1  UNL1        0.0310
     17  C         14.9010  -22.5660   -4.2980 C.2     1  UNL1        0.0010
     18  C         14.6690  -22.7770   -5.6500 C.2     1  UNL1        0.0020
     19  C         15.7140  -22.6390   -6.5710 C.2     1  UNL1        0.0250
     20  C         23.7340  -22.4160  -10.6730 C.2     1  UNL1        0.2510
     21  O         24.3370  -21.3790  -10.4190 O.2     1  UNL1       -0.2680
     22  N         24.2270  -23.4000  -11.5030 N.am    1  UNL1       -0.3520
     23  H         23.5960  -24.1000  -11.8650 H       1  UNL1        0.1630
     24  C         25.4640  -23.2160  -12.2310 C.3     1  UNL1        0.1690
     25  C         25.1440  -23.1590  -13.6920 C.2     1  UNL1        0.0000
     26  C         24.4730  -22.1660  -14.3770 C.2     1  UNL1        0.0170
     27  C         24.3510  -22.4520  -15.7670 C.2     1  UNL1        0.0080
     28  C         24.9310  -23.6560  -16.0960 C.2     1  UNL1        0.0500
     29  S         25.6140  -24.4350  -14.7360 S.3     1  UNL1       -0.1050
@<TRIPOS>BOND
     1    28    27    2
     2    28    29    1
     3    27    26    1
     4    29    25    1
     5    26    25    2
     6    25    24    1
     7    24    22    1
     8    23    22    1
     9    22    20   am
    10    20    21    2
    11    20     1    1
    12     6     1    2
    13     6     5    1
    14     1     2    1
    15     5     4    2
    16     9     7    2
    17     2     3    2
    18     4     3    1
    19     4     7    1
    20     7     8    2
    21     7    10    1
    22    10    11    1
    23    10    16    1
    24    11    12    1
    25    19    16    1
    26    19    18    2
    27    16    14    2
    28    18    17    1
    29    12    13    1
    30    14    13    1
    31    14    15    1
    32    17    15    2
