@<TRIPOS>MOLECULE
63093_out_ligand_01.pdbqt
 35 38 0 0 0
SMALL
GASTEIGER

@<TRIPOS>ATOM
      1  C         18.9290  -22.1280  -10.6670 C.2     1  UNL1        0.0320
      2  C         17.5660  -21.8750  -10.4520 C.2     1  UNL1        0.0180
      3  C         16.8780  -22.5560   -9.4440 C.2     1  UNL1        0.0260
      4  C         17.5590  -23.4810   -8.6440 C.2     1  UNL1        0.0750
      5  C         18.9230  -23.7160   -8.8230 C.2     1  UNL1        0.0260
      6  C         19.6040  -23.0420   -9.8400 C.2     1  UNL1        0.0180
      7  C         19.7110  -21.4420  -11.7360 C.2     1  UNL1        0.2510
      8  N         20.9090  -22.0190  -12.1000 N.am    1  UNL1       -0.3540
      9  H         21.3280  -22.7130  -11.4940 H       1  UNL1        0.1620
     10  O         19.3080  -20.3870  -12.2160 O.2     1  UNL1       -0.2680
     11  C         21.8130  -21.3410  -13.0220 C.3     1  UNL1        0.1630
     12  C         23.2580  -21.1280  -12.4570 C.3     1  UNL1        0.2720
     13  N         24.3440  -21.5780  -13.3800 N.3     1  UNL1        0.0900
     14  C         23.8700  -21.7300  -14.7600 C.3     1  UNL1        0.3100
     15  C         25.4630  -20.6200  -13.3770 C.3     1  UNL1        0.3100
     16  C         23.3540  -21.8480  -11.1040 C.2     1  UNL1       -0.0210
     17  C         24.0030  -23.0920  -11.0070 C.2     1  UNL1        0.0090
     18  C         24.1120  -23.7470   -9.7770 C.2     1  UNL1        0.0040
     19  C         23.5760  -23.1640   -8.6310 C.2     1  UNL1        0.0420
     20  C         22.9310  -21.9350   -8.7210 C.2     1  UNL1        0.1170
     21  F         22.4180  -21.3790   -7.6150 F       1  UNL1       -0.2060
     22  C         22.8160  -21.2740   -9.9390 C.2     1  UNL1        0.0510
     23  S         16.6600  -24.3350   -7.3590 S.O2    1  UNL1        0.2480
     24  O         15.5100  -24.9670   -7.9760 O.2     1  UNL1       -0.2050
     25  O         17.6510  -25.1160   -6.6500 O.2     1  UNL1       -0.2050
     26  N         16.0830  -23.0110   -6.3770 N.pl3   1  UNL1       -0.1720
     27  C         14.8600  -23.3990   -5.5990 C.3     1  UNL1        0.1140
     28  C         14.5560  -22.4190   -4.4820 C.3     1  UNL1        0.0200
     29  C         15.7320  -22.3940   -3.5220 C.3     1  UNL1        0.0420
     30  C         16.9750  -22.0030   -4.2700 C.2     1  UNL1       -0.0360
     31  C         17.9950  -21.3320   -3.5730 C.2     1  UNL1        0.0090
     32  C         17.1300  -22.3030   -5.6390 C.2     1  UNL1        0.0310
     33  C         19.1350  -20.8940   -4.2380 C.2     1  UNL1        0.0010
     34  C         19.2570  -21.1070   -5.6060 C.2     1  UNL1        0.0020
     35  C         18.2550  -21.7920   -6.3000 C.2     1  UNL1        0.0250
@<TRIPOS>BOND
     1    14    13    1
     2    13    15    1
     3    13    12    1
     4    11    12    1
     5    11     8    1
     6    12    16    1
     7    10     7    2
     8     8     7   am
     9     8     9    1
    10     7     1    1
    11    16    17    2
    12    16    22    1
    13    17    18    1
    14     1     2    2
    15     1     6    1
    16     2     3    1
    17    22    20    2
    18     6     5    2
    19    18    19    2
    20     3     4    2
    21     5     4    1
    22    20    19    1
    23    20    21    1
    24     4    23    1
    25    24    23    2
    26    23    25    2
    27    23    26    1
    28    26    32    1
    29    26    27    1
    30    35    32    1
    31    35    34    2
    32    32    30    2
    33    34    33    1
    34    27    28    1
    35    28    29    1
    36    30    31    1
    37    30    29    1
    38    33    31    2
