@<TRIPOS>MOLECULE
63098_out_ligand_01.pdbqt
 38 42 0 0 0
SMALL
GASTEIGER

@<TRIPOS>ATOM
      1  C         20.7000  -22.1350  -11.0160 C.2     1  UNL1        0.0320
      2  C         21.3330  -21.7330  -12.2000 C.2     1  UNL1        0.0190
      3  C         22.6630  -22.0910  -12.4390 C.2     1  UNL1        0.0310
      4  C         23.3560  -22.8630  -11.5050 C.2     1  UNL1        0.0420
      5  C         22.7300  -23.2750  -10.3300 C.2     1  UNL1        0.0310
      6  C         21.4010  -22.9190  -10.0900 C.2     1  UNL1        0.0190
      7  N         24.7200  -23.1880  -11.7250 N.pl3   1  UNL1       -0.2810
      8  H         24.9510  -23.6890  -12.5820 H       1  UNL1        0.1790
      9  S         25.8760  -21.9950  -11.4040 S.O2    1  UNL1        0.2630
     10  O         25.1990  -20.9820  -10.6230 O.2     1  UNL1       -0.2000
     11  O         27.0920  -22.6160  -10.9280 O.2     1  UNL1       -0.2000
     12  C         26.1730  -21.3060  -13.0150 C.2     1  UNL1        0.0820
     13  C         26.6620  -22.1430  -14.0480 C.2     1  UNL1        0.0280
     14  C         26.9140  -21.6250  -15.3240 C.2     1  UNL1        0.0330
     15  C         26.6720  -20.2830  -15.5030 C.ar    1  UNL1        0.0630
     16  N         26.8270  -19.4970  -16.6390 N.ar    1  UNL1       -0.3070
     17  C         26.2020  -19.4630  -14.4750 C.ar    1  UNL1        0.0640
     18  C         26.4600  -18.1790  -16.3310 C.ar    1  UNL1        0.3250
     19  H         27.1540  -19.7880  -17.5460 H       1  UNL1        0.1700
     20  O         26.4740  -17.2250  -17.0870 O.2     1  UNL1       -0.2470
     21  N         26.0730  -18.1750  -14.9830 N.ar    1  UNL1       -0.3060
     22  H         25.7650  -17.3500  -14.4950 H       1  UNL1        0.1700
     23  C         25.9460  -19.9370  -13.2140 C.2     1  UNL1        0.0570
     24  C         19.2850  -21.7820  -10.7130 C.2     1  UNL1        0.2510
     25  O         18.7940  -20.7600  -11.1770 O.2     1  UNL1       -0.2680
     26  N         18.5890  -22.6640   -9.9190 N.am    1  UNL1       -0.3540
     27  H         18.9790  -23.5790   -9.7230 H       1  UNL1        0.1620
     28  C         17.1760  -22.4920   -9.6190 C.3     1  UNL1        0.1570
     29  C         16.9260  -22.2290   -8.1300 C.3     1  UNL1        0.1710
     30  C         18.2280  -22.2040   -7.3330 C.3     1  UNL1        0.2090
     31  O         17.9710  -21.8560   -5.9660 O.2     1  UNL1       -0.3460
     32  C         16.9140  -22.5670   -5.4600 C.2     1  UNL1        0.1020
     33  C         16.7720  -22.5770   -4.0730 C.2     1  UNL1        0.0390
     34  C         15.9950  -23.2520   -6.2620 C.2     1  UNL1        0.1020
     35  C         15.7310  -23.2970   -3.4850 C.2     1  UNL1        0.0030
     36  C         14.8300  -24.0020   -4.2850 C.2     1  UNL1        0.0030
     37  C         14.9630  -23.9810   -5.6740 C.2     1  UNL1        0.0390
     38  O         16.0500  -23.2590   -7.6320 O.2     1  UNL1       -0.3390
@<TRIPOS>BOND
     1    19    16    1
     2    20    18    2
     3    16    18   ar
     4    16    15   ar
     5    18    21   ar
     6    15    14    2
     7    15    17   ar
     8    14    13    1
     9    21    22    1
    10    21    17   ar
    11    17    23    2
    12    13    12    2
    13    23    12    1
    14    12     9    1
    15     8     7    1
    16     3     2    1
    17     3     4    2
    18     2     1    2
    19     7     4    1
    20     7     9    1
    21     4     5    1
    22     9    11    2
    23     9    10    2
    24    25    24    2
    25     1    24    1
    26     1     6    1
    27    24    26   am
    28     5     6    2
    29    26    27    1
    30    26    28    1
    31    28    29    1
    32    29    38    1
    33    29    30    1
    34    38    34    1
    35    30    31    1
    36    34    37    1
    37    34    32    2
    38    31    32    1
    39    37    36    2
    40    32    33    1
    41    36    35    1
    42    33    35    2
