@<TRIPOS>MOLECULE
63094_out_ligand_01.pdbqt
 34 38 0 0 0
SMALL
GASTEIGER

@<TRIPOS>ATOM
      1  C         19.7160  -22.8590   -9.7480 C.2     1  UNL1        0.0330
      2  C         19.0080  -22.0150  -10.6170 C.2     1  UNL1        0.0170
      3  C         17.6200  -21.8830  -10.5130 C.2     1  UNL1        0.0030
      4  C         16.9270  -22.5950   -9.5380 C.2     1  UNL1        0.0250
      5  C         17.6330  -23.4370   -8.6720 C.2     1  UNL1        0.0760
      6  C         19.0240  -23.5650   -8.7580 C.2     1  UNL1        0.0410
      7  C         21.1970  -22.9470   -9.9080 C.2     1  UNL1        0.2510
      8  O         21.7920  -23.9460   -9.5190 O.2     1  UNL1       -0.2680
      9  N         21.8280  -21.8580  -10.4780 N.am    1  UNL1       -0.3540
     10  H         21.3070  -21.0090  -10.6430 H       1  UNL1        0.1620
     11  C         23.2820  -21.7720  -10.5380 C.3     1  UNL1        0.1570
     12  C         23.8000  -21.6570  -11.9780 C.3     1  UNL1        0.1710
     13  C         22.6350  -21.5110  -12.9550 C.3     1  UNL1        0.2090
     14  O         23.1180  -21.2850  -14.2850 O.2     1  UNL1       -0.3460
     15  C         24.1270  -22.1570  -14.6050 C.2     1  UNL1        0.1020
     16  C         24.4640  -22.2640  -15.9520 C.2     1  UNL1        0.0390
     17  C         24.8140  -22.9140  -13.6490 C.2     1  UNL1        0.1020
     18  C         25.4660  -23.1490  -16.3500 C.2     1  UNL1        0.0030
     19  C         26.1310  -23.9270  -15.4000 C.2     1  UNL1        0.0030
     20  C         25.8030  -23.8100  -14.0490 C.2     1  UNL1        0.0390
     21  O         24.5630  -22.8320  -12.3060 O.2     1  UNL1       -0.3390
     22  S         16.7300  -24.3430   -7.4290 S.O2    1  UNL1        0.2480
     23  O         15.5800  -24.9350   -8.0830 O.2     1  UNL1       -0.2050
     24  O         17.7200  -25.1640   -6.7660 O.2     1  UNL1       -0.2050
     25  N         16.1490  -23.0710   -6.3850 N.pl3   1  UNL1       -0.1720
     26  C         14.9720  -23.5280   -5.5730 C.3     1  UNL1        0.1140
     27  C         14.5890  -22.5040   -4.5230 C.3     1  UNL1        0.0200
     28  C         15.7450  -22.3450   -3.5550 C.3     1  UNL1        0.0420
     29  C         16.9990  -21.9810   -4.3000 C.2     1  UNL1       -0.0360
     30  C         17.9960  -21.2690   -3.6070 C.2     1  UNL1        0.0090
     31  C         17.1900  -22.3450   -5.6480 C.2     1  UNL1        0.0310
     32  C         19.1510  -20.8520   -4.2590 C.2     1  UNL1        0.0010
     33  C         19.3070  -21.1230   -5.6100 C.2     1  UNL1        0.0020
     34  C         18.3260  -21.8440   -6.3000 C.2     1  UNL1        0.0250
@<TRIPOS>BOND
     1    18    16    1
     2    18    19    2
     3    16    15    2
     4    19    20    1
     5    15    14    1
     6    15    17    1
     7    14    13    1
     8    20    17    2
     9    17    21    1
    10    13    12    1
    11    21    12    1
    12    12    11    1
    13    10     9    1
    14     2     3    1
    15     2     1    2
    16    11     9    1
    17     3     4    2
    18     9     7   am
    19     7     1    1
    20     7     8    2
    21     1     6    1
    22     4     5    1
    23     6     5    2
    24     5    22    1
    25    23    22    2
    26    22    24    2
    27    22    25    1
    28    25    31    1
    29    25    26    1
    30    34    31    1
    31    34    33    2
    32    31    29    2
    33    33    32    1
    34    26    27    1
    35    27    28    1
    36    29    30    1
    37    29    28    1
    38    32    30    2
