@<TRIPOS>MOLECULE
63108_out_ligand_01.pdbqt
 35 38 0 0 0
SMALL
GASTEIGER

@<TRIPOS>ATOM
      1  C         21.0140  -21.9010  -10.7160 C.2     1  UNL1        0.0770
      2  C         20.6130  -21.0590  -11.7550 C.2     1  UNL1        0.0250
      3  C         19.2570  -20.9500  -12.0490 C.2     1  UNL1        0.0040
      4  C         18.3130  -21.6720  -11.3080 C.2     1  UNL1        0.0290
      5  C         18.7120  -22.5050  -10.2590 C.2     1  UNL1        0.0360
      6  C         20.0750  -22.6110   -9.9600 C.2     1  UNL1        0.0540
      7  N         17.8240  -23.2600   -9.4650 N.am    1  UNL1       -0.3270
      8  C         16.4700  -23.0410   -9.2700 C.2     1  UNL1        0.2220
      9  O         15.7910  -22.1660   -9.8010 O.2     1  UNL1       -0.2730
     10  H         18.2360  -24.0370   -8.9630 H       1  UNL1        0.1690
     11  C         15.8410  -24.0710   -8.3450 C.3     1  UNL1        0.1080
     12  C         16.8490  -24.5980   -7.3250 C.3     1  UNL1        0.0500
     13  C         16.8830  -23.7580   -6.0840 C.2     1  UNL1       -0.0300
     14  C         16.0070  -23.8450   -5.0180 C.2     1  UNL1        0.0960
     15  N         16.3530  -22.8980   -4.0940 N.pl3   1  UNL1       -0.3650
     16  C         17.4410  -22.1800   -4.5350 C.2     1  UNL1        0.0420
     17  H         15.8760  -22.7350   -3.2200 H       1  UNL1        0.1650
     18  C         18.1240  -21.1170   -3.9310 C.2     1  UNL1        0.0300
     19  C         17.8020  -22.7010   -5.7780 C.2     1  UNL1       -0.0020
     20  C         19.2100  -20.5680   -4.6210 C.2     1  UNL1        0.0020
     21  C         19.5970  -21.0680   -5.8630 C.2     1  UNL1        0.0010
     22  C         18.9030  -22.1310   -6.4520 C.2     1  UNL1        0.0140
     23  S         22.7430  -22.0570  -10.3430 S.O2    1  UNL1        0.2460
     24  O         23.0320  -23.4520  -10.0850 O.2     1  UNL1       -0.2060
     25  O         23.0560  -21.0360   -9.3650 O.2     1  UNL1       -0.2060
     26  N         23.4700  -21.5720  -11.7980 N.pl3   1  UNL1       -0.1790
     27  H         23.5290  -20.5500  -11.7950 H       1  UNL1        0.1460
     28  C         24.7130  -22.2040  -12.1300 C.2     1  UNL1        0.0560
     29  C         24.7110  -23.4100  -12.8320 C.2     1  UNL1        0.0270
     30  C         25.9180  -24.0550  -13.0990 C.2     1  UNL1        0.0020
     31  C         27.1180  -23.4970  -12.6600 C.2     1  UNL1        0.0030
     32  C         27.1210  -22.2910  -11.9490 C.2     1  UNL1        0.0380
     33  C         25.9170  -21.6420  -11.6690 C.2     1  UNL1        0.0900
     34  O         25.8010  -20.4510  -10.9970 O.2     1  UNL1       -0.3540
     35  C         26.6980  -19.4210  -11.3940 C.3     1  UNL1        0.2100
@<TRIPOS>BOND
     1    30    29    1
     2    30    31    2
     3    29    28    2
     4    31    32    1
     5    28    26    1
     6    28    33    1
     7     3     2    1
     8     3     4    2
     9    32    33    2
    10    26    27    1
    11    26    23    1
    12     2     1    2
    13    33    34    1
    14    35    34    1
    15     4     5    1
    16     1    23    1
    17     1     6    1
    18    23    24    2
    19    23    25    2
    20     5     6    2
    21     5     7    1
    22     9     8    2
    23     7     8   am
    24     7    10    1
    25     8    11    1
    26    11    12    1
    27    12    13    1
    28    22    21    2
    29    22    19    1
    30    13    19    1
    31    13    14    2
    32    21    20    1
    33    19    16    2
    34    14    15    1
    35    20    18    2
    36    16    15    1
    37    16    18    1
    38    15    17    1
