@<TRIPOS>MOLECULE
63109_out_ligand_01.pdbqt
 30 32 0 0 0
SMALL
GASTEIGER

@<TRIPOS>ATOM
      1  C         17.2760  -22.5080   -9.3560 C.2     1  UNL1        0.0770
      2  C         16.5570  -21.7490  -10.2790 C.2     1  UNL1        0.0250
      3  C         17.2390  -21.1290  -11.3220 C.2     1  UNL1        0.0040
      4  C         18.6250  -21.2790  -11.4460 C.2     1  UNL1        0.0290
      5  C         19.3450  -22.0570  -10.5340 C.2     1  UNL1        0.0360
      6  C         18.6590  -22.6860   -9.4910 C.2     1  UNL1        0.0540
      7  S         16.4320  -23.2900   -8.0000 S.O2    1  UNL1        0.2460
      8  O         15.5740  -22.3050   -7.3770 O.2     1  UNL1       -0.2060
      9  O         15.8930  -24.5390   -8.5000 O.2     1  UNL1       -0.2060
     10  N         17.6870  -23.7030   -6.9390 N.pl3   1  UNL1       -0.1790
     11  H         18.5280  -23.9430   -7.4660 H       1  UNL1        0.1460
     12  C         17.9520  -22.8080   -5.8520 C.2     1  UNL1        0.0560
     13  C         18.7920  -21.7100   -6.0410 C.2     1  UNL1        0.0270
     14  C         19.0870  -20.8720   -4.9680 C.2     1  UNL1        0.0020
     15  C         18.5470  -21.1370   -3.7100 C.2     1  UNL1        0.0030
     16  C         17.7100  -22.2400   -3.5150 C.2     1  UNL1        0.0380
     17  C         17.4140  -23.0900   -4.5830 C.2     1  UNL1        0.0900
     18  O         16.6130  -24.2030   -4.5100 O.2     1  UNL1       -0.3540
     19  C         15.2290  -23.9670   -4.2690 C.3     1  UNL1        0.2100
     20  N         20.7380  -22.2670  -10.6070 N.am    1  UNL1       -0.3230
     21  C         21.5610  -22.0340  -11.6940 C.2     1  UNL1        0.2560
     22  O         21.2450  -21.4990  -12.7490 O.2     1  UNL1       -0.2670
     23  H         21.1850  -22.5530   -9.7450 H       1  UNL1        0.1690
     24  C         22.9850  -22.4380  -11.5020 C.2     1  UNL1        0.0320
     25  C         23.4130  -22.7760  -10.2100 C.2     1  UNL1        0.0200
     26  C         24.7380  -23.1580   -9.9900 C.2     1  UNL1        0.0430
     27  C         25.6290  -23.1870  -11.0570 C.2     1  UNL1        0.1160
     28  F         26.9000  -23.5510  -10.8460 F       1  UNL1       -0.2060
     29  C         25.2230  -22.8360  -12.3410 C.2     1  UNL1        0.0430
     30  C         23.8970  -22.4540  -12.5670 C.2     1  UNL1        0.0200
@<TRIPOS>BOND
     1    22    21    2
     2    30    29    1
     3    30    24    2
     4    29    27    2
     5    21    24    1
     6    21    20   am
     7    24    25    1
     8     4     3    2
     9     4     5    1
    10     3     2    1
    11    27    28    1
    12    27    26    1
    13    20     5    1
    14    20    23    1
    15     5     6    2
    16     2     1    2
    17    25    26    2
    18     6     1    1
    19     1     7    1
    20     9     7    2
    21     7     8    2
    22     7    10    1
    23    11    10    1
    24    10    12    1
    25    13    12    2
    26    13    14    1
    27    12    17    1
    28    14    15    2
    29    17    18    1
    30    17    16    2
    31    18    19    1
    32    15    16    1
