@<TRIPOS>MOLECULE
63107_out_ligand_01.pdbqt
 31 34 0 0 0
SMALL
GASTEIGER

@<TRIPOS>ATOM
      1  C         18.9230  -22.0980  -10.5710 C.2     1  UNL1        0.0320
      2  C         17.5390  -21.9420  -10.4110 C.2     1  UNL1        0.0180
      3  C         16.8650  -22.6550   -9.4150 C.2     1  UNL1        0.0260
      4  C         17.5800  -23.5210   -8.5800 C.2     1  UNL1        0.0750
      5  C         18.9630  -23.6630   -8.7110 C.2     1  UNL1        0.0260
      6  C         19.6310  -22.9500   -9.7090 C.2     1  UNL1        0.0180
      7  S         16.6980  -24.4140   -7.3090 S.O2    1  UNL1        0.2480
      8  O         15.5530  -25.0470   -7.9330 O.2     1  UNL1       -0.2050
      9  O         17.7080  -25.1990   -6.6290 O.2     1  UNL1       -0.2050
     10  N         16.1100  -23.1240   -6.2910 N.pl3   1  UNL1       -0.1720
     11  C         14.9500  -23.5800   -5.4530 C.3     1  UNL1        0.1140
     12  C         14.5770  -22.5460   -4.4080 C.3     1  UNL1        0.0200
     13  C         15.7480  -22.3660   -3.4630 C.3     1  UNL1        0.0420
     14  C         16.9820  -21.9930   -4.2360 C.2     1  UNL1       -0.0360
     15  C         17.9840  -21.2610   -3.5700 C.2     1  UNL1        0.0090
     16  C         17.1540  -22.3720   -5.5830 C.2     1  UNL1        0.0310
     17  C         19.1210  -20.8370   -4.2490 C.2     1  UNL1        0.0010
     18  C         19.2550  -21.1250   -5.6000 C.2     1  UNL1        0.0020
     19  C         18.2710  -21.8690   -6.2620 C.2     1  UNL1        0.0250
     20  C         19.6920  -21.3640  -11.6160 C.2     1  UNL1        0.2510
     21  O         19.2050  -20.3760  -12.1550 O.2     1  UNL1       -0.2680
     22  N         20.9550  -21.8310  -11.8990 N.am    1  UNL1       -0.3530
     23  H         21.3200  -22.6550  -11.4440 H       1  UNL1        0.1630
     24  C         21.7350  -21.2620  -12.9760 C.3     1  UNL1        0.1640
     25  C         23.1430  -21.7800  -12.9490 C.2     1  UNL1       -0.0020
     26  C         23.5610  -22.6610  -11.9390 C.2     1  UNL1        0.0120
     27  C         24.8680  -23.1550  -11.9290 C.2     1  UNL1        0.0010
     28  C         25.7670  -22.7840  -12.9290 C.2     1  UNL1        0.0030
     29  C         25.3600  -21.9160  -13.9410 C.2     1  UNL1        0.0430
     30  C         24.0570  -21.4260  -13.9450 C.2     1  UNL1        0.1240
     31  F         23.6810  -20.6060  -14.9360 F       1  UNL1       -0.2050
@<TRIPOS>BOND
     1    31    30    1
     2    30    29    1
     3    30    25    2
     4    29    28    2
     5    24    25    1
     6    24    22    1
     7    25    26    1
     8    28    27    1
     9    21    20    2
    10    26    27    2
    11    22    20   am
    12    22    23    1
    13    20     1    1
    14     1     2    2
    15     1     6    1
    16     2     3    1
    17     6     5    2
    18     3     4    2
    19     5     4    1
    20     4     7    1
    21     8     7    2
    22     7     9    2
    23     7    10    1
    24    10    16    1
    25    10    11    1
    26    19    18    2
    27    19    16    1
    28    18    17    1
    29    16    14    2
    30    11    12    1
    31    12    13    1
    32    17    15    2
    33    14    15    1
    34    14    13    1
