@<TRIPOS>MOLECULE
6311_out_ligand_01.pdbqt
 36 39 0 0 0
SMALL
GASTEIGER

@<TRIPOS>ATOM
      1  C         20.8120  -22.5560  -10.7420 C.2     1  UNL1        0.0340
      2  C         20.5680  -23.5790   -9.8140 C.2     1  UNL1        0.0310
      3  C         19.2970  -23.7530   -9.2590 C.2     1  UNL1        0.0270
      4  C         18.2650  -22.8910   -9.6290 C.2     1  UNL1        0.0800
      5  C         18.4870  -21.8790  -10.5640 C.2     1  UNL1        0.0270
      6  C         19.7620  -21.7120  -11.1140 C.2     1  UNL1        0.0310
      7  N         22.1180  -22.4530  -11.2520 N.am    1  UNL1       -0.3250
      8  C         23.1910  -21.7610  -10.7180 C.2     1  UNL1        0.2510
      9  O         23.1990  -21.1060   -9.6790 O.2     1  UNL1       -0.2700
     10  H         22.3370  -23.0160  -12.0690 H       1  UNL1        0.1690
     11  C         24.4500  -21.8460  -11.6020 C.3     1  UNL1        0.2170
     12  C         25.6770  -21.8470  -10.6950 C.3     1  UNL1        0.0500
     13  O         24.5870  -20.7280  -12.4800 O.2     1  UNL1       -0.3370
     14  C         24.8040  -20.9670  -13.8080 C.2     1  UNL1        0.0700
     15  C         25.4600  -20.1240  -14.7060 C.2     1  UNL1        0.0390
     16  C         25.6280  -20.5080  -16.0450 C.2     1  UNL1        0.0390
     17  C         25.1420  -21.7350  -16.4950 C.2     1  UNL1        0.0680
     18  C         24.4900  -22.5780  -15.5940 C.2     1  UNL1        0.0390
     19  C         24.3240  -22.1980  -14.2610 C.2     1  UNL1        0.0390
     20  O         25.2420  -22.2250  -17.7680 O.2     1  UNL1       -0.3560
     21  C         24.2960  -23.2140  -18.1530 C.3     1  UNL1        0.2100
     22  S         16.6430  -23.1080   -8.9430 S.O2    1  UNL1        0.2630
     23  O         15.8250  -23.8210   -9.9000 O.2     1  UNL1       -0.2000
     24  O         16.2230  -21.8250   -8.4180 O.2     1  UNL1       -0.2000
     25  N         16.9380  -24.0830   -7.5970 N.pl3   1  UNL1       -0.2800
     26  H         17.7810  -24.6420   -7.7170 H       1  UNL1        0.1790
     27  C         16.6920  -23.5380   -6.2990 C.2     1  UNL1        0.0530
     28  C         15.5550  -23.9840   -5.6190 C.2     1  UNL1        0.0310
     29  C         15.2560  -23.4850   -4.3560 C.2     1  UNL1        0.0030
     30  C         16.0940  -22.5390   -3.7690 C.2     1  UNL1        0.0120
     31  C         17.2390  -22.0720   -4.4360 C.2     1  UNL1       -0.0240
     32  C         18.0730  -21.1160   -3.8320 C.2     1  UNL1        0.0120
     33  C         17.5520  -22.5660   -5.7270 C.2     1  UNL1        0.0010
     34  C         19.2080  -20.6380   -4.4850 C.2     1  UNL1        0.0010
     35  C         19.5250  -21.1060   -5.7540 C.2     1  UNL1        0.0010
     36  C         18.7080  -22.0580   -6.3680 C.2     1  UNL1        0.0140
@<TRIPOS>BOND
     1    21    20    1
     2    20    17    1
     3    17    16    2
     4    17    18    1
     5    16    15    1
     6    18    19    2
     7    15    14    2
     8    19    14    1
     9    14    13    1
    10    13    11    1
    11    10     7    1
    12    11     8    1
    13    11    12    1
    14     7     1    1
    15     7     8   am
    16     6     1    2
    17     6     5    1
    18     1     2    1
    19     8     9    2
    20     5     4    2
    21    23    22    2
    22     2     3    2
    23     4     3    1
    24     4    22    1
    25    22    24    2
    26    22    25    1
    27    26    25    1
    28    25    27    1
    29    36    35    2
    30    36    33    1
    31    27    33    2
    32    27    28    1
    33    35    34    1
    34    33    31    1
    35    28    29    2
    36    34    32    2
    37    31    32    1
    38    31    30    2
    39    29    30    1
