@<TRIPOS>MOLECULE
63118_out_ligand_01.pdbqt
 36 39 0 0 0
SMALL
GASTEIGER

@<TRIPOS>ATOM
      1  C         20.0310  -22.6390  -10.1760 C.2     1  UNL1        0.0320
      2  C         18.6860  -22.2560  -10.2960 C.2     1  UNL1        0.0180
      3  C         17.7230  -22.7580   -9.4170 C.2     1  UNL1        0.0260
      4  C         18.1130  -23.6440   -8.4110 C.2     1  UNL1        0.0800
      5  C         19.4450  -24.0520   -8.2920 C.2     1  UNL1        0.0260
      6  C         20.4030  -23.5520   -9.1780 C.2     1  UNL1        0.0180
      7  C         21.0120  -22.0710  -11.1470 C.2     1  UNL1        0.2510
      8  N         22.3320  -22.4190  -10.9670 N.am    1  UNL1       -0.3540
      9  H         22.6150  -22.8160  -10.0800 H       1  UNL1        0.1620
     10  O         20.6340  -21.3100  -12.0310 O.2     1  UNL1       -0.2680
     11  C         23.3800  -21.8050  -11.7730 C.3     1  UNL1        0.1630
     12  C         24.5820  -22.7460  -12.1200 C.3     1  UNL1        0.2720
     13  C         24.7580  -23.0410  -13.6250 C.2     1  UNL1       -0.0210
     14  C         25.1790  -24.3100  -14.0590 C.2     1  UNL1        0.0090
     15  C         25.3180  -24.6040  -15.4160 C.2     1  UNL1        0.0030
     16  C         25.0170  -23.6420  -16.3790 C.2     1  UNL1        0.0370
     17  C         24.5630  -22.3870  -15.9840 C.2     1  UNL1        0.0680
     18  C         24.4240  -22.1010  -14.6180 C.2     1  UNL1        0.0460
     19  O         24.2220  -21.3560  -16.8160 O.2     1  UNL1       -0.3560
     20  C         25.1090  -21.0820  -17.8920 C.3     1  UNL1        0.2100
     21  N         25.8730  -22.3730  -11.4710 N.3     1  UNL1        0.0900
     22  C         26.3140  -23.3720  -10.4990 C.3     1  UNL1        0.3100
     23  C         25.8920  -21.0410  -10.8720 C.3     1  UNL1        0.3100
     24  S         16.9060  -24.3060   -7.2740 S.O2    1  UNL1        0.2650
     25  O         17.6670  -25.0720   -6.3090 O.2     1  UNL1       -0.2000
     26  O         15.8610  -24.9280   -8.0620 O.2     1  UNL1       -0.2000
     27  N         16.2700  -22.8700   -6.5510 N.pl3   1  UNL1       -0.2710
     28  C         14.8480  -22.9560   -6.1100 C.3     1  UNL1        0.1420
     29  C         14.7430  -23.4740   -4.6850 C.3     1  UNL1        0.0260
     30  C         15.4710  -22.5440   -3.7300 C.3     1  UNL1        0.0420
     31  C         16.8110  -22.0980   -4.2520 C.2     1  UNL1       -0.0310
     32  C         17.7010  -21.4730   -3.3620 C.2     1  UNL1        0.0090
     33  C         17.1580  -22.2170   -5.6080 C.2     1  UNL1        0.0510
     34  C         18.9200  -20.9700   -3.8130 C.2     1  UNL1        0.0010
     35  C         19.2530  -21.0700   -5.1590 C.2     1  UNL1        0.0020
     36  C         18.3740  -21.6840   -6.0520 C.2     1  UNL1        0.0310
@<TRIPOS>BOND
     1    20    19    1
     2    19    17    1
     3    16    17    2
     4    16    15    1
     5    17    18    1
     6    15    14    2
     7    18    13    2
     8    14    13    1
     9    13    12    1
    10    12    11    1
    11    12    21    1
    12    10     7    2
    13    11     8    1
    14    21    23    1
    15    21    22    1
    16     7     8   am
    17     7     1    1
    18     8     9    1
    19     2     1    2
    20     2     3    1
    21     1     6    1
    22     3     4    2
    23     6     5    2
    24     4     5    1
    25     4    24    1
    26    26    24    2
    27    24    27    1
    28    24    25    2
    29    27    28    1
    30    27    33    1
    31    28    29    1
    32    36    33    1
    33    36    35    2
    34    33    31    2
    35    35    34    1
    36    29    30    1
    37    31    30    1
    38    31    32    1
    39    34    32    2
