@<TRIPOS>MOLECULE
63113_out_ligand_01.pdbqt
 33 36 0 0 0
SMALL
GASTEIGER

@<TRIPOS>ATOM
      1  C         17.3310  -22.6170   -9.4210 C.2     1  UNL1        0.0770
      2  C         16.6290  -21.7680  -10.2790 C.2     1  UNL1        0.0250
      3  C         17.3020  -21.1610  -11.3350 C.2     1  UNL1        0.0040
      4  C         18.6650  -21.4080  -11.5260 C.2     1  UNL1        0.0290
      5  C         19.3710  -22.2650  -10.6680 C.2     1  UNL1        0.0360
      6  C         18.6970  -22.8660   -9.6060 C.2     1  UNL1        0.0540
      7  N         20.7410  -22.4560  -10.9370 N.am    1  UNL1       -0.3230
      8  C         21.8080  -22.1580  -10.1110 C.2     1  UNL1        0.2570
      9  O         21.7690  -21.7440   -8.9600 O.2     1  UNL1       -0.2670
     10  H         20.9680  -22.8880  -11.8250 H       1  UNL1        0.1690
     11  C         23.1310  -22.4610  -10.7100 C.2     1  UNL1        0.0430
     12  C         24.0510  -23.1110   -9.8760 C.2     1  UNL1        0.0180
     13  C         25.2900  -23.4900  -10.3770 C.2     1  UNL1        0.0020
     14  C         25.6120  -23.2190  -11.7060 C.2     1  UNL1        0.0120
     15  C         24.7110  -22.5460  -12.5500 C.2     1  UNL1       -0.0250
     16  C         25.0650  -22.2670  -13.8810 C.2     1  UNL1        0.0120
     17  C         23.4480  -22.1390  -12.0560 C.2     1  UNL1       -0.0100
     18  C         24.1970  -21.5770  -14.7270 C.2     1  UNL1        0.0010
     19  C         22.9650  -21.1490  -14.2500 C.2     1  UNL1        0.0010
     20  C         22.5950  -21.4210  -12.9320 C.2     1  UNL1        0.0130
     21  S         16.4900  -23.3930   -8.0630 S.O2    1  UNL1        0.2460
     22  O         15.6980  -22.3660   -7.4210 O.2     1  UNL1       -0.2060
     23  O         15.8790  -24.6150   -8.5430 O.2     1  UNL1       -0.2060
     24  N         17.7640  -23.7620   -7.0090 N.pl3   1  UNL1       -0.1790
     25  H         18.5970  -23.9680   -7.5660 H       1  UNL1        0.1460
     26  C         17.9980  -22.8410   -5.9400 C.2     1  UNL1        0.0560
     27  C         18.8390  -21.7460   -6.1390 C.2     1  UNL1        0.0270
     28  C         19.1150  -20.8860   -5.0770 C.2     1  UNL1        0.0020
     29  C         18.5550  -21.1270   -3.8220 C.2     1  UNL1        0.0030
     30  C         17.7180  -22.2300   -3.6190 C.2     1  UNL1        0.0380
     31  C         17.4430  -23.1010   -4.6750 C.2     1  UNL1        0.0900
     32  O         16.6260  -24.2020   -4.5950 O.2     1  UNL1       -0.3540
     33  C         15.2620  -23.9490   -4.2780 C.3     1  UNL1        0.2100
@<TRIPOS>BOND
     1    18    19    1
     2    18    16    2
     3    19    20    2
     4    16    15    1
     5    20    17    1
     6    15    17    1
     7    15    14    2
     8    17    11    2
     9    10     7    1
    10    14    13    1
    11     4     3    2
    12     4     5    1
    13     3     2    1
    14     7     5    1
    15     7     8   am
    16    11     8    1
    17    11    12    1
    18     5     6    2
    19    13    12    2
    20     2     1    2
    21     8     9    2
    22     6     1    1
    23     1    21    1
    24    23    21    2
    25    21    22    2
    26    21    24    1
    27    25    24    1
    28    24    26    1
    29    27    26    2
    30    27    28    1
    31    26    31    1
    32    28    29    2
    33    31    32    1
    34    31    30    2
    35    32    33    1
    36    29    30    1
