@<TRIPOS>MOLECULE
63128_out_ligand_01.pdbqt
 32 34 0 0 0
SMALL
GASTEIGER

@<TRIPOS>ATOM
      1  C         18.7040  -22.9140   -9.6030 C.2     1  UNL1        0.0510
      2  C         18.3280  -23.4930   -8.3800 C.2     1  UNL1        0.0430
      3  C         17.0160  -23.3510   -7.9180 C.2     1  UNL1        0.0800
      4  C         16.0660  -22.6580   -8.6680 C.2     1  UNL1        0.0270
      5  C         16.4340  -22.1010   -9.8950 C.2     1  UNL1        0.0210
      6  C         17.7480  -22.2290  -10.3680 C.2     1  UNL1        0.0260
      7 BR         18.1140  -21.4920  -12.0800 Br      1  UNL1       -0.0500
      8  C         20.1240  -23.0960  -10.0040 C.2     1  UNL1        0.2570
      9  N         20.7730  -21.9410  -10.3920 N.am    1  UNL1       -0.3230
     10  H         20.2250  -21.0880  -10.4060 H       1  UNL1        0.1690
     11  O         20.6080  -24.2150   -9.8930 O.2     1  UNL1       -0.2670
     12  C         22.1140  -21.8090  -10.8090 C.2     1  UNL1        0.0350
     13  C         23.2000  -21.7340   -9.9370 C.2     1  UNL1        0.0290
     14  C         24.5030  -21.6190  -10.4300 C.2     1  UNL1        0.0030
     15  C         24.7340  -21.5670  -11.8050 C.2     1  UNL1        0.0170
     16  C         23.6530  -21.6210  -12.6900 C.2     1  UNL1        0.0340
     17  C         22.3500  -21.7550  -12.1880 C.2     1  UNL1        0.0460
     18  C         23.8290  -21.5670  -14.1690 C.2     1  UNL1        0.2510
     19  N         24.7860  -22.4000  -14.7090 N.am    1  UNL1       -0.3570
     20  H         25.3870  -22.9420  -14.1060 H       1  UNL1        0.1620
     21  O         23.1590  -20.7870  -14.8350 O.2     1  UNL1       -0.2680
     22  C         25.0450  -22.4350  -16.1340 C.3     1  UNL1        0.1180
     23  C         24.3810  -23.6280  -16.7950 C.3     1  UNL1        0.0260
     24  S         16.5710  -24.0800   -6.3610 S.O2    1  UNL1        0.2600
     25  O         17.5360  -25.1230   -6.0960 O.2     1  UNL1       -0.2000
     26  O         15.1490  -24.3540   -6.3780 O.2     1  UNL1       -0.2000
     27  N         16.8310  -22.7980   -5.2620 N.3     1  UNL1       -0.3070
     28  C         17.4460  -23.1790   -3.9600 C.3     1  UNL1        0.1350
     29  C         17.7910  -21.9330   -3.1530 C.3     1  UNL1        0.0210
     30  C         18.8380  -21.0800   -3.8660 C.3     1  UNL1        0.0030
     31  C         18.8070  -21.2710   -5.3810 C.3     1  UNL1        0.0210
     32  C         17.3990  -21.5630   -5.8820 C.3     1  UNL1        0.1350
@<TRIPOS>BOND
     1    23    22    1
     2    22    19    1
     3    21    18    2
     4    19    18   am
     5    19    20    1
     6    18    16    1
     7    16    17    1
     8    16    15    2
     9    17    12    2
    10     7     6    1
    11    15    14    1
    12    12     9    1
    13    12    13    1
    14    14    13    2
    15    10     9    1
    16     9     8   am
    17     6     5    1
    18     6     1    2
    19     8    11    2
    20     8     1    1
    21     5     4    2
    22     1     2    1
    23     4     3    1
    24     2     3    2
    25     3    24    1
    26    26    24    2
    27    24    25    2
    28    24    27    1
    29    32    31    1
    30    32    27    1
    31    31    30    1
    32    27    28    1
    33    28    29    1
    34    30    29    1
