@<TRIPOS>MOLECULE
63133_out_ligand_01.pdbqt
 32 35 0 0 0
SMALL
GASTEIGER

@<TRIPOS>ATOM
      1  C         22.3520  -22.1160  -11.9860 C.2     1  UNL1        0.0340
      2  C         21.2280  -21.3870  -12.4000 C.2     1  UNL1        0.0300
      3  C         20.0230  -21.4550  -11.6910 C.2     1  UNL1        0.0190
      4  C         19.9330  -22.2520  -10.5440 C.2     1  UNL1        0.0320
      5  C         21.0450  -22.9940  -10.1360 C.2     1  UNL1        0.0190
      6  C         22.2480  -22.9200  -10.8490 C.2     1  UNL1        0.0300
      7  C         18.6690  -22.3620   -9.7620 C.2     1  UNL1        0.2560
      8  O         17.6550  -21.8610  -10.2280 O.2     1  UNL1       -0.2670
      9  N         18.7790  -23.0860   -8.5880 N.am    1  UNL1       -0.3220
     10  H         19.6400  -23.5950   -8.4640 H       1  UNL1        0.1690
     11  C         17.7870  -23.2700   -7.5870 C.2     1  UNL1        0.0470
     12  C         16.6860  -24.1040   -7.8070 C.2     1  UNL1        0.0300
     13  C         15.6990  -24.2460   -6.8370 C.2     1  UNL1        0.0050
     14  C         15.8050  -23.5500   -5.6370 C.2     1  UNL1        0.0320
     15  C         16.8730  -22.7120   -5.3720 C.2     1  UNL1        0.0690
     16  N         16.8820  -22.0840   -4.1820 N.2     1  UNL1       -0.2600
     17  C         17.8910  -22.5570   -6.3460 C.2     1  UNL1        0.0190
     18  C         17.9130  -21.2700   -3.8910 C.2     1  UNL1        0.1170
     19  C         18.9660  -21.0430   -4.7500 C.2     1  UNL1        0.0200
     20  C         18.9530  -21.6920   -5.9820 C.2     1  UNL1        0.0170
     21  N         23.5270  -21.9780  -12.7530 N.am    1  UNL1       -0.3270
     22  C         24.7550  -21.4790  -12.3370 C.2     1  UNL1        0.2310
     23  O         25.0330  -21.1090  -11.1970 O.2     1  UNL1       -0.2720
     24  H         23.4690  -22.3260  -13.7050 H       1  UNL1        0.1690
     25  C         25.7800  -21.4220  -13.4670 C.3     1  UNL1        0.1850
     26  S         25.3980  -20.0780  -14.6290 S.3     1  UNL1       -0.0800
     27  C         24.8110  -21.0160  -15.9490 C.ar    1  UNL1        0.1980
     28  N         24.1830  -22.1670  -15.8630 N.ar    1  UNL1       -0.1350
     29  N         23.9090  -22.5400  -17.1610 N.ar    1  UNL1        0.0180
     30  N         24.3900  -21.6550  -18.0240 N.ar    1  UNL1       -0.0030
     31  N         24.9720  -20.7010  -17.2670 N.ar    1  UNL1       -0.2590
     32  C         25.6740  -19.6170  -17.8950 C.3     1  UNL1        0.1770
@<TRIPOS>BOND
     1    30    31   ar
     2    30    29   ar
     3    32    31    1
     4    31    27   ar
     5    29    28   ar
     6    27    28   ar
     7    27    26    1
     8    26    25    1
     9    24    21    1
    10    25    22    1
    11    21    22   am
    12    21     1    1
    13     2     1    2
    14     2     3    1
    15    22    23    2
    16     1     6    1
    17     3     4    2
    18     6     5    2
    19     4     5    1
    20     4     7    1
    21     8     7    2
    22     7     9   am
    23     9    10    1
    24     9    11    1
    25    12    11    2
    26    12    13    1
    27    11    17    1
    28    13    14    2
    29    17    20    1
    30    17    15    2
    31    20    19    2
    32    14    15    1
    33    15    16    1
    34    19    18    1
    35    16    18    2
