@<TRIPOS>MOLECULE
63130_out_ligand_01.pdbqt
 31 33 0 0 0
SMALL
GASTEIGER

@<TRIPOS>ATOM
      1  C         19.2550  -22.5890   -6.8870 C.2     1  UNL1        0.0260
      2  C         19.9750  -21.4180   -6.5960 C.2     1  UNL1        0.0200
      3  C         19.6900  -20.6700   -5.4540 C.2     1  UNL1        0.0010
      4  C         18.6710  -21.0710   -4.5950 C.2     1  UNL1        0.0020
      5  C         17.9320  -22.2190   -4.8820 C.2     1  UNL1        0.0240
      6  C         18.2160  -22.9810   -6.0260 C.2     1  UNL1        0.0610
      7  C         17.4110  -24.1400   -6.2870 C.1     1  UNL1        0.1010
      8  N         16.7560  -25.0750   -6.4990 N.1     1  UNL1       -0.1910
      9  S         19.6890  -23.4870   -8.3770 S.3     1  UNL1       -0.0880
     10  C         18.8820  -22.4710   -9.6170 C.2     1  UNL1        0.0210
     11  C         17.4840  -22.3620   -9.5370 C.2     1  UNL1        0.0200
     12  C         16.7650  -21.6370  -10.4900 C.2     1  UNL1        0.0010
     13  C         17.4320  -21.0060  -11.5360 C.2     1  UNL1        0.0010
     14  C         18.8210  -21.0870  -11.6200 C.2     1  UNL1        0.0180
     15  C         19.5520  -21.7990  -10.6560 C.2     1  UNL1        0.0490
     16  C         21.0290  -21.7880  -10.8140 C.2     1  UNL1        0.2570
     17  N         21.4800  -22.1540  -12.0660 N.am    1  UNL1       -0.3230
     18  H         20.7680  -22.4130  -12.7420 H       1  UNL1        0.1690
     19  O         21.7110  -21.5090   -9.8370 O.2     1  UNL1       -0.2670
     20  C         22.8080  -22.1660  -12.5350 C.2     1  UNL1        0.0350
     21  C         23.7110  -22.9970  -11.8580 C.2     1  UNL1        0.0290
     22  C         25.0430  -23.0910  -12.2670 C.2     1  UNL1        0.0030
     23  C         25.4870  -22.3520  -13.3590 C.2     1  UNL1        0.0170
     24  C         24.5950  -21.5160  -14.0420 C.2     1  UNL1        0.0340
     25  C         23.2560  -21.4300  -13.6350 C.2     1  UNL1        0.0460
     26  C         25.0330  -20.7370  -15.2320 C.2     1  UNL1        0.2510
     27  N         26.1740  -19.9770  -15.0660 N.am    1  UNL1       -0.3570
     28  H         26.4570  -19.7720  -14.1180 H       1  UNL1        0.1620
     29  O         24.3880  -20.7800  -16.2710 O.2     1  UNL1       -0.2680
     30  C         26.6010  -19.0610  -16.1010 C.3     1  UNL1        0.1180
     31  C         26.5760  -17.6280  -15.6110 C.3     1  UNL1        0.0260
@<TRIPOS>BOND
     1    29    26    2
     2    30    31    1
     3    30    27    1
     4    26    27   am
     5    26    24    1
     6    27    28    1
     7    24    25    1
     8    24    23    2
     9    25    20    2
    10    23    22    1
    11    18    17    1
    12    20    17    1
    13    20    21    1
    14    22    21    2
    15    17    16   am
    16    14    13    2
    17    14    15    1
    18    13    12    1
    19    16    15    1
    20    16    19    2
    21    15    10    2
    22    12    11    2
    23    10    11    1
    24    10     9    1
    25     9     1    1
    26     1     2    2
    27     1     6    1
    28     2     3    1
    29     8     7    3
    30     7     6    1
    31     6     5    2
    32     3     4    2
    33     5     4    1
