@<TRIPOS>MOLECULE
63143_out_ligand_01.pdbqt
 31 34 0 0 0
SMALL
GASTEIGER

@<TRIPOS>ATOM
      1  C         21.0210  -21.5970  -11.3370 C.2     1  UNL1        0.2560
      2  O         20.3970  -20.5890  -11.6460 O.2     1  UNL1       -0.2670
      3  N         20.7120  -22.4920  -10.3290 N.am    1  UNL1       -0.3230
      4  H         21.4060  -23.1960  -10.1140 H       1  UNL1        0.1690
      5  C         22.2820  -21.8980  -12.0760 C.2     1  UNL1        0.0320
      6  C         22.5650  -21.3200  -13.3200 C.2     1  UNL1        0.0170
      7  C         23.7550  -21.6360  -13.9800 C.2     1  UNL1        0.0100
      8  C         24.6830  -22.5150  -13.4020 C.2     1  UNL1       -0.0400
      9  C         24.3980  -23.0810  -12.1510 C.2     1  UNL1        0.0100
     10  C         23.2070  -22.7670  -11.4890 C.2     1  UNL1        0.0170
     11  C         25.9540  -22.8670  -14.1350 C.3     1  UNL1        0.1620
     12  N         26.1150  -24.2990  -14.2460 N.am    1  UNL1       -0.3440
     13  C         25.5370  -24.9900  -15.2690 C.2     1  UNL1        0.2920
     14  N         25.7150  -26.3290  -15.1440 N.am    1  UNL1       -0.2540
     15  O         24.9290  -24.5080  -16.2110 O.2     1  UNL1       -0.2540
     16  H         25.4000  -26.8380  -15.9600 H       1  UNL1        0.1280
     17  H         26.6180  -26.6220  -14.8010 H       1  UNL1        0.1280
     18  H         26.1890  -24.8120  -13.3810 H       1  UNL1        0.1640
     19  C         19.5740  -22.4860   -9.4940 C.2     1  UNL1        0.0350
     20  C         18.2560  -22.6010   -9.9700 C.2     1  UNL1        0.0300
     21  C         17.1590  -22.5950   -9.0960 C.2     1  UNL1        0.0150
     22  C         17.3950  -22.4760   -7.7390 C.2     1  UNL1       -0.0190
     23  C         18.7130  -22.3650   -7.2560 C.2     1  UNL1       -0.0410
     24  C         16.4820  -22.4410   -6.6170 C.3     1  UNL1       -0.0190
     25  C         19.8030  -22.3700   -8.1150 C.2     1  UNL1        0.0380
     26  C         18.7110  -22.2480   -5.7450 C.2     1  UNL1        0.0780
     27  C         17.2310  -22.3080   -5.4280 C.2     1  UNL1       -0.0430
     28  C         16.6180  -22.2460   -4.1870 C.2     1  UNL1        0.0080
     29  C         15.2240  -22.3210   -4.1420 C.2     1  UNL1        0.0010
     30  C         14.4720  -22.4540   -5.3220 C.2     1  UNL1        0.0010
     31  C         15.1000  -22.5150   -6.5710 C.2     1  UNL1        0.0130
@<TRIPOS>BOND
     1    15    13    2
     2    16    14    1
     3    13    14   am
     4    13    12   am
     5    14    17    1
     6    12    11    1
     7    12    18    1
     8    11     8    1
     9     7     8    2
    10     7     6    1
    11     8     9    1
    12     6     5    2
    13     9    10    2
    14     5    10    1
    15     5     1    1
    16     2     1    2
    17     1     3   am
    18     3     4    1
    19     3    19    1
    20    20    19    2
    21    20    21    1
    22    19    25    1
    23    21    22    2
    24    25    23    2
    25    22    23    1
    26    22    24    1
    27    23    26    1
    28    24    31    1
    29    24    27    1
    30    31    30    2
    31    26    27    2
    32    27    28    1
    33    30    29    1
    34    28    29    2
