@<TRIPOS>MOLECULE
63147_out_ligand_01.pdbqt
 31 33 0 0 0
SMALL
GASTEIGER

@<TRIPOS>ATOM
      1  N         21.4480  -22.0880  -12.1800 N.am    1  UNL1       -0.3230
      2  C         20.9850  -21.7520  -10.9220 C.2     1  UNL1        0.2590
      3  O         21.6690  -21.5080   -9.9350 O.2     1  UNL1       -0.2670
      4  H         20.7540  -22.3550  -12.8690 H       1  UNL1        0.1690
      5  C         19.5110  -21.7870  -10.7480 C.2     1  UNL1        0.0680
      6  C         18.7540  -20.9360  -11.5660 C.2     1  UNL1        0.0210
      7  C         17.3700  -20.9020  -11.4410 C.2     1  UNL1        0.0200
      8  C         16.7830  -21.7250  -10.4990 C.2     1  UNL1        0.1180
      9  N         17.4780  -22.5670   -9.7040 N.2     1  UNL1       -0.2530
     10  C         18.8310  -22.6100   -9.8470 C.2     1  UNL1        0.1130
     11  S         19.6200  -23.8210   -8.7960 S.3     1  UNL1       -0.0700
     12  C         18.9270  -23.3530   -7.2190 C.2     1  UNL1        0.0070
     13  C         18.0820  -24.2310   -6.5420 C.2     1  UNL1        0.0190
     14  C         17.5300  -23.8650   -5.3140 C.2     1  UNL1        0.0090
     15  C         17.8240  -22.6220   -4.7330 C.2     1  UNL1       -0.0560
     16  C         17.1940  -22.2640   -3.4150 C.3     1  UNL1        0.0490
     17  C         18.6700  -21.7270   -5.4170 C.2     1  UNL1       -0.0550
     18  C         19.0160  -20.3780   -4.8450 C.3     1  UNL1        0.0490
     19  C         19.2250  -22.1110   -6.6490 C.2     1  UNL1        0.0260
     20  C         22.7860  -22.0850  -12.6310 C.2     1  UNL1        0.0350
     21  C         23.6890  -22.9070  -11.9410 C.2     1  UNL1        0.0290
     22  C         25.0310  -22.9770  -12.3220 C.2     1  UNL1        0.0030
     23  C         25.4850  -22.2250  -13.4020 C.2     1  UNL1        0.0170
     24  C         24.5910  -21.4040  -14.1000 C.2     1  UNL1        0.0340
     25  C         23.2430  -21.3420  -13.7200 C.2     1  UNL1        0.0460
     26  C         25.0410  -20.6130  -15.2750 C.2     1  UNL1        0.2510
     27  N         26.0980  -19.7550  -15.0470 N.am    1  UNL1       -0.3570
     28  H         26.3780  -19.5700  -14.0930 H       1  UNL1        0.1620
     29  O         24.4720  -20.7280  -16.3520 O.2     1  UNL1       -0.2680
     30  C         26.5660  -18.8510  -16.0760 C.3     1  UNL1        0.1180
     31  C         26.6770  -17.4250  -15.5640 C.3     1  UNL1        0.0260
@<TRIPOS>BOND
     1    29    26    2
     2    30    31    1
     3    30    27    1
     4    26    27   am
     5    26    24    1
     6    27    28    1
     7    24    25    1
     8    24    23    2
     9    25    20    2
    10    23    22    1
    11     4     1    1
    12    20     1    1
    13    20    21    1
    14    22    21    2
    15     1     2   am
    16     6     7    1
    17     6     5    2
    18     7     8    2
    19     2     5    1
    20     2     3    2
    21     5    10    1
    22     8     9    1
    23    10     9    2
    24    10    11    1
    25    11    12    1
    26    12    19    2
    27    12    13    1
    28    19    17    1
    29    13    14    2
    30    17    18    1
    31    17    15    2
    32    14    15    1
    33    15    16    1
