@<TRIPOS>MOLECULE
63158_out_ligand_01.pdbqt
 31 33 0 0 0
SMALL
GASTEIGER

@<TRIPOS>ATOM
      1  C         17.8680  -22.5690   -6.4540 C.2     1  UNL1        0.0800
      2  C         18.0920  -21.5270   -5.5520 C.2     1  UNL1        0.0280
      3  C         19.3370  -20.8990   -5.5320 C.2     1  UNL1        0.0450
      4  C         20.3400  -21.3110   -6.4120 C.2     1  UNL1        0.1320
      5  F         21.5190  -20.6740   -6.3590 F       1  UNL1       -0.2050
      6  C         20.1260  -22.3530   -7.3210 C.2     1  UNL1        0.0720
      7  C         18.8750  -22.9900   -7.3310 C.2     1  UNL1        0.0450
      8  S         16.2900  -23.3880   -6.4980 S.O2    1  UNL1        0.2590
      9  O         15.2660  -22.3700   -6.5770 O.2     1  UNL1       -0.2010
     10  O         16.3040  -24.3880   -5.4570 O.2     1  UNL1       -0.2010
     11  N         16.3270  -24.1870   -7.9580 N.3     1  UNL1       -0.3110
     12  H         17.0730  -24.8690   -8.0840 H       1  UNL1        0.1720
     13  C         15.7080  -23.5920   -9.1320 C.3     1  UNL1        0.1700
     14  C         16.7210  -22.8160   -9.9330 C.2     1  UNL1       -0.0400
     15  C         16.4880  -21.4790  -10.2840 C.2     1  UNL1        0.0090
     16  C         17.4450  -20.7590  -11.0030 C.2     1  UNL1        0.0070
     17  C         18.6480  -21.3600  -11.3850 C.2     1  UNL1       -0.0620
     18  C         19.6890  -20.5740  -12.1260 C.3     1  UNL1        0.0480
     19  C         18.8940  -22.6860  -11.0120 C.2     1  UNL1        0.0070
     20  C         17.9390  -23.4080  -10.2920 C.2     1  UNL1        0.0090
     21  C         21.1590  -22.8090   -8.3000 C.2     1  UNL1        0.2590
     22  O         21.3500  -24.0170   -8.3980 O.2     1  UNL1       -0.2670
     23  N         21.8090  -21.8250   -9.0200 N.am    1  UNL1       -0.3230
     24  H         21.5330  -20.8640   -8.8440 H       1  UNL1        0.1690
     25  C         22.8160  -21.9950   -9.9950 C.2     1  UNL1        0.0370
     26  C         22.4790  -22.7390  -11.1360 C.2     1  UNL1        0.0290
     27  C         23.4130  -22.9570  -12.1540 C.2     1  UNL1        0.0050
     28  C         24.6960  -22.4320  -12.0380 C.2     1  UNL1        0.0420
     29  C         25.0290  -21.6950  -10.9080 C.2     1  UNL1        0.1180
     30  F         26.2650  -21.1890  -10.7990 F       1  UNL1       -0.2060
     31  C         24.1050  -21.4710   -9.8890 C.2     1  UNL1        0.0710
@<TRIPOS>BOND
     1    27    28    2
     2    27    26    1
     3    18    17    1
     4    28    29    1
     5    17    19    2
     6    17    16    1
     7    26    25    2
     8    19    20    1
     9    16    15    2
    10    29    30    1
    11    29    31    2
    12    20    14    2
    13    15    14    1
    14    25    31    1
    15    25    23    1
    16    14    13    1
    17    13    11    1
    18    23    24    1
    19    23    21   am
    20    22    21    2
    21    21     6    1
    22    12    11    1
    23    11     8    1
    24     7     6    1
    25     7     1    2
    26     6     4    2
    27     9     8    2
    28     8     1    1
    29     8    10    2
    30     1     2    1
    31     4     5    1
    32     4     3    1
    33     2     3    2
