@<TRIPOS>MOLECULE
63170_out_ligand_01.pdbqt
 33 36 0 0 0
SMALL
GASTEIGER

@<TRIPOS>ATOM
      1  N         18.1560  -22.2130  -10.2850 N.ar    1  UNL1       -0.2080
      2  N         18.9510  -23.0500   -9.5230 N.ar    1  UNL1       -0.1490
      3  C         20.1330  -22.9000  -10.0390 C.ar    1  UNL1        0.1580
      4  C         21.3910  -23.5500   -9.6240 C.2     1  UNL1        0.0540
      5  C         22.5030  -23.2600  -10.3220 C.2     1  UNL1        0.0220
      6  C         22.4900  -22.3300  -11.4500 C.2     1  UNL1        0.0480
      7  C         21.3230  -21.7700  -11.8160 C.2     1  UNL1        0.1200
      8  N         20.1910  -22.0540  -11.0990 N.ar    1  UNL1       -0.2550
      9  C         18.9100  -21.5950  -11.2950 C.ar    1  UNL1        0.3510
     10  O         18.5110  -20.8300  -12.1560 O.2     1  UNL1       -0.2440
     11  C         16.7250  -22.0950  -10.1090 C.3     1  UNL1        0.2590
     12  C         16.2250  -22.8070   -8.8500 C.2     1  UNL1        0.2420
     13  O         15.5070  -23.8000   -8.9430 O.2     1  UNL1       -0.2710
     14  N         16.5640  -22.1600   -7.6760 N.am    1  UNL1       -0.3240
     15  H         17.0740  -21.2850   -7.7970 H       1  UNL1        0.1690
     16  C         16.2850  -22.5370   -6.3440 C.2     1  UNL1        0.0520
     17  C         15.0930  -23.1650   -5.9670 C.2     1  UNL1        0.0310
     18  C         14.8660  -23.5270   -4.6340 C.2     1  UNL1        0.0020
     19  C         15.8250  -23.2700   -3.6600 C.2     1  UNL1        0.0020
     20  C         17.0200  -22.6470   -4.0160 C.2     1  UNL1        0.0210
     21  C         17.2470  -22.2850   -5.3480 C.2     1  UNL1        0.0370
     22 BR         18.9090  -21.4490   -5.7550 Br      1  UNL1       -0.0490
     23  C         23.7540  -22.0780  -12.2130 C.2     1  UNL1        0.2530
     24  O         24.8390  -22.4180  -11.7530 O.2     1  UNL1       -0.2680
     25  N         23.6020  -21.4060  -13.4000 N.am    1  UNL1       -0.3530
     26  H         22.7170  -20.9710  -13.6170 H       1  UNL1        0.1630
     27  C         24.7440  -20.9470  -14.1610 C.3     1  UNL1        0.1610
     28  C         24.7000  -21.5050  -15.5590 C.2     1  UNL1       -0.0410
     29  C         24.8950  -20.6750  -16.6720 C.2     1  UNL1        0.0090
     30  C         24.8770  -21.2050  -17.9630 C.2     1  UNL1        0.0010
     31  C         24.6760  -22.5720  -18.1530 C.2     1  UNL1        0.0000
     32  C         24.4890  -23.4080  -17.0540 C.2     1  UNL1        0.0010
     33  C         24.5040  -22.8800  -15.7640 C.2     1  UNL1        0.0090
@<TRIPOS>BOND
     1    31    30    2
     2    31    32    1
     3    30    29    1
     4    32    33    2
     5    29    28    2
     6    33    28    1
     7    28    27    1
     8    27    25    1
     9    26    25    1
    10    25    23   am
    11    23    24    2
    12    23     6    1
    13    10     9    2
    14     7     6    2
    15     7     8    1
    16     6     5    1
    17     9     8   ar
    18     9     1   ar
    19     8     3   ar
    20     5     4    2
    21     1    11    1
    22     1     2   ar
    23    11    12    1
    24     3     4    1
    25     3     2   ar
    26    13    12    2
    27    12    14   am
    28    15    14    1
    29    14    16    1
    30    16    17    2
    31    16    21    1
    32    17    18    1
    33    22    21    1
    34    21    20    2
    35    18    19    2
    36    20    19    1
