@<TRIPOS>MOLECULE
63183_out_ligand_01.pdbqt
 34 36 0 0 0
SMALL
GASTEIGER

@<TRIPOS>ATOM
      1  C         25.9060  -20.9130  -17.3260 C.3     1  UNL1        0.0500
      2  C         25.8710  -21.1060  -15.8320 C.2     1  UNL1       -0.0340
      3  C         25.6050  -22.4620  -15.3960 C.2     1  UNL1        0.0330
      4  C         25.5210  -22.7900  -14.0960 C.2     1  UNL1        0.0120
      5  C         25.2300  -24.2110  -13.6880 C.3     1  UNL1        0.0680
      6  N         25.7100  -21.8030  -13.1250 N.am    1  UNL1       -0.3080
      7  C         26.0070  -20.4740  -13.4610 C.2     1  UNL1        0.2690
      8  O         26.2460  -19.6170  -12.6140 O.2     1  UNL1       -0.2660
      9  C         26.0620  -20.1350  -14.9160 C.2     1  UNL1        0.1180
     10  C         26.3230  -18.7810  -15.2680 C.1     1  UNL1        0.1050
     11  N         26.5330  -17.6910  -15.6120 N.1     1  UNL1       -0.1910
     12  C         25.5830  -22.1130  -11.6890 C.3     1  UNL1        0.2350
     13  C         24.2180  -21.8000  -11.0560 C.2     1  UNL1        0.2400
     14  O         24.1660  -21.2030   -9.9820 O.2     1  UNL1       -0.2710
     15  N         23.1370  -22.2860  -11.7660 N.am    1  UNL1       -0.3260
     16  H         23.3610  -22.7730  -12.6250 H       1  UNL1        0.1690
     17  C         21.7700  -22.1920  -11.4420 C.2     1  UNL1        0.0340
     18  C         21.3310  -22.9010  -10.3170 C.2     1  UNL1        0.0300
     19  C         19.9870  -22.8650   -9.9320 C.2     1  UNL1        0.0190
     20  C         19.0590  -22.1200  -10.6670 C.2     1  UNL1        0.0320
     21  C         19.4990  -21.3930  -11.7790 C.2     1  UNL1        0.0190
     22  C         20.8450  -21.4360  -12.1650 C.2     1  UNL1        0.0300
     23  C         17.6370  -22.1160  -10.2160 C.2     1  UNL1        0.2510
     24  O         16.8740  -21.2380  -10.6050 O.2     1  UNL1       -0.2680
     25  N         17.2670  -23.1080   -9.3330 N.am    1  UNL1       -0.3530
     26  H         17.9830  -23.6490   -8.8730 H       1  UNL1        0.1630
     27  C         15.9540  -23.1250   -8.7290 C.3     1  UNL1        0.1610
     28  C         16.0540  -22.9490   -7.2330 C.2     1  UNL1       -0.0400
     29  C         17.2700  -23.1650   -6.5660 C.2     1  UNL1        0.0120
     30  C         17.3610  -22.9730   -5.1870 C.2     1  UNL1        0.0430
     31  C         16.2410  -22.5590   -4.4760 C.2     1  UNL1        0.1160
     32  F         16.3330  -22.3710   -3.1530 F       1  UNL1       -0.2060
     33  C         15.0290  -22.3310   -5.1180 C.2     1  UNL1        0.0430
     34  C         14.9360  -22.5230   -6.4970 C.2     1  UNL1        0.0120
@<TRIPOS>BOND
     1     1     2    1
     2     2     3    1
     3     2     9    2
     4    11    10    3
     5     3     4    2
     6    10     9    1
     7     9     7    1
     8     4     5    1
     9     4     6    1
    10     7     6   am
    11     7     8    2
    12     6    12    1
    13    16    15    1
    14    22    21    1
    15    22    17    2
    16    21    20    2
    17    15    17    1
    18    15    13   am
    19    12    13    1
    20    17    18    1
    21    13    14    2
    22    20    23    1
    23    20    19    1
    24    24    23    2
    25    18    19    2
    26    23    25   am
    27    25    26    1
    28    25    27    1
    29    27    28    1
    30    28    29    2
    31    28    34    1
    32    29    30    1
    33    34    33    2
    34    30    31    2
    35    33    31    1
    36    31    32    1
