@<TRIPOS>MOLECULE
63188_out_ligand_01.pdbqt
 30 33 0 0 0
SMALL
GASTEIGER

@<TRIPOS>ATOM
      1  C         23.3580  -22.6560   -9.2950 C.2     1  UNL1       -0.0400
      2  C         22.9970  -21.6570   -8.3700 C.2     1  UNL1        0.0110
      3  C         21.7650  -21.6980   -7.7060 C.2     1  UNL1        0.0310
      4  C         20.8990  -22.7420   -7.9800 C.2     1  UNL1        0.0430
      5  C         21.2460  -23.7320   -8.8980 C.2     1  UNL1       -0.0290
      6  C         22.4640  -23.7040   -9.5620 C.2     1  UNL1        0.0180
      7  C         20.1450  -24.7250   -9.0750 C.2     1  UNL1        0.0610
      8  C         19.1330  -24.2700   -8.0160 C.2     1  UNL1        0.1370
      9  N         19.6220  -22.9990   -7.4480 N.am    1  UNL1       -0.3130
     10  C         18.9360  -22.1680   -6.5770 C.2     1  UNL1        0.2580
     11  O         19.2920  -21.0600   -6.1890 O.2     1  UNL1       -0.2670
     12  C         24.6690  -22.5770  -10.0390 C.3     1  UNL1        0.1610
     13  N         24.4600  -22.8000  -11.4510 N.am    1  UNL1       -0.3530
     14  C         25.4550  -22.5370  -12.3670 C.2     1  UNL1        0.2530
     15  O         26.4940  -21.9400  -12.1250 O.2     1  UNL1       -0.2680
     16  H         23.7250  -23.4460  -11.7120 H       1  UNL1        0.1630
     17  C         25.1800  -23.0400  -13.7280 C.2     1  UNL1        0.0490
     18  C         25.4170  -24.3990  -13.9850 C.2     1  UNL1        0.0180
     19  C         25.1610  -24.9220  -15.2520 C.2     1  UNL1        0.0010
     20  C         24.6720  -24.0930  -16.2610 C.2     1  UNL1        0.0010
     21  C         24.4370  -22.7390  -16.0060 C.2     1  UNL1        0.0200
     22  C         24.6900  -22.2070  -14.7380 C.2     1  UNL1        0.0260
     23 BR         24.4000  -20.3470  -14.4880 Br      1  UNL1       -0.0500
     24  C         17.6260  -22.6480   -6.0860 C.2     1  UNL1        0.0320
     25  C         17.5840  -23.4170   -4.9170 C.2     1  UNL1        0.0200
     26  C         16.3580  -23.8910   -4.4520 C.2     1  UNL1        0.0430
     27  C         15.1960  -23.6060   -5.1650 C.2     1  UNL1        0.1160
     28  F         14.0200  -24.0630   -4.7160 F       1  UNL1       -0.2060
     29  C         15.2360  -22.8600   -6.3410 C.2     1  UNL1        0.0430
     30  C         16.4600  -22.3820   -6.8120 C.2     1  UNL1        0.0200
@<TRIPOS>BOND
     1    20    21    2
     2    20    19    1
     3    21    22    1
     4    19    18    2
     5    22    23    1
     6    22    17    2
     7    18    17    1
     8    17    14    1
     9    14    15    2
    10    14    13   am
    11    16    13    1
    12    13    12    1
    13    12     1    1
    14     6     1    2
    15     6     5    1
    16     1     2    1
    17     7     5    1
    18     7     8    2
    19     5     4    2
    20     2     3    2
    21     8     9    1
    22     4     3    1
    23     4     9    1
    24     9    10   am
    25    30    29    1
    26    30    24    2
    27    10    11    2
    28    10    24    1
    29    29    27    2
    30    24    25    1
    31    27    28    1
    32    27    26    1
    33    25    26    2
