@<TRIPOS>MOLECULE
63190_out_ligand_01.pdbqt
 31 34 0 0 0
SMALL
GASTEIGER

@<TRIPOS>ATOM
      1  C         21.2370  -23.2020   -8.4160 C.2     1  UNL1        0.0320
      2  C         20.7620  -22.1310   -7.6530 C.2     1  UNL1        0.0190
      3  C         19.5630  -22.2450   -6.9320 C.2     1  UNL1        0.0320
      4  C         18.8190  -23.4310   -6.9630 C.2     1  UNL1        0.0570
      5  C         19.3170  -24.5070   -7.7270 C.2     1  UNL1        0.0320
      6  C         20.5190  -24.3980   -8.4360 C.2     1  UNL1        0.0190
      7  N         17.5860  -23.6090   -6.2640 N.ar    1  UNL1       -0.2170
      8  N         17.5730  -24.3370   -5.1090 N.ar    1  UNL1        0.0030
      9  N         16.3230  -24.3670   -4.6830 N.ar    1  UNL1        0.0190
     10  N         15.5080  -23.6640   -5.5150 N.ar    1  UNL1       -0.1350
     11  C         16.2770  -23.1900   -6.4750 C.ar    1  UNL1        0.2030
     12  S         15.6670  -22.1900   -7.7500 S.3     1  UNL1       -0.0850
     13  C         16.1280  -23.1790   -9.2030 C.3     1  UNL1        0.1210
     14  C         17.0650  -22.4370  -10.1230 C.2     1  UNL1       -0.0490
     15  C         18.2880  -23.0070  -10.5040 C.2     1  UNL1        0.0080
     16  C         19.1600  -22.3180  -11.3500 C.2     1  UNL1        0.0010
     17  C         18.8230  -21.0500  -11.8180 C.2     1  UNL1        0.0000
     18  C         17.6150  -20.4680  -11.4390 C.2     1  UNL1        0.0010
     19  C         16.7380  -21.1580  -10.5990 C.2     1  UNL1        0.0080
     20  C         22.4970  -23.1170   -9.2050 C.2     1  UNL1        0.2560
     21  O         23.3440  -23.9860   -9.0460 O.2     1  UNL1       -0.2670
     22  N         22.5570  -22.0570  -10.0870 N.am    1  UNL1       -0.3200
     23  H         21.7330  -21.4710  -10.1860 H       1  UNL1        0.1690
     24  C         23.6020  -21.7430  -10.9830 C.2     1  UNL1        0.0740
     25  C         24.8910  -21.3730  -10.5970 C.2     1  UNL1        0.0340
     26  C         25.8640  -21.0940  -11.5670 C.2     1  UNL1        0.0210
     27  C         25.5470  -21.1820  -12.9220 C.2     1  UNL1        0.0140
     28 BR         26.8700  -20.8070  -14.2220 Br      1  UNL1       -0.0510
     29  C         24.2650  -21.5420  -13.3250 C.2     1  UNL1        0.0630
     30  C         23.3100  -21.8160  -12.3520 C.2     1  UNL1        0.1440
     31  F         22.0710  -22.1650  -12.7420 F       1  UNL1       -0.2040
@<TRIPOS>BOND
     1    28    27    1
     2    29    27    2
     3    29    30    1
     4    27    26    1
     5    31    30    1
     6    30    24    2
     7    17    18    2
     8    17    16    1
     9    26    25    2
    10    18    19    1
    11    16    15    2
    12    24    25    1
    13    24    22    1
    14    19    14    2
    15    15    14    1
    16    23    22    1
    17    14    13    1
    18    22    20   am
    19    20    21    2
    20    20     1    1
    21    13    12    1
    22     6     1    2
    23     6     5    1
    24     1     2    1
    25    12    11    1
    26     5     4    2
    27     2     3    2
    28     4     3    1
    29     4     7    1
    30    11     7   ar
    31    11    10   ar
    32     7     8   ar
    33    10     9   ar
    34     8     9   ar
