@<TRIPOS>MOLECULE
63224_out_ligand_01.pdbqt
 32 35 0 0 0
SMALL
GASTEIGER

@<TRIPOS>ATOM
      1  C         18.5890  -22.1660  -10.5790 C.2     1  UNL1        0.2230
      2  N         17.9130  -23.2220  -10.1710 N.2     1  UNL1       -0.2030
      3  C         16.6420  -22.7240  -10.0220 C.2     1  UNL1        0.1580
      4  N         16.5100  -21.4250  -10.3120 N.4     1  UNL1       -0.1110
      5  O         17.8000  -21.0520  -10.6880 O.2     1  UNL1       -0.1890
      6  C         15.5080  -23.5640   -9.5640 C.3     1  UNL1        0.1030
      7  C         15.8370  -24.3750   -8.3070 C.3     1  UNL1        0.1330
      8  N         16.1770  -23.5530   -7.1400 N.am    1  UNL1       -0.3520
      9  C         15.2500  -22.4860   -6.7800 C.3     1  UNL1        0.1520
     10  C         17.4490  -23.7140   -6.5900 C.2     1  UNL1        0.2560
     11  O         18.2170  -24.6160   -6.9170 O.2     1  UNL1       -0.2670
     12  C         17.9120  -22.7940   -5.5410 C.2     1  UNL1        0.0730
     13  C         18.6140  -21.6460   -5.9160 C.2     1  UNL1        0.0620
     14  C         19.0180  -20.7540   -4.9290 C.2     1  UNL1        0.1170
     15  F         19.7030  -19.6570   -5.2740 F       1  UNL1       -0.2060
     16  C         18.7230  -20.9810   -3.5850 C.2     1  UNL1        0.0450
     17  C         18.0010  -22.1170   -3.2200 C.2     1  UNL1        0.0460
     18  C         17.5920  -23.0170   -4.2020 C.2     1  UNL1        0.1320
     19  F         16.8900  -24.0970   -3.8340 F       1  UNL1       -0.2050
     20  C         19.9840  -22.2050  -10.8830 C.ar    1  UNL1        0.0960
     21  C         21.0780  -22.6520  -10.1560 C.ar    1  UNL1       -0.0150
     22  C         22.2390  -22.4190  -10.9690 C.ar    1  UNL1       -0.0000
     23  C         23.6210  -22.6430  -10.7930 C.2     1  UNL1        0.0210
     24  C         21.8100  -21.8510  -12.1660 C.ar    1  UNL1        0.0430
     25  C         24.5280  -22.2850  -11.8060 C.2     1  UNL1       -0.0610
     26  C         24.0500  -21.7320  -12.9980 C.2     1  UNL1        0.0090
     27  C         25.9940  -22.5540  -11.6300 C.3     1  UNL1        0.0480
     28  C         22.6850  -21.4990  -13.1980 C.2     1  UNL1        0.0310
     29  N         20.4440  -21.7370  -12.0870 N.ar    1  UNL1       -0.3510
     30  H         19.8490  -21.3580  -12.8110 H       1  UNL1        0.1660
     31  C         21.0780  -23.2580   -8.7850 C.3     1  UNL1        0.0370
     32  C         20.8920  -24.7680   -8.8200 C.3     1  UNL1        0.0100
@<TRIPOS>BOND
     1    28    26    2
     2    28    24    1
     3    26    25    1
     4    30    29    1
     5    24    29   ar
     6    24    22   ar
     7    29    20   ar
     8    25    27    1
     9    25    23    2
    10    22    23    1
    11    22    21   ar
    12    20     1    1
    13    20    21   ar
    14     5     1    1
    15     5     4    1
    16     1     2    2
    17     4     3    1
    18     2     3    2
    19    21    31    1
    20     3     6    1
    21     6     7    1
    22    32    31    1
    23     7     8    1
    24     8     9    1
    25     8    10   am
    26    11    10    2
    27    10    12    1
    28    13    12    2
    29    13    14    1
    30    12    18    1
    31    15    14    1
    32    14    16    2
    33    18    19    1
    34    18    17    2
    35    16    17    1
