@<TRIPOS>MOLECULE
63228_out_ligand_01.pdbqt
 38 41 0 0 0
SMALL
GASTEIGER

@<TRIPOS>ATOM
      1  N         20.7650  -22.9660   -9.3030 N.am    1  UNL1       -0.3040
      2  C         22.1090  -22.8930   -9.6510 C.2     1  UNL1        0.2560
      3  O         22.9910  -23.4830   -9.0270 O.2     1  UNL1       -0.2670
      4  C         22.4840  -22.0900  -10.8550 C.2     1  UNL1        0.0240
      5  C         21.5230  -21.5300  -11.6060 C.2     1  UNL1        0.0270
      6  C         20.1140  -21.6620  -11.2560 C.2     1  UNL1       -0.0080
      7  C         19.1400  -21.0740  -12.0720 C.2     1  UNL1        0.0140
      8  C         17.7880  -21.1910  -11.7530 C.2     1  UNL1        0.0070
      9  C         17.3950  -21.9080  -10.6220 C.2     1  UNL1       -0.0600
     10  C         15.9410  -22.0170  -10.2600 C.3     1  UNL1        0.0480
     11  C         18.3760  -22.4810   -9.7960 C.2     1  UNL1        0.0370
     12  C         19.7410  -22.3700  -10.1050 C.2     1  UNL1        0.0480
     13  C         20.4150  -23.6970   -8.0780 C.3     1  UNL1        0.2350
     14  C         19.5020  -22.9380   -7.1020 C.2     1  UNL1        0.2400
     15  N         18.3930  -23.6560   -6.6940 N.am    1  UNL1       -0.3260
     16  H         18.3040  -24.5830   -7.0920 H       1  UNL1        0.1690
     17  O         19.8290  -21.8210   -6.7050 O.2     1  UNL1       -0.2710
     18  C         17.3690  -23.2550   -5.8150 C.2     1  UNL1        0.0370
     19  C         17.7130  -23.1070   -4.4670 C.2     1  UNL1        0.0290
     20  C         16.7560  -22.7160   -3.5290 C.2     1  UNL1        0.0050
     21  C         15.4430  -22.4700   -3.9280 C.2     1  UNL1        0.0370
     22  C         15.0850  -22.6120   -5.2680 C.2     1  UNL1        0.0700
     23  C         16.0500  -23.0070   -6.2050 C.2     1  UNL1        0.0660
     24  O         13.8360  -22.4060   -5.7890 O.2     1  UNL1       -0.3560
     25  C         13.3330  -21.0770   -5.7560 C.3     1  UNL1        0.2100
     26  C         23.9710  -22.0260  -11.1090 C.3     1  UNL1        0.1360
     27  N         24.4470  -23.2420  -11.7740 N.pl3   1  UNL1       -0.2880
     28  H         23.9190  -24.0610  -11.4780 H       1  UNL1        0.1280
     29  C         24.6020  -23.2550  -13.1680 C.2     1  UNL1        0.0110
     30  C         25.0860  -24.4290  -13.7620 C.2     1  UNL1        0.0260
     31  C         25.3320  -24.5080  -15.1360 C.2     1  UNL1        0.0410
     32  C         25.1230  -23.3970  -15.9520 C.2     1  UNL1        0.1010
     33  C         24.6770  -22.1950  -15.3730 C.2     1  UNL1        0.1030
     34  C         24.4360  -22.1330  -13.9900 C.2     1  UNL1        0.0630
     35  O         25.3330  -23.3760  -17.3090 O.2     1  UNL1       -0.3530
     36  C         24.1900  -23.3700  -18.1520 C.3     1  UNL1        0.2100
     37  O         24.5120  -21.1380  -16.2380 O.2     1  UNL1       -0.3530
     38  C         25.4650  -20.0860  -16.1900 C.3     1  UNL1        0.2100
@<TRIPOS>BOND
     1    36    35    1
     2    35    32    1
     3    37    38    1
     4    37    33    1
     5    32    33    2
     6    32    31    1
     7    33    34    1
     8    31    30    2
     9    34    29    2
    10    30    29    1
    11    29    27    1
    12     7     8    1
    13     7     6    2
    14    27    28    1
    15    27    26    1
    16     8     9    2
    17     5     6    1
    18     5     4    2
    19     6    12    1
    20    26     4    1
    21     4     2    1
    22     9    10    1
    23     9    11    1
    24    12    11    2
    25    12     1    1
    26     2     1   am
    27     2     3    2
    28     1    13    1
    29    13    14    1
    30    14    17    2
    31    14    15   am
    32    16    15    1
    33    15    18    1
    34    23    18    2
    35    23    22    1
    36    18    19    1
    37    24    25    1
    38    24    22    1
    39    22    21    2
    40    19    20    2
    41    21    20    1
