@<TRIPOS>MOLECULE
63235_out_ligand_01.pdbqt
 35 38 0 0 0
SMALL
GASTEIGER

@<TRIPOS>ATOM
      1  C         18.7790  -22.4220  -10.3760 C.2     1  UNL1        0.0320
      2  C         19.0640  -21.3950  -11.2810 C.2     1  UNL1        0.0190
      3  C         20.3730  -21.2130  -11.7430 C.2     1  UNL1        0.0300
      4  C         21.4090  -22.0520  -11.3140 C.2     1  UNL1        0.0360
      5  C         21.1140  -23.0920  -10.4310 C.2     1  UNL1        0.0300
      6  C         19.8060  -23.2790   -9.9670 C.2     1  UNL1        0.0190
      7  N         22.6930  -21.7990  -11.8300 N.am    1  UNL1       -0.3090
      8  C         23.8290  -21.3960  -11.1450 C.2     1  UNL1        0.3270
      9  O         23.8590  -21.0920   -9.9540 O.2     1  UNL1       -0.2460
     10  N         24.9640  -21.2760  -11.9830 N.am    1  UNL1       -0.2990
     11  C         26.1360  -20.6440  -11.3680 C.3     1  UNL1        0.1340
     12  C         25.2080  -22.1800  -13.0630 C.2     1  UNL1        0.0450
     13  C         27.1210  -19.9730  -12.3210 C.3     1  UNL1        0.0210
     14  C         26.3950  -19.3300  -13.4930 C.3     1  UNL1        0.0060
     15  C         26.1470  -20.3260  -14.6240 C.3     1  UNL1        0.0410
     16  C         25.7730  -21.7520  -14.2790 C.2     1  UNL1       -0.0310
     17  C         25.9510  -22.7030  -15.3080 C.2     1  UNL1        0.0090
     18  C         25.6040  -24.0420  -15.1360 C.2     1  UNL1        0.0010
     19  C         25.0630  -24.4620  -13.9290 C.2     1  UNL1        0.0020
     20  C         24.8660  -23.5390  -12.9030 C.2     1  UNL1        0.0300
     21  H         22.7960  -21.8180  -12.8350 H       1  UNL1        0.1700
     22  C         17.4070  -22.6590   -9.8490 C.2     1  UNL1        0.2510
     23  N         17.3230  -23.3230   -8.6430 N.am    1  UNL1       -0.3530
     24  H         18.1660  -23.6160   -8.1730 H       1  UNL1        0.1630
     25  O         16.4310  -22.2970  -10.4970 O.2     1  UNL1       -0.2680
     26  C         16.0470  -23.5460   -7.9680 C.3     1  UNL1        0.0810
     27  C         15.4510  -22.1990   -7.5560 C.3     1  UNL1        0.0320
     28  C         16.2320  -24.4520   -6.7390 C.3     1  UNL1        0.0290
     29  C         17.6640  -24.4670   -6.1850 C.3     1  UNL1        0.0400
     30  C         18.0570  -23.1790   -5.5040 C.2     1  UNL1       -0.0580
     31  C         17.5590  -22.8630   -4.2330 C.2     1  UNL1        0.0070
     32  C         17.9120  -21.6630   -3.6120 C.2     1  UNL1        0.0010
     33  C         18.7660  -20.7690   -4.2550 C.2     1  UNL1        0.0000
     34  C         19.2650  -21.0720   -5.5200 C.2     1  UNL1        0.0010
     35  C         18.9110  -22.2710   -6.1430 C.2     1  UNL1        0.0070
@<TRIPOS>BOND
     1    17    18    2
     2    17    16    1
     3    18    19    1
     4    15    16    1
     5    15    14    1
     6    16    12    2
     7    19    20    2
     8    14    13    1
     9    12    20    1
    10    12    10    1
    11    21     7    1
    12    13    11    1
    13    10    11    1
    14    10     8   am
    15     7     4    1
    16     7     8   am
    17     3     4    2
    18     3     2    1
    19     4     5    1
    20     2     1    2
    21     8     9    2
    22    25    22    2
    23     5     6    2
    24     1     6    1
    25     1    22    1
    26    22    23   am
    27    23    24    1
    28    23    26    1
    29    26    27    1
    30    26    28    1
    31    28    29    1
    32    29    30    1
    33    35    34    1
    34    35    30    2
    35    34    33    2
    36    30    31    1
    37    33    32    1
    38    31    32    2
