@<TRIPOS>MOLECULE
63246_out_ligand_01.pdbqt
 32 34 0 0 0
SMALL
GASTEIGER

@<TRIPOS>ATOM
      1  C         20.4140  -22.4830   -7.4580 C.2     1  UNL1        0.0720
      2  C         19.2140  -23.1840   -7.2590 C.2     1  UNL1        0.0450
      3  C         18.3100  -22.7590   -6.2760 C.2     1  UNL1        0.0800
      4  C         18.5760  -21.6310   -5.4970 C.2     1  UNL1        0.0280
      5  C         19.7640  -20.9290   -5.6990 C.2     1  UNL1        0.0450
      6  C         20.6700  -21.3570   -6.6700 C.2     1  UNL1        0.1320
      7  F         21.8010  -20.6500   -6.8240 F       1  UNL1       -0.2050
      8  S         16.8020  -23.6710   -6.0440 S.O2    1  UNL1        0.2580
      9  O         17.0730  -25.0640   -6.3240 O.2     1  UNL1       -0.2010
     10  O         16.2230  -23.2360   -4.7940 O.2     1  UNL1       -0.2010
     11  N         15.8260  -23.0800   -7.2670 N.3     1  UNL1       -0.3150
     12  H         15.5600  -22.1010   -7.1680 H       1  UNL1        0.1720
     13  C         15.8680  -23.6850   -8.6010 C.3     1  UNL1        0.1370
     14  C         15.5960  -22.6120   -9.6570 C.3     1  UNL1        0.0580
     15  C         16.8650  -22.1840  -10.3500 C.2     1  UNL1       -0.0570
     16  C         16.9510  -20.9230  -10.9550 C.2     1  UNL1        0.0070
     17  C         18.1160  -20.5350  -11.6180 C.2     1  UNL1        0.0010
     18  C         19.2020  -21.4060  -11.6860 C.2     1  UNL1        0.0000
     19  C         19.1250  -22.6640  -11.0920 C.2     1  UNL1        0.0010
     20  C         17.9610  -23.0530  -10.4270 C.2     1  UNL1        0.0070
     21  C         21.3650  -22.9910   -8.4950 C.2     1  UNL1        0.2590
     22  N         22.0900  -22.0420   -9.1910 N.am    1  UNL1       -0.3230
     23  H         21.9370  -21.0700   -8.9400 H       1  UNL1        0.1690
     24  O         21.4370  -24.2060   -8.6480 O.2     1  UNL1       -0.2670
     25  C         23.0370  -22.2580  -10.2140 C.2     1  UNL1        0.0360
     26  C         24.2690  -22.8820  -10.0220 C.2     1  UNL1        0.0300
     27  C         25.1540  -23.0590  -11.0940 C.2     1  UNL1        0.0110
     28  C         24.8250  -22.6140  -12.3820 C.2     1  UNL1       -0.0400
     29  C         25.7950  -22.8190  -13.5080 C.3     1  UNL1        0.0500
     30  C         23.5860  -21.9880  -12.5690 C.2     1  UNL1        0.0420
     31  C         22.7030  -21.8120  -11.4980 C.2     1  UNL1        0.0530
     32 CL         23.0950  -21.4070  -14.1220 Cl      1  UNL1       -0.0840
@<TRIPOS>BOND
     1    32    30    1
     2    29    28    1
     3    30    28    2
     4    30    31    1
     5    28    27    1
     6    18    17    2
     7    18    19    1
     8    17    16    1
     9    31    25    2
    10    27    26    2
    11    19    20    2
    12    16    15    2
    13    20    15    1
    14    15    14    1
    15    25    26    1
    16    25    22    1
    17    14    13    1
    18    22    23    1
    19    22    21   am
    20    24    21    2
    21    13    11    1
    22    21     1    1
    23     1     2    2
    24     1     6    1
    25    11    12    1
    26    11     8    1
    27     2     3    1
    28     7     6    1
    29     6     5    2
    30     9     8    2
    31     3     8    1
    32     3     4    2
    33     8    10    2
    34     5     4    1
