@<TRIPOS>MOLECULE
63259_out_ligand_01.pdbqt
 29 32 0 0 0
SMALL
GASTEIGER

@<TRIPOS>ATOM
      1  C         21.6300  -22.0730  -11.6430 C.2     1  UNL1        0.0320
      2  C         21.5480  -22.9890  -10.5860 C.2     1  UNL1        0.0170
      3  C         20.3270  -23.2200   -9.9480 C.2     1  UNL1        0.0100
      4  C         19.1690  -22.5510  -10.3680 C.2     1  UNL1       -0.0300
      5  C         19.2560  -21.6440  -11.4350 C.2     1  UNL1        0.0100
      6  C         20.4760  -21.4110  -12.0760 C.2     1  UNL1        0.0170
      7  C         22.9540  -21.8590  -12.2950 C.2     1  UNL1        0.2560
      8  O         23.9660  -22.0360  -11.6300 O.2     1  UNL1       -0.2670
      9  N         22.8930  -21.4300  -13.6100 N.am    1  UNL1       -0.3230
     10  H         21.9760  -21.2000  -13.9720 H       1  UNL1        0.1690
     11  C         23.9770  -21.1890  -14.4800 C.2     1  UNL1        0.0380
     12  C         24.7960  -20.0560  -14.4130 C.2     1  UNL1        0.0320
     13  C         25.8580  -19.8870  -15.3100 C.2     1  UNL1        0.0480
     14  C         26.1030  -20.8550  -16.2740 C.2     1  UNL1        0.1540
     15  F         27.1200  -20.6930  -17.1310 F       1  UNL1       -0.2030
     16  C         25.2970  -21.9840  -16.3470 C.2     1  UNL1        0.1570
     17  F         25.5320  -22.9210  -17.2760 F       1  UNL1       -0.2030
     18  C         24.2390  -22.1570  -15.4580 C.2     1  UNL1        0.0750
     19  C         17.8440  -22.7960   -9.6710 C.3     1  UNL1        0.3110
     20  N         17.9880  -23.1700   -8.2540 N.3     1  UNL1        0.0970
     21  C         16.8340  -23.9710   -7.8170 C.3     1  UNL1        0.2770
     22  C         17.0640  -24.5330   -6.4090 C.3     1  UNL1        0.0690
     23  C         17.5190  -23.4780   -5.4340 C.2     1  UNL1       -0.0490
     24  C         17.4630  -23.7200   -4.0550 C.2     1  UNL1        0.0070
     25  C         18.0610  -22.2730   -5.9130 C.2     1  UNL1       -0.0240
     26  C         17.9190  -22.7590   -3.1530 C.2     1  UNL1        0.0010
     27  C         18.4390  -21.5540   -3.6220 C.2     1  UNL1        0.0010
     28  C         18.5080  -21.3100   -4.9940 C.2     1  UNL1        0.0090
     29  C         18.1070  -21.9710   -7.3980 C.3     1  UNL1        0.3110
@<TRIPOS>BOND
     1    17    16    1
     2    15    14    1
     3    16    14    2
     4    16    18    1
     5    14    13    1
     6    18    11    2
     7    13    12    2
     8    11    12    1
     9    11     9    1
    10    10     9    1
    11     9     7   am
    12     7     1    1
    13     7     8    2
    14     6     1    2
    15     6     5    1
    16     1     2    1
    17     5     4    2
    18     2     3    2
    19     4     3    1
    20     4    19    1
    21    19    20    1
    22    20    21    1
    23    20    29    1
    24    21    22    1
    25    29    25    1
    26    22    23    1
    27    25    23    2
    28    25    28    1
    29    23    24    1
    30    28    27    2
    31    24    26    2
    32    27    26    1
