@<TRIPOS>MOLECULE
63268_out_ligand_01.pdbqt
 35 38 0 0 0
SMALL
GASTEIGER

@<TRIPOS>ATOM
      1  C         21.8310  -23.0380   -8.7940 C.2     1  UNL1        0.0320
      2  C         21.0000  -22.2110   -8.0280 C.2     1  UNL1        0.0200
      3  C         19.7970  -22.7010   -7.5120 C.2     1  UNL1        0.0380
      4  C         19.4090  -24.0160   -7.7790 C.2     1  UNL1        0.0780
      5  C         20.2370  -24.8440   -8.5420 C.2     1  UNL1        0.0380
      6  C         21.4390  -24.3550   -9.0620 C.2     1  UNL1        0.0200
      7  O         18.2550  -24.5960   -7.3010 O.2     1  UNL1       -0.2900
      8  C         17.3500  -23.7450   -6.7010 C.2     1  UNL1        0.2060
      9  N         17.6290  -23.3950   -5.4150 N.2     1  UNL1       -0.2330
     10  C         16.7080  -22.6050   -4.8220 C.2     1  UNL1        0.1380
     11  C         15.5540  -22.1930   -5.4690 C.2     1  UNL1        0.1370
     12  N         15.2620  -22.5560   -6.7400 N.2     1  UNL1       -0.2480
     13  C         16.1760  -23.3520   -7.3580 C.2     1  UNL1        0.1510
     14  S         15.7670  -23.8580   -9.0180 S.3     1  UNL1       -0.0660
     15  C         16.9130  -22.8490   -9.9390 C.2     1  UNL1        0.0070
     16  C         18.0490  -23.4140  -10.5310 C.2     1  UNL1        0.0200
     17  C         18.9390  -22.6140  -11.2540 C.2     1  UNL1        0.0250
     18  C         18.6900  -21.2500  -11.3890 C.2     1  UNL1        0.0340
     19 CL         19.7880  -20.2640  -12.2750 Cl      1  UNL1       -0.0840
     20  C         17.5560  -20.6800  -10.8120 C.2     1  UNL1        0.0250
     21  C         16.6660  -21.4810  -10.0910 C.2     1  UNL1        0.0200
     22  C         23.1020  -22.4700   -9.3240 C.2     1  UNL1        0.2510
     23  N         23.9500  -23.3550   -9.9480 N.am    1  UNL1       -0.3530
     24  H         23.7340  -24.3410   -9.9750 H       1  UNL1        0.1630
     25  O         23.3490  -21.2800   -9.1740 O.2     1  UNL1       -0.2680
     26  C         25.1710  -22.9310  -10.5940 C.3     1  UNL1        0.1610
     27  C         24.9470  -22.7960  -12.0750 C.2     1  UNL1       -0.0400
     28  C         25.4980  -23.7260  -12.9590 C.2     1  UNL1        0.0110
     29  C         25.3200  -23.5920  -14.3440 C.2     1  UNL1        0.0300
     30  C         24.6040  -22.5220  -14.9100 C.2     1  UNL1        0.0290
     31  C         24.0500  -21.6080  -13.9950 C.2     1  UNL1        0.0300
     32  C         24.2210  -21.7320  -12.6070 C.2     1  UNL1        0.0110
     33  N         24.4180  -22.3960  -16.2930 N.pl3   1  UNL1       -0.3900
     34  C         24.1120  -23.5910  -17.0780 C.3     1  UNL1        0.1490
     35  C         25.1460  -21.3460  -17.0060 C.3     1  UNL1        0.1490
@<TRIPOS>BOND
     1    34    33    1
     2    35    33    1
     3    33    30    1
     4    30    29    2
     5    30    31    1
     6    29    28    1
     7    31    32    2
     8    28    27    2
     9    32    27    1
    10    19    18    1
    11    27    26    1
    12    18    17    2
    13    18    20    1
    14    17    16    1
    15    20    21    2
    16    26    23    1
    17    16    15    2
    18    21    15    1
    19    24    23    1
    20    23    22   am
    21    15    14    1
    22    22    25    2
    23    22     1    1
    24     6     1    2
    25     6     5    1
    26    14    13    1
    27     1     2    1
    28     5     4    2
    29     2     3    2
    30     4     3    1
    31     4     7    1
    32    13    12    2
    33    13     8    1
    34     7     8    1
    35    12    11    1
    36     8     9    2
    37    11    10    2
    38     9    10    1
