@<TRIPOS>MOLECULE
63277_out_ligand_01.pdbqt
 31 35 0 0 0
SMALL
GASTEIGER

@<TRIPOS>ATOM
      1  N         19.2070  -23.6040   -9.0780 N.pl3   1  UNL1       -0.2810
      2  C         19.1220  -22.7110  -10.0190 C.ar    1  UNL1        0.1620
      3  C         17.8580  -21.9660  -10.3460 C.ar    1  UNL1        0.0840
      4  C         16.6420  -22.1230   -9.7870 C.3     1  UNL1        0.0580
      5  C         17.9410  -20.8810  -11.4100 C.ar    1  UNL1        0.2830
      6  O         16.9600  -20.1960  -11.6810 O.2     1  UNL1       -0.2650
      7  N         19.1370  -20.6910  -12.0700 N.ar    1  UNL1       -0.1820
      8  C         20.1520  -21.4040  -11.7390 C.ar    1  UNL1        0.2010
      9  S         21.6960  -21.2120  -12.5260 S.2     1  UNL1       -0.0260
     10  C         22.2960  -22.4680  -11.4590 C.ar    1  UNL1        0.1550
     11  N         21.4590  -22.9900  -10.6100 N.ar    1  UNL1       -0.1530
     12  N         20.2260  -22.3770  -10.7780 N.ar    1  UNL1       -0.1890
     13  H         20.1840  -23.9330   -9.0730 H       1  UNL1        0.1880
     14  C         16.2550  -23.0700   -8.8020 C.2     1  UNL1        0.0770
     15  C         15.8770  -24.4020   -8.9040 C.2     1  UNL1        0.0400
     16  C         15.5300  -24.8590   -7.6110 C.2     1  UNL1        0.0470
     17  C         15.6810  -23.7850   -6.7640 C.2     1  UNL1        0.1130
     18  O         16.0960  -22.7050   -7.4830 O.2     1  UNL1       -0.3040
     19  S         15.3930  -23.7310   -5.0460 S.3     1  UNL1       -0.1000
     20  C         17.0900  -23.8990   -4.4200 C.3     1  UNL1        0.1200
     21  C         17.9240  -22.6850   -4.7500 C.2     1  UNL1       -0.0490
     22  C         17.9600  -21.5870   -3.8770 C.2     1  UNL1        0.0080
     23  C         18.7400  -20.4690   -4.1780 C.2     1  UNL1        0.0010
     24  C         19.4940  -20.4380   -5.3500 C.2     1  UNL1        0.0000
     25  C         19.4740  -21.5260   -6.2200 C.2     1  UNL1        0.0010
     26  C         18.6950  -22.6460   -5.9210 C.2     1  UNL1        0.0080
     27  C         23.6690  -22.8700  -11.5580 C.2     1  UNL1        0.1120
     28  C         24.4210  -23.2660  -12.6510 C.2     1  UNL1        0.0420
     29  C         25.7230  -23.5520  -12.1750 C.2     1  UNL1        0.0270
     30  C         25.6940  -23.3140  -10.8230 C.2     1  UNL1        0.1420
     31  O         24.4600  -22.9020  -10.4390 O.2     1  UNL1       -0.3200
@<TRIPOS>BOND
     1    28    29    1
     2    28    27    2
     3     9     8   ar
     4     9    10   ar
     5    29    30    2
     6     7     8   ar
     7     7     5   ar
     8     8    12   ar
     9     6     5    2
    10    27    10    1
    11    27    31    1
    12    10    11   ar
    13     5     3   ar
    14    30    31    1
    15    12    11   ar
    16    12     2   ar
    17     3     2   ar
    18     3     4    1
    19     2     1    1
    20     4    14    1
    21     1    13    1
    22    15    14    2
    23    15    16    1
    24    14    18    1
    25    16    17    2
    26    18    17    1
    27    17    19    1
    28    25    26    1
    29    25    24    2
    30    26    21    2
    31    24    23    1
    32    19    20    1
    33    21    20    1
    34    21    22    1
    35    23    22    2
