@<TRIPOS>MOLECULE
6328_out_ligand_01.pdbqt
 35 38 0 0 0
SMALL
GASTEIGER

@<TRIPOS>ATOM
      1  N         23.5480  -22.8330  -12.1120 N.am    1  UNL1       -0.3230
      2  C         23.5860  -22.3100  -10.8300 C.2     1  UNL1        0.2560
      3  O         24.5480  -21.7910  -10.2770 O.2     1  UNL1       -0.2670
      4  H         22.6400  -23.0930  -12.4720 H       1  UNL1        0.1690
      5  C         22.2890  -22.3590  -10.0940 C.2     1  UNL1        0.0320
      6  C         21.0620  -22.4480  -10.7630 C.2     1  UNL1        0.0180
      7  C         19.8700  -22.4930  -10.0330 C.2     1  UNL1        0.0130
      8  C         19.8870  -22.4600   -8.6300 C.2     1  UNL1       -0.0200
      9  C         21.1210  -22.3960   -7.9690 C.2     1  UNL1        0.0130
     10  C         22.3140  -22.3500   -8.6960 C.2     1  UNL1        0.0180
     11  C         18.6280  -22.5020   -7.8590 C.2     1  UNL1        0.0510
     12  C         18.6880  -22.3780   -6.5220 C.2     1  UNL1        0.0320
     13  C         17.4790  -22.4220   -5.7170 C.2     1  UNL1       -0.0010
     14  C         17.5050  -22.2910   -4.3270 C.2     1  UNL1        0.0140
     15  C         16.2550  -22.6010   -6.3520 C.2     1  UNL1        0.0890
     16  C         16.3130  -22.3400   -3.5960 C.2     1  UNL1        0.0010
     17  C         15.0930  -22.5190   -4.2520 C.2     1  UNL1        0.0030
     18  C         15.0600  -22.6510   -5.6380 C.2     1  UNL1        0.0380
     19  O         16.1820  -22.7390   -7.7480 O.3     1  UNL1       -0.2740
     20  C         17.3200  -22.7040   -8.5490 C.2     1  UNL1        0.2990
     21  O         17.2350  -22.8320   -9.7660 O.2     1  UNL1       -0.2590
     22  C         24.6260  -22.9590  -13.0160 C.2     1  UNL1        0.0370
     23  C         25.5760  -23.9760  -12.9540 C.2     1  UNL1        0.0290
     24  C         26.6080  -24.0310  -13.8940 C.2     1  UNL1        0.0040
     25  C         26.6970  -23.0740  -14.9070 C.2     1  UNL1        0.0290
     26  C         25.7560  -22.0510  -14.9900 C.2     1  UNL1        0.0360
     27  C         24.7220  -22.0040  -14.0400 C.2     1  UNL1        0.0590
     28  N         25.7710  -21.0430  -15.9790 N.am    1  UNL1       -0.3270
     29  C         25.0430  -21.0070  -17.1590 C.2     1  UNL1        0.2220
     30  O         24.2500  -21.8530  -17.5550 O.2     1  UNL1       -0.2730
     31  H         26.3850  -20.2580  -15.8060 H       1  UNL1        0.1690
     32  C         25.3480  -19.7450  -17.9560 C.3     1  UNL1        0.1030
     33  C         26.6430  -19.0690  -17.5050 C.3     1  UNL1        0.0090
     34  C         26.4400  -17.6330  -17.0220 C.3     1  UNL1       -0.0040
     35  C         26.6620  -17.4590  -15.5280 C.3     1  UNL1        0.0050
@<TRIPOS>BOND
     1    32    33    1
     2    32    29    1
     3    30    29    2
     4    33    34    1
     5    29    28   am
     6    34    35    1
     7    28    31    1
     8    28    26    1
     9    26    25    2
    10    26    27    1
    11    25    24    1
    12    27    22    2
    13    24    23    2
    14    22    23    1
    15    22     1    1
    16     4     1    1
    17     1     2   am
    18     2     3    2
    19     2     5    1
    20     6     5    2
    21     6     7    1
    22     5    10    1
    23     7     8    2
    24    21    20    2
    25    10     9    2
    26     8     9    1
    27     8    11    1
    28    20    11    1
    29    20    19    1
    30    11    12    2
    31    19    15    1
    32    12    13    1
    33    15    13    2
    34    15    18    1
    35    13    14    1
    36    18    17    2
    37    14    16    2
    38    17    16    1
