@<TRIPOS>MOLECULE
63286_out_ligand_01.pdbqt
 32 35 0 0 0
SMALL
GASTEIGER

@<TRIPOS>ATOM
      1  N         19.2500  -21.5770  -11.6090 N.pl3   1  UNL1       -0.2810
      2  C         19.1630  -22.4440  -10.5560 C.2     1  UNL1        0.1460
      3  C         17.8570  -22.3160  -10.1160 C.2     1  UNL1        0.1580
      4  N         17.2240  -21.3880  -10.9110 N.2     1  UNL1       -0.1530
      5  N         18.0900  -20.9380  -11.8080 N.2     1  UNL1        0.0050
      6  C         20.4120  -21.3060  -12.4330 C.3     1  UNL1        0.1710
      7  C         21.6850  -21.9600  -11.8840 C.3     1  UNL1        0.1100
      8  C         22.2690  -21.2520  -10.6670 C.3     1  UNL1        0.0660
      9  C         23.5690  -22.0220  -10.4580 C.3     1  UNL1        0.1900
     10  C         24.0140  -22.4240  -11.8690 C.3     1  UNL1        0.1640
     11  F         24.4830  -21.2180   -9.8660 F       1  UNL1       -0.2480
     12  N         22.8640  -22.1440  -12.7360 N.am    1  UNL1       -0.3380
     13  C         23.1180  -21.3300  -13.8500 C.2     1  UNL1        0.2720
     14  O         22.5300  -20.2660  -14.0380 O.2     1  UNL1       -0.2660
     15  C         24.1510  -21.7990  -14.8430 C.2     1  UNL1        0.1240
     16  C         25.4970  -21.6000  -14.5570 C.2     1  UNL1        0.0370
     17  C         26.4400  -22.0220  -15.4870 C.2     1  UNL1        0.0040
     18  C         26.0130  -22.6200  -16.6680 C.2     1  UNL1        0.0270
     19  C         24.6480  -22.7840  -16.8850 C.2     1  UNL1        0.0310
     20  C         24.1590  -23.4170  -18.1530 C.3     1  UNL1        0.0700
     21  N         23.7130  -22.3870  -15.9900 N.2     1  UNL1       -0.2480
     22  C         17.1720  -23.0000   -9.0200 C.2     1  UNL1        0.2730
     23  O         15.9540  -23.1520   -8.9920 O.2     1  UNL1       -0.2660
     24  N         17.9950  -23.4580   -8.0070 N.am    1  UNL1       -0.3510
     25  H         18.9570  -23.1580   -7.9860 H       1  UNL1        0.1630
     26  C         17.4520  -24.0070   -6.7850 C.3     1  UNL1        0.1610
     27  C         17.7820  -23.1180   -5.6150 C.2     1  UNL1       -0.0410
     28  C         17.4680  -23.5080   -4.3050 C.2     1  UNL1        0.0090
     29  C         17.7980  -22.6860   -3.2260 C.2     1  UNL1        0.0010
     30  C         18.4500  -21.4740   -3.4430 C.2     1  UNL1        0.0000
     31  C         18.7740  -21.0800   -4.7400 C.2     1  UNL1        0.0010
     32  C         18.4430  -21.8980   -5.8210 C.2     1  UNL1        0.0090
@<TRIPOS>BOND
     1    20    19    1
     2    19    18    2
     3    19    21    1
     4    18    17    1
     5    21    15    2
     6    17    16    2
     7    15    16    1
     8    15    13    1
     9    14    13    2
    10    13    12   am
    11    12     7    1
    12    12    10    1
    13     6     7    1
    14     6     1    1
    15     7     8    1
    16    10     9    1
    17     5     1    1
    18     5     4    2
    19     1     2    1
    20     4     3    1
    21     8     9    1
    22     2     3    2
    23     9    11    1
    24     3    22    1
    25    22    23    2
    26    22    24   am
    27    24    25    1
    28    24    26    1
    29    26    27    1
    30    32    27    2
    31    32    31    1
    32    27    28    1
    33    31    30    2
    34    28    29    2
    35    30    29    1
