@<TRIPOS>MOLECULE
63293_out_ligand_01.pdbqt
 37 41 0 0 0
SMALL
GASTEIGER

@<TRIPOS>ATOM
      1  C         23.6460  -21.6670  -10.0340 C.ar    1  UNL1        0.1920
      2  N         24.7900  -21.0190  -10.0170 N.ar    1  UNL1       -0.1220
      3  N         25.2500  -20.9510  -11.3080 N.ar    1  UNL1       -0.1280
      4  C         24.3750  -21.5620  -12.0830 C.ar    1  UNL1        0.1740
      5  N         23.3310  -22.0160  -11.3160 N.ar    1  UNL1       -0.3000
      6  S         22.6640  -21.9900   -8.6520 S.3     1  UNL1       -0.0810
      7  C         22.4370  -23.7810   -8.8020 C.3     1  UNL1        0.1850
      8  C         20.9960  -24.1850   -8.5110 C.2     1  UNL1        0.2310
      9  N         20.2470  -23.1770   -7.9120 N.am    1  UNL1       -0.3260
     10  H         20.6760  -22.2520   -7.9030 H       1  UNL1        0.1690
     11  O         20.6120  -25.3240   -8.7750 O.2     1  UNL1       -0.2720
     12  C         18.9480  -23.2720   -7.3620 C.2     1  UNL1        0.0400
     13  C         18.0380  -24.2640   -7.7410 C.2     1  UNL1        0.0300
     14  C         16.7710  -24.3570   -7.1540 C.2     1  UNL1        0.0090
     15  C         16.3820  -23.4570   -6.1640 C.2     1  UNL1       -0.0610
     16  C         15.0360  -23.5530   -5.5080 C.3     1  UNL1        0.0480
     17  C         17.2770  -22.4520   -5.7860 C.2     1  UNL1        0.0150
     18  C         18.5570  -22.3470   -6.3730 C.2     1  UNL1       -0.0350
     19  C         19.4470  -21.2290   -5.9160 C.3     1  UNL1        0.0500
     20  C         22.1690  -22.7490  -11.7820 C.3     1  UNL1        0.1980
     21  C         20.9350  -21.9370  -11.6520 C.2     1  UNL1        0.0700
     22  C         20.5590  -20.6900  -12.1120 C.2     1  UNL1        0.0360
     23  C         19.2340  -20.4800  -11.6610 C.2     1  UNL1        0.0270
     24  C         18.8890  -21.6020  -10.9470 C.2     1  UNL1        0.1420
     25  O         19.9090  -22.4960  -10.9470 O.2     1  UNL1       -0.3250
     26  C         24.5050  -21.6850  -13.5000 C.ar    1  UNL1        0.0820
     27  S         24.1860  -20.3420  -14.5100 S.2     1  UNL1       -0.0630
     28  C         24.5470  -21.2370  -15.9150 C.ar    1  UNL1        0.1100
     29  N         24.4830  -20.6550  -17.1310 N.2     1  UNL1       -0.2530
     30  C         24.9010  -22.5570  -15.6430 C.ar    1  UNL1        0.0270
     31  C         24.8030  -21.4750  -18.1530 C.2     1  UNL1        0.1180
     32  C         25.1750  -22.8030  -18.0290 C.2     1  UNL1        0.0200
     33  C         25.2290  -23.3660  -16.7560 C.2     1  UNL1        0.0180
     34  C         24.8540  -22.8080  -14.2290 C.ar    1  UNL1        0.0600
     35  N         25.1400  -24.0160  -13.6740 N.pl3   1  UNL1       -0.3970
     36  H         24.8350  -24.2160  -12.7210 H       1  UNL1        0.1560
     37  H         25.1060  -24.8570  -14.2480 H       1  UNL1        0.1560
@<TRIPOS>BOND
     1    31    32    2
     2    31    29    1
     3    32    33    1
     4    29    28    2
     5    33    30    2
     6    28    30   ar
     7    28    27   ar
     8    30    34   ar
     9    27    26   ar
    10    37    35    1
    11    34    35    1
    12    34    26   ar
    13    35    36    1
    14    26     4    1
    15    22    23    1
    16    22    21    2
    17     4     5   ar
    18     4     3   ar
    19    20    21    1
    20    20     5    1
    21    23    24    2
    22    21    25    1
    23     5     1   ar
    24     3     2   ar
    25    25    24    1
    26     1     2   ar
    27     1     6    1
    28     7     6    1
    29     7     8    1
    30    11     8    2
    31     8     9   am
    32     9    10    1
    33     9    12    1
    34    13    12    2
    35    13    14    1
    36    12    18    1
    37    14    15    2
    38    18    19    1
    39    18    17    2
    40    15    17    1
    41    15    16    1
