@<TRIPOS>MOLECULE
63296_out_ligand_01.pdbqt
 34 37 0 0 0
SMALL
GASTEIGER

@<TRIPOS>ATOM
      1  C         21.3480  -23.2550   -9.8340 C.2     1  UNL1        0.0340
      2  C         20.3520  -22.4940  -10.4540 C.2     1  UNL1        0.0310
      3  C         19.0170  -22.6070  -10.0530 C.2     1  UNL1        0.0270
      4  C         18.6740  -23.4930   -9.0310 C.2     1  UNL1        0.0750
      5  C         19.6570  -24.2480   -8.3890 C.2     1  UNL1        0.0270
      6  C         20.9890  -24.1290   -8.7970 C.2     1  UNL1        0.0310
      7  N         22.7120  -23.2030  -10.1840 N.am    1  UNL1       -0.3270
      8  C         23.5880  -22.1410  -10.0260 C.2     1  UNL1        0.2260
      9  O         23.3320  -21.0580   -9.5050 O.2     1  UNL1       -0.2730
     10  H         23.0780  -24.0250  -10.6520 H       1  UNL1        0.1690
     11  C         24.9910  -22.4390  -10.5400 C.3     1  UNL1        0.1440
     12  C         25.4470  -21.4380  -11.5500 C.2     1  UNL1       -0.0140
     13  C         25.1530  -21.4050  -12.9500 C.2     1  UNL1        0.0070
     14  C         24.4240  -22.2120  -13.8390 C.2     1  UNL1        0.0150
     15  C         25.7750  -20.2660  -13.4540 C.2     1  UNL1        0.0920
     16  C         24.3590  -21.8420  -15.1920 C.2     1  UNL1        0.0080
     17  C         24.9980  -20.6840  -15.6740 C.2     1  UNL1       -0.0530
     18  C         24.9000  -20.3560  -17.1410 C.3     1  UNL1        0.0490
     19  C         25.7320  -19.8480  -14.7940 C.2     1  UNL1       -0.0210
     20  C         26.4280  -18.6070  -15.2710 C.3     1  UNL1        0.0520
     21  O         26.4330  -19.6190  -12.4490 O.2     1  UNL1       -0.3210
     22  C         26.2390  -20.3320  -11.3120 C.2     1  UNL1        0.1510
     23  S         16.9770  -23.6200   -8.5150 S.O2    1  UNL1        0.2470
     24  O         16.1570  -23.6750   -9.7070 O.2     1  UNL1       -0.2050
     25  O         16.9170  -24.6420   -7.4930 O.2     1  UNL1       -0.2050
     26  N         16.7460  -22.0700   -7.8490 N.pl3   1  UNL1       -0.1580
     27  H         15.7720  -21.8180   -8.0500 H       1  UNL1        0.1480
     28  C         16.9400  -22.0810   -6.4000 C.ar    1  UNL1        0.1700
     29  O         15.9430  -22.3340   -5.5100 O.2     1  UNL1       -0.2000
     30  N         16.4430  -22.2380   -4.2210 N.ar    1  UNL1       -0.1310
     31  C         17.7390  -21.9130   -4.3590 C.ar    1  UNL1        0.0680
     32  C         18.5910  -21.7400   -3.1540 C.3     1  UNL1        0.0730
     33  C         18.1060  -21.7740   -5.7290 C.ar    1  UNL1        0.0130
     34  C         19.4300  -21.4080   -6.2890 C.3     1  UNL1        0.0540
@<TRIPOS>BOND
     1    18    17    1
     2    17    16    2
     3    17    19    1
     4    20    19    1
     5    16    14    1
     6    19    15    2
     7    14    13    2
     8    15    13    1
     9    15    21    1
    10    13    12    1
    11    21    22    1
    12    12    22    2
    13    12    11    1
    14    10     7    1
    15    11     8    1
    16     2     3    1
    17     2     1    2
    18     7     8   am
    19     7     1    1
    20     3     4    2
    21     8     9    2
    22     1     6    1
    23    24    23    2
    24     4    23    1
    25     4     5    1
    26     6     5    2
    27    23    26    1
    28    23    25    2
    29    27    26    1
    30    26    28    1
    31    28    33   ar
    32    28    29   ar
    33    34    33    1
    34    33    31   ar
    35    29    30   ar
    36    31    30   ar
    37    31    32    1
