@<TRIPOS>MOLECULE
6330_out_ligand_01.pdbqt
 34 37 0 0 0
SMALL
GASTEIGER

@<TRIPOS>ATOM
      1  C         21.0580  -22.5620  -10.7960 C.2     1  UNL1        0.0220
      2  C         20.0530  -21.6880  -11.2120 C.2     1  UNL1        0.0260
      3  C         18.7570  -21.8320  -10.7140 C.2     1  UNL1        0.0270
      4  C         18.4860  -22.8340   -9.7790 C.2     1  UNL1        0.0800
      5  C         19.4890  -23.7220   -9.3720 C.2     1  UNL1        0.0270
      6  C         20.7820  -23.5760   -9.8770 C.2     1  UNL1        0.0260
      7  S         16.8380  -23.0170   -9.1310 S.O2    1  UNL1        0.2630
      8  O         16.3850  -21.7120   -8.7010 O.2     1  UNL1       -0.2000
      9  O         16.0820  -23.7920  -10.0930 O.2     1  UNL1       -0.2000
     10  N         17.0550  -24.0180   -7.7920 N.pl3   1  UNL1       -0.2800
     11  H         17.8780  -24.6130   -7.8630 H       1  UNL1        0.1790
     12  C         16.6630  -23.5610   -6.4970 C.2     1  UNL1        0.0530
     13  C         15.4610  -24.0440   -5.9720 C.2     1  UNL1        0.0310
     14  C         15.0240  -23.6270   -4.7200 C.2     1  UNL1        0.0030
     15  C         15.7880  -22.7220   -3.9860 C.2     1  UNL1        0.0120
     16  C         16.9930  -22.2130   -4.4960 C.2     1  UNL1       -0.0240
     17  C         17.7450  -21.2960   -3.7440 C.2     1  UNL1        0.0120
     18  C         17.4490  -22.6260   -5.7740 C.2     1  UNL1        0.0010
     19  C         18.9340  -20.7670   -4.2420 C.2     1  UNL1        0.0010
     20  C         19.3870  -21.1460   -5.4980 C.2     1  UNL1        0.0010
     21  C         18.6590  -22.0690   -6.2520 C.2     1  UNL1        0.0140
     22  N         22.3890  -22.3720  -11.2680 N.pl3   1  UNL1       -0.1850
     23  H         22.7400  -23.1140  -11.8790 H       1  UNL1        0.1460
     24  S         23.5810  -22.0500  -10.0930 S.O2    1  UNL1        0.2170
     25  O         23.0750  -21.0670   -9.1600 O.2     1  UNL1       -0.2110
     26  O         23.9980  -23.3630   -9.6430 O.2     1  UNL1       -0.2110
     27  C         24.8850  -21.3480  -11.1120 C.3     1  UNL1        0.1960
     28  C         24.8200  -21.9460  -12.4930 C.2     1  UNL1       -0.0430
     29  C         24.2340  -21.2300  -13.5480 C.2     1  UNL1        0.0100
     30  C         24.1740  -21.7770  -14.8300 C.2     1  UNL1        0.0240
     31  C         24.7020  -23.0440  -15.0680 C.2     1  UNL1        0.0340
     32 CL         24.6280  -23.7180  -16.6500 Cl      1  UNL1       -0.0840
     33  C         25.2900  -23.7670  -14.0330 C.2     1  UNL1        0.0240
     34  C         25.3490  -23.2210  -12.7490 C.2     1  UNL1        0.0100
@<TRIPOS>BOND
     1    32    31    1
     2    31    30    2
     3    31    33    1
     4    30    29    1
     5    33    34    2
     6    29    28    2
     7    34    28    1
     8    28    27    1
     9    23    22    1
    10    22     1    1
    11    22    24    1
    12     2     1    2
    13     2     3    1
    14    27    24    1
    15     1     6    1
    16     3     4    2
    17     9     7    2
    18    24    26    2
    19    24    25    2
    20     6     5    2
    21     4     5    1
    22     4     7    1
    23     7     8    2
    24     7    10    1
    25    11    10    1
    26    10    12    1
    27    12    13    2
    28    12    18    1
    29    21    18    1
    30    21    20    2
    31    13    14    1
    32    18    16    2
    33    20    19    1
    34    14    15    2
    35    16    15    1
    36    16    17    1
    37    19    17    2
