@<TRIPOS>MOLECULE
63320_out_ligand_01.pdbqt
 33 36 0 0 0
SMALL
GASTEIGER

@<TRIPOS>ATOM
      1  C         22.2810  -22.1290  -11.3350 C.2     1  UNL1        0.0360
      2  C         21.0930  -21.4440  -11.6230 C.2     1  UNL1        0.0300
      3  C         19.9260  -21.6950  -10.8930 C.2     1  UNL1        0.0190
      4  C         19.9370  -22.6430   -9.8640 C.2     1  UNL1        0.0320
      5  C         21.1130  -23.3480   -9.5920 C.2     1  UNL1        0.0190
      6  C         22.2800  -23.0880  -10.3220 C.2     1  UNL1        0.0300
      7  N         23.4060  -21.8220  -12.1250 N.am    1  UNL1       -0.3090
      8  C         24.6690  -21.4630  -11.6960 C.2     1  UNL1        0.3270
      9  N         25.6130  -21.3090  -12.7220 N.am    1  UNL1       -0.2960
     10  O         24.9530  -21.2080  -10.5270 O.2     1  UNL1       -0.2460
     11  C         26.7030  -20.3610  -12.4960 C.3     1  UNL1        0.1440
     12  C         25.4640  -21.7650  -14.0690 C.2     1  UNL1        0.0800
     13  C         26.3940  -19.0370  -13.1730 C.3     1  UNL1        0.1010
     14  S         26.3270  -19.2220  -14.9810 S.3     1  UNL1       -0.1060
     15  C         25.7420  -20.9040  -15.1500 C.2     1  UNL1        0.1210
     16  N         25.5680  -21.2690  -16.4440 N.2     1  UNL1       -0.2440
     17  C         25.1350  -22.5160  -16.7110 C.2     1  UNL1        0.0320
     18  C         24.9630  -22.8910  -18.1530 C.3     1  UNL1        0.0700
     19  C         24.8950  -23.4480  -15.7110 C.2     1  UNL1        0.0350
     20  C         25.0860  -23.0900  -14.3680 C.2     1  UNL1       -0.0300
     21  C         24.9290  -24.1780  -13.3380 C.3     1  UNL1        0.0500
     22  H         23.2370  -21.7070  -13.1140 H       1  UNL1        0.1700
     23  C         18.7210  -22.9470   -9.0620 C.2     1  UNL1        0.2510
     24  O         17.6080  -22.6630   -9.4910 O.2     1  UNL1       -0.2680
     25  N         18.9340  -23.5840   -7.8590 N.am    1  UNL1       -0.3510
     26  H         19.8140  -24.0620   -7.7170 H       1  UNL1        0.1630
     27  C         17.8200  -24.1180   -7.1000 C.3     1  UNL1        0.1820
     28  C         17.7540  -23.5040   -5.7220 C.2     1  UNL1        0.0510
     29  C         18.2340  -22.2150   -5.5010 C.2     1  UNL1        0.0290
     30  C         18.1230  -21.6640   -4.2280 C.2     1  UNL1        0.0030
     31  C         17.5290  -22.4070   -3.2160 C.2     1  UNL1        0.0190
     32  C         17.0650  -23.6760   -3.5200 C.2     1  UNL1        0.1170
     33  N         17.1560  -24.2380   -4.7450 N.2     1  UNL1       -0.2640
@<TRIPOS>BOND
     1    18    17    1
     2    17    16    2
     3    17    19    1
     4    16    15    1
     5    19    20    2
     6    15    14    1
     7    15    12    2
     8    14    13    1
     9    20    12    1
    10    20    21    1
    11    12     9    1
    12    13    11    1
    13    22     7    1
    14     9    11    1
    15     9     8   am
    16     7     8   am
    17     7     1    1
    18     8    10    2
    19     2     1    2
    20     2     3    1
    21     1     6    1
    22     3     4    2
    23     6     5    2
    24     4     5    1
    25     4    23    1
    26    24    23    2
    27    23    25   am
    28    25    26    1
    29    25    27    1
    30    27    28    1
    31    28    29    2
    32    28    33    1
    33    29    30    1
    34    33    32    2
    35    30    31    2
    36    32    31    1
