@<TRIPOS>MOLECULE
63332_out_ligand_01.pdbqt
 30 33 0 0 0
SMALL
GASTEIGER

@<TRIPOS>ATOM
      1  C         25.3400  -23.0160  -12.0370 C.3     1  UNL1        0.0480
      2  C         23.8860  -22.6460  -12.0000 C.2     1  UNL1       -0.0610
      3  C         23.3660  -21.7050  -12.8940 C.2     1  UNL1        0.0090
      4  C         22.0180  -21.3320  -12.8550 C.2     1  UNL1        0.0310
      5  C         21.2060  -21.9260  -11.8850 C.ar    1  UNL1        0.0430
      6  N         19.8700  -21.7490  -11.6200 N.ar    1  UNL1       -0.3520
      7  C         19.4750  -22.5320  -10.5640 C.ar    1  UNL1        0.0950
      8  C         18.1270  -22.5220  -10.0910 C.2     1  UNL1        0.2230
      9  N         17.6960  -23.2030   -9.0500 N.2     1  UNL1       -0.2030
     10  C         16.3650  -22.8840   -9.0070 C.2     1  UNL1        0.1580
     11  N         15.9580  -22.0340   -9.9560 N.4     1  UNL1       -0.1110
     12  O         17.1240  -21.7920  -10.6840 O.2     1  UNL1       -0.1890
     13  C         20.5840  -23.2460  -10.1300 C.ar    1  UNL1       -0.0180
     14  C         20.6240  -24.2280   -9.0110 C.3     1  UNL1        0.0520
     15  C         21.6840  -22.8610  -10.9660 C.ar    1  UNL1       -0.0010
     16  C         23.0470  -23.2200  -11.0280 C.2     1  UNL1        0.0210
     17  H         19.2670  -21.1230  -12.1340 H       1  UNL1        0.1660
     18  C         15.4520  -23.4230   -7.9710 C.3     1  UNL1        0.1030
     19  C         15.3500  -22.5370   -6.7260 C.3     1  UNL1        0.1330
     20  N         15.4570  -23.2630   -5.4470 N.am    1  UNL1       -0.3520
     21  C         14.4240  -24.2490   -5.1640 C.3     1  UNL1        0.1520
     22  C         16.6480  -23.3900   -4.7240 C.2     1  UNL1        0.2530
     23  O         16.8470  -24.2640   -3.8840 O.2     1  UNL1       -0.2670
     24  C         17.7430  -22.4310   -4.9690 C.2     1  UNL1        0.0350
     25  C         17.8710  -21.3200   -4.1270 C.2     1  UNL1        0.0170
     26  C         18.8830  -20.3870   -4.3600 C.2     1  UNL1        0.0040
     27  C         19.7500  -20.5610   -5.4390 C.2     1  UNL1        0.0420
     28  C         19.5910  -21.6580   -6.2830 C.2     1  UNL1        0.1170
     29  F         20.4230  -21.8130   -7.3220 F       1  UNL1       -0.2060
     30  C         18.5900  -22.5940   -6.0670 C.2     1  UNL1        0.0590
@<TRIPOS>BOND
     1     3     4    1
     2     3     2    2
     3     4     5    2
     4    17     6    1
     5     1     2    1
     6     2    16    1
     7     5     6   ar
     8     5    15   ar
     9     6     7   ar
    10    16    15    2
    11    15    13   ar
    12    12     8    1
    13    12    11    1
    14     7    13   ar
    15     7     8    1
    16    13    14    1
    17     8     9    2
    18    11    10    1
    19     9    10    2
    20    10    18    1
    21    18    19    1
    22    29    28    1
    23    19    20    1
    24    28    30    1
    25    28    27    2
    26    30    24    2
    27    20    21    1
    28    20    22   am
    29    27    26    1
    30    24    22    1
    31    24    25    1
    32    22    23    2
    33    26    25    2
