@<TRIPOS>MOLECULE
63359_out_ligand_01.pdbqt
 36 40 0 0 0
SMALL
GASTEIGER

@<TRIPOS>ATOM
      1  C         18.8300  -22.0890  -10.6550 C.2     1  UNL1        0.0480
      2  C         19.0850  -21.1790  -11.7710 C.2     1  UNL1        0.0220
      3  C         20.3190  -20.9900  -12.2680 C.2     1  UNL1        0.0540
      4  C         21.4300  -21.7330  -11.6440 C.ar    1  UNL1        0.1580
      5  N         22.6820  -21.7300  -11.9900 N.ar    1  UNL1       -0.1490
      6  N         23.2730  -22.5810  -11.0670 N.ar    1  UNL1       -0.2080
      7  C         22.3090  -23.1190  -10.1990 C.ar    1  UNL1        0.3510
      8  O         22.4820  -23.9420   -9.3150 O.2     1  UNL1       -0.2440
      9  N         21.1280  -22.5320  -10.5880 N.ar    1  UNL1       -0.2550
     10  C         19.8690  -22.7210  -10.0790 C.2     1  UNL1        0.1200
     11  C         24.6640  -22.9820  -11.1210 C.3     1  UNL1        0.2590
     12  C         25.3240  -22.6080  -12.4510 C.2     1  UNL1        0.2420
     13  O         26.0500  -23.4080  -13.0370 O.2     1  UNL1       -0.2710
     14  N         25.1280  -21.2830  -12.7960 N.am    1  UNL1       -0.3260
     15  H         24.5980  -20.7450  -12.1100 H       1  UNL1        0.1690
     16  C         25.5880  -20.5960  -13.9320 C.2     1  UNL1        0.0350
     17  C         25.6380  -21.3230  -15.1390 C.2     1  UNL1        0.0300
     18  C         26.0900  -20.7370  -16.3250 C.2     1  UNL1        0.0100
     19  C         26.4850  -19.4130  -16.2900 C.2     1  UNL1       -0.0520
     20  C         26.4450  -18.6860  -15.0970 C.2     1  UNL1       -0.0500
     21  C         27.0340  -18.5790  -17.4050 C.3     1  UNL1        0.0390
     22  C         26.0060  -19.2630  -13.9130 C.2     1  UNL1        0.0370
     23  C         26.9720  -17.3000  -15.3010 C.3     1  UNL1        0.0390
     24  C         26.8710  -17.1660  -16.8260 C.3     1  UNL1        0.0090
     25  C         17.4340  -22.2500  -10.1410 C.2     1  UNL1        0.2530
     26  N         17.1760  -23.4430   -9.5130 N.am    1  UNL1       -0.3530
     27  H         17.9050  -24.1280   -9.3820 H       1  UNL1        0.1630
     28  O         16.5960  -21.3780  -10.3320 O.2     1  UNL1       -0.2680
     29  C         15.8990  -23.7140   -8.8920 C.3     1  UNL1        0.1610
     30  C         15.9720  -23.4810   -7.4060 C.2     1  UNL1       -0.0410
     31  C         15.0940  -22.5780   -6.7910 C.2     1  UNL1        0.0090
     32  C         15.1620  -22.3450   -5.4150 C.2     1  UNL1        0.0070
     33  C         16.1180  -23.0030   -4.6330 C.2     1  UNL1       -0.0620
     34  C         16.1980  -22.7670   -3.1530 C.3     1  UNL1        0.0480
     35  C         17.0010  -23.8990   -5.2470 C.2     1  UNL1        0.0070
     36  C         16.9320  -24.1350   -6.6220 C.2     1  UNL1        0.0090
@<TRIPOS>BOND
     1    21    24    1
     2    21    19    1
     3    24    23    1
     4    18    19    2
     5    18    17    1
     6    19    20    1
     7    23    20    1
     8    17    16    2
     9    20    22    2
    10    16    22    1
    11    16    14    1
    12    13    12    2
    13    14    12   am
    14    14    15    1
    15    12    11    1
    16     3     2    2
    17     3     4    1
    18     5     4   ar
    19     5     6   ar
    20     2     1    1
    21     4     9   ar
    22    11     6    1
    23     6     7   ar
    24     1    25    1
    25     1    10    2
    26     9     7   ar
    27     9    10    1
    28    28    25    2
    29     7     8    2
    30    25    26   am
    31    26    27    1
    32    26    29    1
    33    29    30    1
    34    30    31    2
    35    30    36    1
    36    31    32    1
    37    36    35    2
    38    32    33    2
    39    35    33    1
    40    33    34    1
