@<TRIPOS>MOLECULE
6335_out_ligand_01.pdbqt
 35 37 0 0 0
SMALL
GASTEIGER

@<TRIPOS>ATOM
      1  C         22.9780  -22.8550   -9.1800 C.2     1  UNL1        0.0830
      2  C         22.6750  -21.8210   -8.2870 C.2     1  UNL1        0.0280
      3  C         21.4580  -21.8390   -7.6050 C.2     1  UNL1        0.0340
      4  C         20.5680  -22.8970   -7.7910 C.2     1  UNL1        0.0740
      5  C         20.9610  -23.9880   -8.5800 C.2     1  UNL1        0.1440
      6  F         20.1260  -25.0260   -8.7350 F       1  UNL1       -0.2040
      7  C         22.1560  -23.9760   -9.2880 C.2     1  UNL1        0.0700
      8  S         24.3400  -22.6470  -10.3050 S.O2    1  UNL1        0.2630
      9  O         24.6430  -21.2360  -10.3850 O.2     1  UNL1       -0.2000
     10  O         25.3490  -23.6250   -9.9560 O.2     1  UNL1       -0.2000
     11  N         23.6680  -23.1560  -11.7850 N.pl3   1  UNL1       -0.2810
     12  H         22.6690  -23.3340  -11.6920 H       1  UNL1        0.1790
     13  C         24.1160  -22.5160  -12.9790 C.2     1  UNL1        0.0420
     14  C         23.3910  -21.4640  -13.5410 C.2     1  UNL1        0.0310
     15  C         23.7440  -20.9640  -14.7980 C.2     1  UNL1        0.0270
     16  C         24.8210  -21.5280  -15.4890 C.2     1  UNL1        0.0740
     17  C         25.5740  -22.5550  -14.9140 C.2     1  UNL1        0.0270
     18  C         25.2190  -23.0490  -13.6560 C.2     1  UNL1        0.0310
     19  S         25.3050  -20.8770  -17.0680 S.O2    1  UNL1        0.2390
     20  O         24.1690  -20.9780  -17.9540 O.2     1  UNL1       -0.2060
     21  O         26.5970  -21.4300  -17.4080 O.2     1  UNL1       -0.2060
     22  N         25.5760  -19.2540  -16.7550 N.3     1  UNL1       -0.2250
     23  H         24.7310  -18.7160  -16.9510 H       1  UNL1        0.1360
     24  H         26.3850  -18.8140  -17.2100 H       1  UNL1        0.1360
     25  N         19.2670  -22.9100   -7.2440 N.am    1  UNL1       -0.3200
     26  C         18.7940  -22.0300   -6.2880 C.2     1  UNL1        0.2590
     27  O         19.4470  -21.0940   -5.8280 O.2     1  UNL1       -0.2670
     28  H         18.5890  -23.4860   -7.7410 H       1  UNL1        0.1690
     29  C         17.3770  -22.2010   -5.8500 C.2     1  UNL1        0.0700
     30  C         17.1160  -22.3730   -4.4820 C.2     1  UNL1        0.0200
     31  C         15.8050  -22.5400   -4.0240 C.2     1  UNL1        0.0010
     32  C         14.7430  -22.5350   -4.9270 C.2     1  UNL1        0.0030
     33  C         14.9900  -22.3610   -6.2870 C.2     1  UNL1        0.0430
     34  C         16.2980  -22.1950   -6.7390 C.2     1  UNL1        0.1320
     35  F         16.4890  -22.0190   -8.0560 F       1  UNL1       -0.2050
@<TRIPOS>BOND
     1    20    19    2
     2    21    19    2
     3    24    22    1
     4    19    22    1
     5    19    16    1
     6    23    22    1
     7    16    17    2
     8    16    15    1
     9    17    18    1
    10    15    14    2
    11    18    13    2
    12    14    13    1
    13    13    11    1
    14    11    12    1
    15    11     8    1
    16     9     8    2
    17     8    10    2
    18     8     1    1
    19     7     1    2
    20     7     5    1
    21     1     2    1
    22     6     5    1
    23     5     4    2
    24     2     3    2
    25    35    34    1
    26     4     3    1
    27     4    25    1
    28    28    25    1
    29    25    26   am
    30    34    33    1
    31    34    29    2
    32    26    29    1
    33    26    27    2
    34    33    32    2
    35    29    30    1
    36    32    31    1
    37    30    31    2
