@<TRIPOS>MOLECULE
63368_out_ligand_01.pdbqt
 33 36 0 0 0
SMALL
GASTEIGER

@<TRIPOS>ATOM
      1  C         22.4830  -22.1950   -9.6220 C.2     1  UNL1        0.0170
      2  C         22.3080  -22.1540   -8.2320 C.2     1  UNL1        0.0170
      3  C         21.0320  -22.2820   -7.6730 C.2     1  UNL1        0.0180
      4  C         19.9100  -22.4290   -8.4980 C.2     1  UNL1        0.0320
      5  C         20.0730  -22.4890   -9.8830 C.2     1  UNL1        0.0180
      6  C         21.3520  -22.3730  -10.4370 C.2     1  UNL1        0.0170
      7  C         23.7980  -22.0600  -10.2410 C.ar    1  UNL1        0.1800
      8  N         24.5180  -20.9620  -10.4370 N.ar    1  UNL1       -0.2250
      9  C         25.6940  -21.4230  -10.9930 C.ar    1  UNL1        0.0760
     10  C         25.6060  -22.7920  -11.1630 C.ar    1  UNL1        0.0770
     11  O         24.3980  -23.2090  -10.6800 O.2     1  UNL1       -0.2940
     12  C         26.4880  -23.8290  -11.7200 C.3     1  UNL1        0.0790
     13  C         26.8120  -20.5100  -11.3630 C.3     1  UNL1        0.1410
     14  S         26.5150  -19.5130  -12.8610 S.3     1  UNL1       -0.1240
     15  C         25.9540  -20.7110  -14.0560 C.2     1  UNL1        0.0010
     16  C         24.5790  -20.7630  -14.3110 C.2     1  UNL1        0.0190
     17  C         24.0530  -21.6900  -15.2140 C.2     1  UNL1        0.0080
     18  C         24.8960  -22.5970  -15.8680 C.2     1  UNL1       -0.0620
     19  C         24.3370  -23.5800  -16.8600 C.3     1  UNL1        0.0480
     20  C         26.2720  -22.5430  -15.6220 C.2     1  UNL1        0.0080
     21  C         26.7940  -21.6170  -14.7120 C.2     1  UNL1        0.0190
     22  C         18.5670  -22.5590   -7.8680 C.2     1  UNL1        0.2560
     23  O         17.5800  -22.4780   -8.5880 O.2     1  UNL1       -0.2670
     24  N         18.5910  -22.8120   -6.5100 N.am    1  UNL1       -0.3220
     25  H         19.4870  -23.0650   -6.1200 H       1  UNL1        0.1690
     26  C         17.4880  -22.8670   -5.6250 C.2     1  UNL1        0.0410
     27  C         16.3650  -23.6640   -5.8830 C.2     1  UNL1        0.0370
     28  C         15.2650  -23.6850   -5.0140 C.2     1  UNL1       -0.0600
     29  C         14.0870  -24.5560   -5.3200 C.3     1  UNL1        0.0480
     30  C         15.3010  -22.9130   -3.8570 C.2     1  UNL1        0.0070
     31  C         16.4090  -22.1100   -3.5870 C.2     1  UNL1        0.0090
     32  C         17.5050  -22.0690   -4.4630 C.2     1  UNL1       -0.0350
     33  C         18.6700  -21.1900   -4.1050 C.3     1  UNL1        0.0500
@<TRIPOS>BOND
     1    19    18    1
     2    18    20    2
     3    18    17    1
     4    20    21    1
     5    17    16    2
     6    21    15    2
     7    16    15    1
     8    15    14    1
     9    14    13    1
    10    12    10    1
    11    13     9    1
    12    10     9   ar
    13    10    11   ar
    14     9     8   ar
    15    11     7   ar
    16     6     5    1
    17     6     1    2
    18     8     7   ar
    19     7     1    1
    20     5     4    2
    21     1     2    1
    22    23    22    2
    23     4    22    1
    24     4     3    1
    25     2     3    2
    26    22    24   am
    27    24    25    1
    28    24    26    1
    29    27    26    2
    30    27    28    1
    31    26    32    1
    32    29    28    1
    33    28    30    2
    34    32    33    1
    35    32    31    2
    36    30    31    1
