@<TRIPOS>MOLECULE
63369_out_ligand_01.pdbqt
 34 38 0 0 0
SMALL
GASTEIGER

@<TRIPOS>ATOM
      1  C         22.8190  -22.2970   -9.6090 C.2     1  UNL1        0.0170
      2  C         22.6310  -21.8810   -8.2800 C.2     1  UNL1        0.0170
      3  C         21.3850  -22.0100   -7.6540 C.2     1  UNL1        0.0180
      4  C         20.3070  -22.5780   -8.3440 C.2     1  UNL1        0.0320
      5  C         20.4840  -22.9850   -9.6730 C.2     1  UNL1        0.0180
      6  C         21.7290  -22.8470  -10.2980 C.2     1  UNL1        0.0170
      7  C         24.1290  -22.1360  -10.2340 C.ar    1  UNL1        0.1800
      8  O         24.8620  -23.2760  -10.4380 O.2     1  UNL1       -0.2940
      9  C         26.0090  -22.8410  -11.0380 C.ar    1  UNL1        0.0770
     10  C         27.0090  -23.8620  -11.3950 C.3     1  UNL1        0.0790
     11  C         25.9330  -21.4670  -11.1560 C.ar    1  UNL1        0.0760
     12  N         24.7180  -21.0350  -10.6600 N.ar    1  UNL1       -0.2250
     13  C         26.9080  -20.4990  -11.7250 C.3     1  UNL1        0.1410
     14  S         26.3300  -19.6930  -13.2610 S.3     1  UNL1       -0.1240
     15  C         25.9450  -21.0920  -14.3040 C.2     1  UNL1        0.0000
     16  C         27.0020  -21.9040  -14.7330 C.2     1  UNL1        0.0180
     17  C         26.7630  -23.0150  -15.5430 C.2     1  UNL1        0.0010
     18  C         25.4600  -23.3300  -15.9250 C.2     1  UNL1        0.0000
     19  C         24.3980  -22.5370  -15.4920 C.2     1  UNL1        0.0010
     20  C         24.6390  -21.4250  -14.6800 C.2     1  UNL1        0.0180
     21  C         18.9530  -22.7290   -7.7340 C.2     1  UNL1        0.2520
     22  O         18.3100  -21.7250   -7.4570 O.2     1  UNL1       -0.2680
     23  N         18.5170  -24.0220   -7.5370 N.am    1  UNL1       -0.3480
     24  H         19.0420  -24.7730   -7.9630 H       1  UNL1        0.1630
     25  C         17.2150  -24.3950   -6.9870 C.3     1  UNL1        0.1180
     26  C         16.0850  -24.3130   -8.0260 C.3     1  UNL1        0.0300
     27  C         15.2980  -23.0100   -7.9620 C.3     1  UNL1        0.0070
     28  C         14.7320  -22.7810   -6.5640 C.3     1  UNL1        0.0390
     29  C         15.7500  -22.9640   -5.4650 C.2     1  UNL1       -0.0500
     30  C         15.5010  -22.3910   -4.2070 C.2     1  UNL1        0.0070
     31  C         16.9130  -23.7350   -5.6570 C.2     1  UNL1       -0.0290
     32  C         16.3990  -22.5620   -3.1530 C.2     1  UNL1        0.0010
     33  C         17.5520  -23.3160   -3.3420 C.2     1  UNL1        0.0010
     34  C         17.8060  -23.9010   -4.5840 C.2     1  UNL1        0.0100
@<TRIPOS>BOND
     1    18    17    2
     2    18    19    1
     3    17    16    1
     4    19    20    2
     5    16    15    2
     6    20    15    1
     7    15    14    1
     8    14    13    1
     9    13    11    1
    10    10     9    1
    11    11     9   ar
    12    11    12   ar
    13     9     8   ar
    14    12     7   ar
    15     8     7   ar
    16     6     5    1
    17     6     1    2
    18     7     1    1
    19     5     4    2
    20     1     2    1
    21     4    21    1
    22     4     3    1
    23     2     3    2
    24    26    27    1
    25    26    25    1
    26    24    23    1
    27    27    28    1
    28    21    23   am
    29    21    22    2
    30    23    25    1
    31    25    31    1
    32    28    29    1
    33    31    29    2
    34    31    34    1
    35    29    30    1
    36    34    33    2
    37    30    32    2
    38    33    32    1
