@<TRIPOS>MOLECULE
63370_out_ligand_01.pdbqt
 36 40 0 0 0
SMALL
GASTEIGER

@<TRIPOS>ATOM
      1  C         17.1760  -21.5320   -9.9950 C.3     1  UNL1        0.1210
      2  C         18.4430  -21.5020  -10.8120 C.2     1  UNL1       -0.0480
      3  C         18.8510  -20.3110  -11.4310 C.2     1  UNL1        0.0090
      4  C         20.0420  -20.2600  -12.1600 C.2     1  UNL1        0.0170
      5  C         20.8370  -21.4030  -12.2920 C.2     1  UNL1        0.0320
      6  C         20.4420  -22.5960  -11.6740 C.2     1  UNL1        0.0170
      7  C         19.2510  -22.6430  -10.9410 C.2     1  UNL1        0.0090
      8  C         22.1030  -21.2960  -13.0680 C.2     1  UNL1        0.2520
      9  O         22.1580  -20.5610  -14.0480 O.2     1  UNL1       -0.2680
     10  N         23.1500  -22.0910  -12.6390 N.am    1  UNL1       -0.3520
     11  H         22.9220  -22.8570  -12.0170 H       1  UNL1        0.1630
     12  C         24.4080  -22.1670  -13.3810 C.3     1  UNL1        0.0840
     13  C         25.2610  -20.8990  -13.2170 C.3     1  UNL1        0.0250
     14  C         26.0730  -20.7340  -11.9320 C.3     1  UNL1        0.0020
     15  C         25.4480  -21.3150  -10.6690 C.2     1  UNL1        0.0000
     16  C         25.4050  -22.8450  -10.5820 C.2     1  UNL1        0.0000
     17  C         25.9380  -23.6090  -11.7890 C.3     1  UNL1        0.0020
     18  C         25.1460  -23.4810  -13.0930 C.3     1  UNL1        0.0250
     19  S         16.5120  -23.1940   -9.6910 S.3     1  UNL1       -0.0870
     20  C         16.3630  -23.1680   -7.9650 C.ar    1  UNL1        0.1710
     21  N         15.4490  -22.4780   -7.3170 N.ar    1  UNL1       -0.2210
     22  C         15.7010  -22.7200   -5.9920 C.ar    1  UNL1        0.1050
     23  C         15.0620  -22.2600   -4.8360 C.2     1  UNL1        0.0370
     24  C         16.7970  -23.5630   -5.8380 C.ar    1  UNL1        0.1610
     25  C         15.5850  -22.6780   -3.6090 C.2     1  UNL1        0.0220
     26  C         16.6990  -23.5140   -3.5940 C.2     1  UNL1        0.1190
     27  N         17.3520  -23.9890   -4.6840 N.2     1  UNL1       -0.2410
     28  N         17.1900  -23.8680   -7.1180 N.ar    1  UNL1       -0.3040
     29  C         18.3320  -24.7020   -7.4470 C.3     1  UNL1        0.1710
     30  C         19.5760  -23.8870   -7.7200 C.2     1  UNL1       -0.0400
     31  C         20.6270  -24.4260   -8.4840 C.2     1  UNL1        0.0120
     32  C         21.7810  -23.6790   -8.7300 C.2     1  UNL1        0.0430
     33  C         21.8890  -22.3920   -8.2170 C.2     1  UNL1        0.1160
     34  F         23.0010  -21.6790   -8.4490 F       1  UNL1       -0.2060
     35  C         20.8610  -21.8370   -7.4630 C.2     1  UNL1        0.0430
     36  C         19.7040  -22.5820   -7.2140 C.2     1  UNL1        0.0120
@<TRIPOS>BOND
     1     9     8    2
     2    12    13    1
     3    12    18    1
     4    12    10    1
     5    13    14    1
     6    18    17    1
     7     8    10   am
     8     8     5    1
     9    10    11    1
    10     5     4    2
    11     5     6    1
    12     4     3    1
    13    14    15    1
    14    17    16    1
    15     6     7    2
    16     3     2    2
    17     7     2    1
    18     2     1    1
    19    15    16    2
    20     1    19    1
    21    19    20    1
    22    32    31    1
    23    32    33    2
    24    31    30    2
    25    34    33    1
    26    33    35    1
    27    20    21   ar
    28    20    28   ar
    29    30    29    1
    30    30    36    1
    31    35    36    2
    32    29    28    1
    33    21    22   ar
    34    28    24   ar
    35    22    24   ar
    36    22    23    1
    37    24    27    1
    38    23    25    2
    39    27    26    2
    40    25    26    1
