@<TRIPOS>MOLECULE
63382_out_ligand_01.pdbqt
 35 39 0 0 0
SMALL
GASTEIGER

@<TRIPOS>ATOM
      1  N         17.0820  -23.7680   -6.9650 N.ar    1  UNL1       -0.3190
      2  C         16.0850  -23.2150   -7.7380 C.ar    1  UNL1        0.1700
      3  N         15.2260  -22.5280   -7.0200 N.ar    1  UNL1       -0.2220
      4  C         15.6500  -22.6610   -5.7250 C.ar    1  UNL1        0.0890
      5  C         15.0940  -22.1380   -4.5600 C.2     1  UNL1        0.0530
      6  C         15.7370  -22.4820   -3.3830 C.2     1  UNL1        0.1180
      7  N         16.8380  -23.2700   -3.3010 N.2     1  UNL1       -0.2710
      8  C         17.3820  -23.7700   -4.4340 C.2     1  UNL1        0.1480
      9  C         16.7910  -23.4570   -5.6510 C.ar    1  UNL1        0.0830
     10  S         15.9740  -23.4220   -9.4540 S.3     1  UNL1       -0.0870
     11  C         16.4140  -21.7570  -10.0280 C.3     1  UNL1        0.1210
     12  C         17.7770  -21.6610  -10.6690 C.2     1  UNL1       -0.0480
     13  C         18.5570  -22.8130  -10.8360 C.2     1  UNL1        0.0090
     14  C         19.8260  -22.7360  -11.4120 C.2     1  UNL1        0.0170
     15  C         20.3290  -21.5060  -11.8430 C.2     1  UNL1        0.0320
     16  C         19.5630  -20.3470  -11.6720 C.2     1  UNL1        0.0170
     17  C         18.2930  -20.4270  -11.0910 C.2     1  UNL1        0.0090
     18  C         21.6870  -21.4660  -12.4460 C.2     1  UNL1        0.2520
     19  O         21.8560  -20.9850  -13.5600 O.2     1  UNL1       -0.2680
     20  N         22.7110  -21.9680  -11.6650 N.am    1  UNL1       -0.3520
     21  H         22.5360  -22.0710  -10.6730 H       1  UNL1        0.1630
     22  C         24.0880  -21.8890  -12.1060 C.3     1  UNL1        0.0840
     23  C         24.6880  -23.2500  -12.4670 C.3     1  UNL1        0.0250
     24  C         26.1790  -23.1530  -12.1420 C.3     1  UNL1        0.0020
     25  C         26.3930  -21.7850  -11.5070 C.3     1  UNL1        0.0020
     26  C         25.0160  -21.3680  -11.0140 C.3     1  UNL1        0.0250
     27  C         18.1910  -24.6040   -7.4070 C.3     1  UNL1        0.1700
     28  C         19.4490  -23.8050   -7.6670 C.2     1  UNL1       -0.0370
     29  C         19.5830  -22.5110   -7.1450 C.2     1  UNL1        0.0090
     30  C         20.7310  -21.7610   -7.4030 C.2     1  UNL1        0.0030
     31  C         21.7520  -22.2970   -8.1880 C.2     1  UNL1        0.0370
     32  C         21.6430  -23.5850   -8.7110 C.2     1  UNL1        0.0680
     33  C         20.4930  -24.3350   -8.4510 C.2     1  UNL1        0.0450
     34  O         22.7080  -23.9890   -9.4660 O.2     1  UNL1       -0.3560
     35  C         23.9940  -23.9160   -8.8640 C.3     1  UNL1        0.2100
@<TRIPOS>BOND
     1    19    18    2
     2    23    24    1
     3    23    22    1
     4    18    15    1
     5    18    20   am
     6    24    25    1
     7    22    20    1
     8    22    26    1
     9    15    16    2
    10    15    14    1
    11    16    17    1
    12    20    21    1
    13    25    26    1
    14    14    13    2
    15    17    12    2
    16    13    12    1
    17    12    11    1
    18    11    10    1
    19    34    35    1
    20    34    32    1
    21    10     2    1
    22    32    33    1
    23    32    31    2
    24    33    28    2
    25    31    30    1
    26     2     3   ar
    27     2     1   ar
    28    28    27    1
    29    28    29    1
    30    27     1    1
    31    30    29    2
    32     3     4   ar
    33     1     9   ar
    34     4     9   ar
    35     4     5    1
    36     9     8    1
    37     5     6    2
    38     8     7    2
    39     6     7    1
