@<TRIPOS>MOLECULE
6340_out_ligand_01.pdbqt
 41 44 0 0 0
SMALL
GASTEIGER

@<TRIPOS>ATOM
      1  C         21.5660  -22.6230   -8.9510 C.2     1  UNL1        0.2560
      2  O         22.6480  -22.3170   -8.4670 O.2     1  UNL1       -0.2670
      3  N         21.2370  -22.6540  -10.2940 N.am    1  UNL1       -0.3230
      4  H         20.2570  -22.7610  -10.5250 H       1  UNL1        0.1690
      5  C         20.4430  -22.9370   -8.0240 C.2     1  UNL1        0.0320
      6  C         19.7500  -24.1420   -8.1990 C.2     1  UNL1        0.0190
      7  C         18.7000  -24.4800   -7.3420 C.2     1  UNL1        0.0260
      8  C         18.3350  -23.6120   -6.3100 C.2     1  UNL1        0.0250
      9  C         19.0000  -22.3920   -6.1570 C.2     1  UNL1        0.0260
     10  C         20.0530  -22.0530   -7.0110 C.2     1  UNL1        0.0190
     11  N         17.2380  -24.0020   -5.4620 N.pl3   1  UNL1       -0.1720
     12  S         17.4790  -23.7720   -3.7810 S.O2    1  UNL1        0.2120
     13  C         15.8230  -23.9700   -3.1580 C.3     1  UNL1        0.1800
     14  O         18.3020  -24.8450   -3.2640 O.2     1  UNL1       -0.2110
     15  O         17.8510  -22.3900   -3.5590 O.2     1  UNL1       -0.2110
     16  C         15.8910  -23.5590   -5.9380 C.3     1  UNL1        0.1550
     17  C         15.7530  -23.5280   -7.4380 C.2     1  UNL1       -0.0050
     18  C         15.4150  -24.6640   -8.1880 C.2     1  UNL1        0.0110
     19  C         15.3430  -24.6000   -9.5830 C.2     1  UNL1        0.0010
     20  C         15.6190  -23.4050  -10.2470 C.2     1  UNL1        0.0030
     21  C         15.9740  -22.2740   -9.5160 C.2     1  UNL1        0.0430
     22  C         16.0430  -22.3460   -8.1270 C.2     1  UNL1        0.1230
     23  F         16.4170  -21.2530   -7.4450 F       1  UNL1       -0.2060
     24  C         22.1030  -22.4390  -11.3870 C.2     1  UNL1        0.0350
     25  C         23.3780  -23.0000  -11.4930 C.2     1  UNL1        0.0310
     26  C         24.1800  -22.7410  -12.6100 C.2     1  UNL1        0.0270
     27  C         23.7070  -21.9010  -13.6190 C.2     1  UNL1        0.0800
     28  C         22.4270  -21.3510  -13.5390 C.2     1  UNL1        0.0270
     29  C         21.6290  -21.6220  -12.4240 C.2     1  UNL1        0.0310
     30  S         24.7110  -21.5720  -15.0430 S.O2    1  UNL1        0.2630
     31  O         25.3110  -22.8080  -15.4950 O.2     1  UNL1       -0.2000
     32  O         23.9270  -20.7520  -15.9440 O.2     1  UNL1       -0.2000
     33  N         25.9100  -20.5500  -14.4200 N.pl3   1  UNL1       -0.2810
     34  H         25.7940  -20.4470  -13.4130 H       1  UNL1        0.1790
     35  C         26.2280  -19.3790  -15.1610 C.2     1  UNL1        0.0420
     36  C         26.6430  -18.2280  -14.4910 C.2     1  UNL1        0.0310
     37  C         26.9140  -17.0630  -15.2120 C.2     1  UNL1        0.0210
     38  C         26.7590  -17.0550  -16.5980 C.2     1  UNL1        0.0110
     39 BR         27.1200  -15.4780  -17.5720 Br      1  UNL1       -0.0510
     40  C         26.3340  -18.2010  -17.2680 C.2     1  UNL1        0.0210
     41  C         26.0650  -19.3650  -16.5460 C.2     1  UNL1        0.0310
@<TRIPOS>BOND
     1    39    38    1
     2    40    38    2
     3    40    41    1
     4    38    37    1
     5    41    35    2
     6    32    30    2
     7    31    30    2
     8    37    36    2
     9    35    36    1
    10    35    33    1
    11    30    33    1
    12    30    27    1
    13    33    34    1
    14    27    28    2
    15    27    26    1
    16    28    29    1
    17    26    25    2
    18    29    24    2
    19    25    24    1
    20    24     3    1
    21     4     3    1
    22     3     1   am
    23    20    19    2
    24    20    21    1
    25    19    18    1
    26    21    22    2
    27     1     2    2
    28     1     5    1
    29     6     5    2
    30     6     7    1
    31    18    17    2
    32    22    23    1
    33    22    17    1
    34     5    10    1
    35    17    16    1
    36     7     8    2
    37    10     9    2
    38     8     9    1
    39     8    11    1
    40    16    11    1
    41    11    12    1
    42    12    15    2
    43    12    14    2
    44    12    13    1
