@<TRIPOS>MOLECULE
6341_out_ligand_01.pdbqt
 33 35 0 0 0
SMALL
GASTEIGER

@<TRIPOS>ATOM
      1  C         22.7290  -22.6730  -11.3820 C.2     1  UNL1        0.0290
      2  C         22.0900  -21.9370  -12.3900 C.2     1  UNL1        0.0250
      3  C         20.8390  -21.3680  -12.1770 C.2     1  UNL1        0.0030
      4  C         20.2100  -21.5390  -10.9500 C.2     1  UNL1        0.0180
      5  C         20.8400  -22.2770   -9.9340 C.2     1  UNL1        0.0400
      6  C         22.1140  -22.8580  -10.1300 C.2     1  UNL1       -0.0240
      7  C         22.7380  -23.6930   -9.0410 C.3     1  UNL1        0.0510
      8  C         20.1030  -22.4450   -8.6520 C.2     1  UNL1        0.2560
      9  O         20.6800  -22.1960   -7.6030 O.2     1  UNL1       -0.2670
     10  N         18.7960  -22.8660   -8.8180 N.am    1  UNL1       -0.3230
     11  H         18.4670  -22.9630   -9.7710 H       1  UNL1        0.1690
     12  C         17.8490  -23.1350   -7.8090 C.2     1  UNL1        0.0350
     13  C         17.9610  -24.1810   -6.8930 C.2     1  UNL1        0.0300
     14  C         16.9740  -24.3860   -5.9210 C.2     1  UNL1        0.0180
     15  C         15.8580  -23.5410   -5.8420 C.2     1  UNL1        0.0480
     16  C         15.7430  -22.4960   -6.7680 C.2     1  UNL1        0.0180
     17  C         16.7310  -22.2950   -7.7390 C.2     1  UNL1        0.0300
     18  C         14.7850  -23.7800   -4.8100 C.3     1  UNL1        0.4170
     19  F         14.3480  -22.6240   -4.2410 F       1  UNL1       -0.1660
     20  F         13.6770  -24.3910   -5.3170 F       1  UNL1       -0.1660
     21  F         15.2030  -24.5670   -3.7790 F       1  UNL1       -0.1660
     22  N         23.9910  -23.2690  -11.7200 N.pl3   1  UNL1       -0.1810
     23  H         24.0240  -23.6400  -12.6680 H       1  UNL1        0.1460
     24  S         25.3390  -22.2450  -11.4930 S.O2    1  UNL1        0.2450
     25  O         24.9240  -21.1880  -10.5970 O.2     1  UNL1       -0.2060
     26  O         26.5230  -23.0400  -11.2520 O.2     1  UNL1       -0.2060
     27  C         25.4850  -21.5530  -13.1230 C.2     1  UNL1        0.0740
     28  C         25.7270  -20.1830  -13.2580 C.2     1  UNL1        0.0250
     29  C         25.8430  -19.6290  -14.5330 C.2     1  UNL1        0.0080
     30  C         25.7010  -20.4340  -15.6720 C.2     1  UNL1       -0.0620
     31  C         25.8540  -19.8400  -17.0420 C.3     1  UNL1        0.0480
     32  C         25.4630  -21.8070  -15.5200 C.2     1  UNL1        0.0080
     33  C         25.3460  -22.3690  -14.2460 C.2     1  UNL1        0.0250
@<TRIPOS>BOND
     1    31    30    1
     2    30    32    2
     3    30    29    1
     4    32    33    1
     5    29    28    2
     6    33    27    2
     7    28    27    1
     8    27    24    1
     9    23    22    1
    10     2     3    1
    11     2     1    2
    12     3     4    2
    13    22    24    1
    14    22     1    1
    15    24    26    2
    16    24    25    2
    17     1     6    1
    18     4     5    1
    19     6     5    2
    20     6     7    1
    21     5     8    1
    22    11    10    1
    23    10     8   am
    24    10    12    1
    25     8     9    2
    26    12    17    2
    27    12    13    1
    28    17    16    1
    29    13    14    2
    30    16    15    2
    31    14    15    1
    32    15    18    1
    33    20    18    1
    34    18    19    1
    35    18    21    1
