@<TRIPOS>MOLECULE
63411_out_ligand_01.pdbqt
 31 34 0 0 0
SMALL
GASTEIGER

@<TRIPOS>ATOM
      1  C         19.2730  -21.6560  -11.1000 C.2     1  UNL1        0.2230
      2  N         18.4430  -22.3470  -10.3420 N.2     1  UNL1       -0.2030
      3  C         17.2410  -21.7280  -10.5770 C.2     1  UNL1        0.1580
      4  N         17.2930  -20.7010  -11.4310 N.4     1  UNL1       -0.1110
      5  O         18.6400  -20.6550  -11.7900 O.2     1  UNL1       -0.1890
      6  C         20.6740  -21.9240  -11.1690 C.ar    1  UNL1        0.0960
      7  C         21.5550  -22.4770  -10.2500 C.ar    1  UNL1       -0.0150
      8  C         22.8450  -22.5100  -10.8820 C.ar    1  UNL1       -0.0000
      9  C         24.1240  -22.9530  -10.4810 C.2     1  UNL1        0.0210
     10  C         22.7020  -21.9840  -12.1650 C.ar    1  UNL1        0.0430
     11  C         25.2130  -22.8580  -11.3640 C.2     1  UNL1       -0.0610
     12  C         25.0200  -22.3350  -12.6460 C.2     1  UNL1        0.0090
     13  C         26.5600  -23.3650  -10.9400 C.3     1  UNL1        0.0480
     14  C         23.7660  -21.8830  -13.0680 C.2     1  UNL1        0.0310
     15  N         21.3830  -21.6330  -12.3070 N.ar    1  UNL1       -0.3510
     16  H         20.9760  -21.2250  -13.1390 H       1  UNL1        0.1660
     17  C         21.2500  -22.9690   -8.8690 C.3     1  UNL1        0.0370
     18  C         20.9530  -24.4590   -8.8340 C.3     1  UNL1        0.0100
     19  C         15.9890  -22.1450   -9.9040 C.3     1  UNL1        0.1030
     20  C         16.1340  -22.2850   -8.3870 C.3     1  UNL1        0.1330
     21  N         16.4460  -23.6450   -7.9190 N.am    1  UNL1       -0.3520
     22  C         15.8280  -24.7470   -8.6460 C.3     1  UNL1        0.1520
     23  C         16.9810  -23.9410   -6.6610 C.2     1  UNL1        0.2530
     24  O         16.9410  -25.0530   -6.1440 O.2     1  UNL1       -0.2670
     25  C         17.6360  -22.8650   -5.8880 C.2     1  UNL1        0.0330
     26  C         17.1000  -22.5010   -4.6480 C.2     1  UNL1        0.0170
     27  C         17.7160  -21.5000   -3.8970 C.2     1  UNL1        0.0030
     28  C         18.8680  -20.8760   -4.3810 C.2     1  UNL1        0.0240
     29  C         19.4150  -21.2740   -5.6020 C.2     1  UNL1        0.0350
     30 CL         20.8390  -20.5070   -6.1880 Cl      1  UNL1       -0.0840
     31  C         18.8150  -22.2790   -6.3550 C.2     1  UNL1        0.0410
@<TRIPOS>BOND
     1    16    15    1
     2    14    12    2
     3    14    10    1
     4    12    11    1
     5    15    10   ar
     6    15     6   ar
     7    10     8   ar
     8     5     4    1
     9     5     1    1
    10     4     3    1
    11    11    13    1
    12    11     9    2
    13     6     1    1
    14     6     7   ar
    15     1     2    2
    16     8     9    1
    17     8     7   ar
    18     3     2    2
    19     3    19    1
    20     7    17    1
    21    19    20    1
    22    17    18    1
    23    22    21    1
    24    20    21    1
    25    21    23   am
    26    23    24    2
    27    23    25    1
    28    31    25    2
    29    31    29    1
    30    30    29    1
    31    25    26    1
    32    29    28    2
    33    26    27    2
    34    28    27    1
