@<TRIPOS>MOLECULE
63419_out_ligand_01.pdbqt
 30 33 0 0 0
SMALL
GASTEIGER

@<TRIPOS>ATOM
      1  C         21.1880  -21.2050  -12.7800 C.3     1  UNL1        0.0500
      2  C         20.5590  -21.7680  -11.5320 C.2     1  UNL1       -0.0350
      3  C         19.2270  -21.4220  -11.2490 C.2     1  UNL1        0.0100
      4  C         18.5890  -21.9150  -10.1120 C.2     1  UNL1        0.0170
      5  C         19.2720  -22.7640   -9.2410 C.2     1  UNL1        0.0340
      6  C         20.6080  -23.0960   -9.5020 C.2     1  UNL1        0.0470
      7  C         21.2580  -22.6210  -10.6490 C.2     1  UNL1        0.0420
      8  N         22.6030  -22.9500  -10.9420 N.am    1  UNL1       -0.3210
      9  C         23.7520  -22.2700  -10.5600 C.2     1  UNL1        0.2760
     10  O         23.7890  -21.2890   -9.8250 O.2     1  UNL1       -0.2660
     11  H         22.7580  -23.8300  -11.4150 H       1  UNL1        0.1690
     12  C         24.9800  -22.8760  -11.1100 C.ar    1  UNL1        0.1440
     13  N         25.8640  -23.4190  -10.2650 N.ar    1  UNL1       -0.2050
     14  S         27.1210  -24.0570  -11.1170 S.2     1  UNL1        0.0120
     15  C         26.5420  -23.6300  -12.6740 C.ar    1  UNL1        0.0360
     16  C         27.1180  -23.8680  -13.9330 C.2     1  UNL1        0.0210
     17  C         25.3270  -22.9550  -12.5210 C.ar    1  UNL1        0.0170
     18  C         26.4530  -23.4010  -15.0680 C.2     1  UNL1        0.0010
     19  C         25.2530  -22.7110  -14.9520 C.2     1  UNL1        0.0010
     20  C         24.6850  -22.4800  -13.6940 C.2     1  UNL1        0.0150
     21  C         18.5530  -23.2640   -8.0350 C.2     1  UNL1        0.2520
     22  O         18.7100  -24.4240   -7.6700 O.2     1  UNL1       -0.2680
     23  N         17.7540  -22.3560   -7.3700 N.am    1  UNL1       -0.3520
     24  H         17.6610  -21.4120   -7.7190 H       1  UNL1        0.1630
     25  C         16.9270  -22.7500   -6.2400 C.3     1  UNL1        0.0840
     26  C         15.4460  -22.4280   -6.5110 C.3     1  UNL1        0.0250
     27  C         14.6270  -22.1920   -5.2400 C.3     1  UNL1        0.0020
     28  C         15.1850  -22.9630   -4.0520 C.3     1  UNL1        0.0000
     29  C         16.6230  -22.5500   -3.7310 C.3     1  UNL1        0.0020
     30  C         17.4110  -22.0770   -4.9540 C.3     1  UNL1        0.0250
@<TRIPOS>BOND
     1    18    19    2
     2    18    16    1
     3    19    20    1
     4    16    15    2
     5    20    17    2
     6     1     2    1
     7    15    17   ar
     8    15    14   ar
     9    17    12   ar
    10     2     3    2
    11     2     7    1
    12    11     8    1
    13     3     4    1
    14    14    13   ar
    15    12     9    1
    16    12    13   ar
    17     8     7    1
    18     8     9   am
    19     7     6    2
    20     9    10    2
    21     4     5    2
    22     6     5    1
    23     5    21    1
    24    21    22    2
    25    21    23   am
    26    24    23    1
    27    23    25    1
    28    26    25    1
    29    26    27    1
    30    25    30    1
    31    27    28    1
    32    30    29    1
    33    28    29    1
