@<TRIPOS>MOLECULE
63423_out_ligand_01.pdbqt
 35 39 0 0 0
SMALL
GASTEIGER

@<TRIPOS>ATOM
      1  O         20.1370  -21.2990   -6.4780 O.2     1  UNL1       -0.2670
      2  C         20.1290  -22.2660   -7.2310 C.2     1  UNL1        0.2560
      3  N         19.0960  -23.1650   -7.4030 N.am    1  UNL1       -0.3200
      4  H         19.1810  -23.8470   -8.1500 H       1  UNL1        0.1690
      5  C         21.3200  -22.5070   -8.0940 C.2     1  UNL1        0.0320
      6  C         21.5690  -23.7530   -8.6810 C.2     1  UNL1        0.0170
      7  C         22.6970  -23.9320   -9.4880 C.2     1  UNL1        0.0100
      8  C         23.5960  -22.8760   -9.7090 C.2     1  UNL1       -0.0300
      9  C         23.3430  -21.6360   -9.1060 C.2     1  UNL1        0.0100
     10  C         22.2180  -21.4540   -8.2970 C.2     1  UNL1        0.0170
     11  C         24.8150  -23.0740  -10.5880 C.3     1  UNL1        0.3110
     12  N         24.7390  -22.5690  -11.9620 N.3     1  UNL1        0.0970
     13  C         25.4680  -21.3180  -12.1850 C.3     1  UNL1        0.2770
     14  C         25.0320  -20.6790  -13.5120 C.3     1  UNL1        0.0690
     15  C         25.0100  -21.6610  -14.6560 C.2     1  UNL1       -0.0490
     16  C         24.9380  -21.2020  -15.9780 C.2     1  UNL1        0.0070
     17  C         24.9960  -23.0430  -14.3940 C.2     1  UNL1       -0.0240
     18  C         24.8810  -22.1080  -17.0360 C.2     1  UNL1        0.0010
     19  C         24.8870  -23.4780  -16.7830 C.2     1  UNL1        0.0010
     20  C         24.9480  -23.9440  -15.4690 C.2     1  UNL1        0.0090
     21  C         25.1100  -23.5660  -12.9760 C.3     1  UNL1        0.3110
     22  C         17.8560  -23.2020   -6.7260 C.2     1  UNL1        0.0700
     23  C         17.6850  -22.8430   -5.3880 C.2     1  UNL1        0.0560
     24  C         16.4160  -22.9090   -4.8050 C.2     1  UNL1        0.0360
     25 CL         16.2090  -22.4600   -3.1540 Cl      1  UNL1       -0.0840
     26  C         15.3070  -23.3270   -5.5420 C.2     1  UNL1        0.0260
     27  C         15.4660  -23.6920   -6.8760 C.2     1  UNL1        0.0410
     28  C         16.7380  -23.6460   -7.4550 C.2     1  UNL1        0.1020
     29  O         16.9100  -23.9730   -8.7850 O.2     1  UNL1       -0.3090
     30  C         17.2110  -22.9440   -9.6510 C.2     1  UNL1        0.0760
     31  C         16.3560  -21.8690   -9.9050 C.2     1  UNL1        0.0370
     32  C         16.7300  -20.8880  -10.8270 C.2     1  UNL1        0.0030
     33  C         17.9460  -20.9910  -11.5020 C.2     1  UNL1        0.0000
     34  C         18.7880  -22.0760  -11.2640 C.2     1  UNL1        0.0030
     35  C         18.4180  -23.0560  -10.3440 C.2     1  UNL1        0.0370
@<TRIPOS>BOND
     1    18    19    2
     2    18    16    1
     3    19    20    1
     4    16    15    2
     5    20    17    2
     6    15    17    1
     7    15    14    1
     8    17    21    1
     9    14    13    1
    10    21    12    1
    11    13    12    1
    12    12    11    1
    13    33    34    2
    14    33    32    1
    15    34    35    1
    16    32    31    2
    17    11     8    1
    18    35    30    2
    19    31    30    1
    20     8     7    2
    21     8     9    1
    22    30    29    1
    23     7     6    1
    24     9    10    2
    25    29    28    1
    26     6     5    2
    27    10     5    1
    28     4     3    1
    29     5     2    1
    30    28    27    1
    31    28    22    2
    32     3     2   am
    33     3    22    1
    34     2     1    2
    35    27    26    2
    36    22    23    1
    37    26    24    1
    38    23    24    2
    39    24    25    1
