@<TRIPOS>MOLECULE
63436_out_ligand_01.pdbqt
 33 36 0 0 0
SMALL
GASTEIGER

@<TRIPOS>ATOM
      1  C         22.7300  -22.4420  -10.9880 C.2     1  UNL1        0.0370
      2  C         23.2330  -23.3660  -10.0610 C.2     1  UNL1        0.0290
      3  C         22.4080  -23.9250   -9.0820 C.2     1  UNL1        0.0030
      4  C         21.0680  -23.5550   -9.0120 C.2     1  UNL1        0.0170
      5  C         20.5570  -22.6260   -9.9280 C.2     1  UNL1        0.0340
      6  C         21.3830  -22.0800  -10.9200 C.2     1  UNL1        0.0460
      7  N         23.6470  -21.9190  -11.9210 N.am    1  UNL1       -0.3090
      8  C         24.8570  -21.3000  -11.6810 C.2     1  UNL1        0.3270
      9  N         25.5680  -20.9420  -12.8470 N.am    1  UNL1       -0.2960
     10  O         25.2700  -20.9870  -10.5670 O.2     1  UNL1       -0.2460
     11  C         26.3810  -19.7270  -12.7070 C.3     1  UNL1        0.1440
     12  C         25.3930  -21.5440  -14.1400 C.2     1  UNL1        0.0800
     13  C         27.0460  -19.1820  -13.9640 C.3     1  UNL1        0.1010
     14  S         25.8110  -19.0220  -15.2730 S.3     1  UNL1       -0.1060
     15  C         25.3880  -20.7560  -15.3100 C.2     1  UNL1        0.1210
     16  N         25.1090  -21.2360  -16.5450 N.2     1  UNL1       -0.2440
     17  C         24.8610  -22.5560  -16.6710 C.2     1  UNL1        0.0320
     18  C         24.5570  -23.0740  -18.0430 C.3     1  UNL1        0.0700
     19  C         24.9390  -23.4310  -15.5940 C.2     1  UNL1        0.0350
     20  C         25.2400  -22.9370  -14.3130 C.2     1  UNL1       -0.0300
     21  C         25.4520  -23.9630  -13.2260 C.3     1  UNL1        0.0500
     22  H         23.3340  -21.8870  -12.8800 H       1  UNL1        0.1700
     23  C         19.1290  -22.2190   -9.8820 C.2     1  UNL1        0.2520
     24  O         18.6960  -21.3710  -10.6470 O.2     1  UNL1       -0.2680
     25  N         18.3660  -22.8280   -8.9120 N.am    1  UNL1       -0.3530
     26  H         18.8300  -23.3160   -8.1550 H       1  UNL1        0.1630
     27  C         16.9900  -22.4380   -8.7180 C.3     1  UNL1        0.1610
     28  C         16.6560  -22.3740   -7.2510 C.2     1  UNL1       -0.0410
     29  C         15.3220  -22.4500   -6.8200 C.2     1  UNL1        0.0090
     30  C         15.0150  -22.4290   -5.4560 C.2     1  UNL1        0.0010
     31  C         16.0390  -22.3360   -4.5100 C.2     1  UNL1        0.0000
     32  C         17.3700  -22.2670   -4.9270 C.2     1  UNL1        0.0010
     33  C         17.6810  -22.2890   -6.2900 C.2     1  UNL1        0.0090
@<TRIPOS>BOND
     1    18    17    1
     2    17    16    2
     3    17    19    1
     4    16    15    1
     5    19    20    2
     6    15    14    1
     7    15    12    2
     8    14    13    1
     9    20    12    1
    10    20    21    1
    11    12     9    1
    12    13    11    1
    13    22     7    1
    14     9    11    1
    15     9     8   am
    16     7     8   am
    17     7     1    1
    18     8    10    2
    19     1     6    2
    20     1     2    1
    21     6     5    1
    22    24    23    2
    23     2     3    2
    24     5    23    1
    25     5     4    2
    26    23    25   am
    27     3     4    1
    28    25    27    1
    29    25    26    1
    30    27    28    1
    31    28    29    2
    32    28    33    1
    33    29    30    1
    34    33    32    2
    35    30    31    2
    36    32    31    1
