@<TRIPOS>MOLECULE
63448_out_ligand_01.pdbqt
 34 38 0 0 0
SMALL
GASTEIGER

@<TRIPOS>ATOM
      1  C         20.8390  -22.4580  -10.3700 C.ar    1  UNL1        0.1530
      2  N         21.4540  -21.6510  -11.2130 N.ar    1  UNL1       -0.1330
      3  N         20.4990  -20.8800  -11.8380 N.ar    1  UNL1       -0.1280
      4  C         19.3250  -21.2280  -11.3610 C.ar    1  UNL1        0.1740
      5  C         18.0130  -20.7810  -11.6190 C.2     1  UNL1        0.0570
      6  C         16.9930  -21.3370  -10.9510 C.2     1  UNL1        0.0440
      7  C         17.3320  -22.4150   -9.9860 C.2     1  UNL1        0.1140
      8  N         18.5130  -22.8610   -9.7020 N.2     1  UNL1       -0.1580
      9  N         19.4850  -22.2300  -10.4240 N.ar    1  UNL1       -0.1970
     10  C         21.4680  -23.4440   -9.4510 C.3     1  UNL1        0.1030
     11  C         22.9580  -23.1560   -9.2590 C.3     1  UNL1        0.1400
     12  N         23.7030  -23.4920  -10.4810 N.3     1  UNL1       -0.3150
     13  H         23.1860  -23.8660  -11.2820 H       1  UNL1        0.1720
     14  S         24.9990  -22.5260  -10.9240 S.O2    1  UNL1        0.2580
     15  O         24.7010  -21.1910  -10.4560 O.2     1  UNL1       -0.2010
     16  O         26.2180  -23.2110  -10.5520 O.2     1  UNL1       -0.2010
     17  C         24.8590  -22.5200  -12.6930 C.2     1  UNL1        0.0790
     18  C         25.3360  -23.6160  -13.4180 C.2     1  UNL1        0.0250
     19  C         25.2160  -23.6230  -14.8080 C.2     1  UNL1        0.0020
     20  C         24.6170  -22.5450  -15.4620 C.2     1  UNL1        0.0000
     21  C         24.1340  -21.4580  -14.7320 C.2     1  UNL1        0.0020
     22  C         24.2490  -21.4430  -13.3410 C.2     1  UNL1        0.0250
     23  S         15.9510  -23.1130   -9.1820 S.3     1  UNL1       -0.1040
     24  C         16.8200  -24.0600   -7.8920 C.3     1  UNL1        0.1200
     25  C         16.5370  -23.5330   -6.4990 C.2     1  UNL1       -0.0370
     26  C         15.4080  -24.0500   -5.8330 C.2     1  UNL1        0.0090
     27  C         15.1040  -23.6680   -4.5320 C.2     1  UNL1        0.0010
     28  C         15.9300  -22.7680   -3.8690 C.2     1  UNL1        0.0120
     29  C         17.0630  -22.2300   -4.4960 C.2     1  UNL1       -0.0250
     30  C         17.8850  -21.3350   -3.7930 C.2     1  UNL1        0.0120
     31  C         17.3790  -22.5940   -5.8310 C.2     1  UNL1       -0.0190
     32  C         19.0200  -20.7840   -4.3830 C.2     1  UNL1        0.0010
     33  C         19.3390  -21.1120   -5.6930 C.2     1  UNL1        0.0010
     34  C         18.5260  -21.9960   -6.4070 C.2     1  UNL1        0.0130
@<TRIPOS>BOND
     1    20    19    2
     2    20    21    1
     3    19    18    1
     4    21    22    2
     5    18    17    2
     6    22    17    1
     7    17    14    1
     8     3     4   ar
     9     3     2   ar
    10     5     4    1
    11     5     6    2
    12     4     9   ar
    13    13    12    1
    14     2     1   ar
    15     6     7    1
    16    14    16    2
    17    14    12    1
    18    14    15    2
    19    12    11    1
    20     9     1   ar
    21     9     8    1
    22     1    10    1
    23     7     8    2
    24     7    23    1
    25    10    11    1
    26    23    24    1
    27    24    25    1
    28    25    26    2
    29    25    31    1
    30    34    31    1
    31    34    33    2
    32    26    27    1
    33    31    29    2
    34    33    32    1
    35    27    28    2
    36    29    28    1
    37    29    30    1
    38    32    30    2
