@<TRIPOS>MOLECULE
63449_out_ligand_01.pdbqt
 29 32 0 0 0
SMALL
GASTEIGER

@<TRIPOS>ATOM
      1  C         21.8000  -21.9360  -11.9600 C.2     1  UNL1        0.0320
      2  C         22.0020  -22.7690  -10.8620 C.2     1  UNL1        0.0190
      3  C         20.9610  -23.0040   -9.9510 C.2     1  UNL1        0.0310
      4  C         19.6880  -22.4360  -10.1190 C.2     1  UNL1        0.0430
      5  C         19.4860  -21.6090  -11.2450 C.2     1  UNL1       -0.0300
      6  C         20.5390  -21.3630  -12.1480 C.2     1  UNL1        0.0260
      7  C         18.1680  -20.9350  -11.5150 C.3     1  UNL1        0.0420
      8  C         17.0370  -21.6590  -10.8140 C.3     1  UNL1        0.0250
      9  C         17.4010  -21.8470   -9.3530 C.3     1  UNL1        0.1330
     10  N         18.6210  -22.6460   -9.1690 N.am    1  UNL1       -0.3130
     11  C         18.7090  -23.5890   -8.1270 C.2     1  UNL1        0.2580
     12  O         19.4730  -24.5490   -8.0740 O.2     1  UNL1       -0.2670
     13  C         22.8710  -21.6440  -12.9540 C.2     1  UNL1        0.2520
     14  O         22.6250  -20.9700  -13.9480 O.2     1  UNL1       -0.2680
     15  N         24.1240  -22.1380  -12.6710 N.am    1  UNL1       -0.3510
     16  H         24.3390  -22.4280  -11.7260 H       1  UNL1        0.1630
     17  C         25.2510  -21.7740  -13.4960 C.3     1  UNL1        0.1870
     18  C         25.9740  -20.6590  -12.8400 C.2     1  UNL1        0.0700
     19  C         26.2310  -20.3400  -11.5230 C.2     1  UNL1        0.0360
     20  C         26.9730  -19.1350  -11.5400 C.2     1  UNL1        0.0270
     21  C         27.1200  -18.7940  -12.8650 C.2     1  UNL1        0.1420
     22  O         26.5150  -19.7110  -13.6620 O.2     1  UNL1       -0.3250
     23  C         17.7930  -23.4430   -6.9700 C.2     1  UNL1        0.0320
     24  C         18.1410  -22.6270   -5.8840 C.2     1  UNL1        0.0200
     25  C         17.2760  -22.5240   -4.7940 C.2     1  UNL1        0.0430
     26  C         16.0850  -23.2450   -4.7920 C.2     1  UNL1        0.1160
     27  F         15.2580  -23.1430   -3.7440 F       1  UNL1       -0.2060
     28  C         15.7430  -24.0760   -5.8540 C.2     1  UNL1        0.0430
     29  C         16.6040  -24.1840   -6.9480 C.2     1  UNL1        0.0200
@<TRIPOS>BOND
     1    14    13    2
     2    22    21    1
     3    22    18    1
     4    17    18    1
     5    17    15    1
     6    13    15   am
     7    13     1    1
     8    21    20    2
     9    18    19    2
    10    15    16    1
    11     6     1    2
    12     6     5    1
    13     1     2    1
    14    20    19    1
    15     7     5    1
    16     7     8    1
    17     5     4    2
    18     2     3    2
    19     8     9    1
    20     4     3    1
    21     4    10    1
    22     9    10    1
    23    10    11   am
    24    11    12    2
    25    11    23    1
    26    23    29    2
    27    23    24    1
    28    29    28    1
    29    24    25    2
    30    28    26    2
    31    25    26    1
    32    26    27    1
