@<TRIPOS>MOLECULE
6347_out_ligand_01.pdbqt
 40 43 0 0 0
SMALL
GASTEIGER

@<TRIPOS>ATOM
      1  N         21.1920  -22.1140   -8.2320 N.am    1  UNL1       -0.3230
      2  C         20.1370  -22.8920   -7.7890 C.2     1  UNL1        0.2560
      3  O         19.6970  -23.9070   -8.3210 O.2     1  UNL1       -0.2670
      4  H         21.3550  -21.2360   -7.7530 H       1  UNL1        0.1690
      5  C         21.9910  -22.3400   -9.3730 C.2     1  UNL1        0.0350
      6  C         21.5400  -22.1820  -10.6860 C.2     1  UNL1        0.0310
      7  C         22.4050  -22.3940  -11.7670 C.2     1  UNL1        0.0270
      8  C         23.7340  -22.7510  -11.5290 C.2     1  UNL1        0.0800
      9  C         24.1900  -22.9540  -10.2260 C.2     1  UNL1        0.0270
     10  C         23.3160  -22.7470   -9.1540 C.2     1  UNL1        0.0310
     11  S         24.8410  -22.9980  -12.8980 S.O2    1  UNL1        0.2630
     12  O         24.8250  -24.4040  -13.2420 O.2     1  UNL1       -0.2000
     13  O         26.0800  -22.3160  -12.5810 O.2     1  UNL1       -0.2000
     14  N         24.1290  -22.1000  -14.1370 N.pl3   1  UNL1       -0.2800
     15  H         23.2550  -22.5120  -14.4640 H       1  UNL1        0.1790
     16  C         24.9270  -21.3490  -15.0480 C.2     1  UNL1        0.0500
     17  C         25.3550  -20.0640  -14.6980 C.2     1  UNL1        0.0540
     18  C         26.1470  -19.3310  -15.5780 C.2     1  UNL1        0.0360
     19  C         26.5210  -19.8680  -16.8070 C.2     1  UNL1        0.0240
     20 CL         26.6790  -17.7530  -15.1390 Cl      1  UNL1       -0.0840
     21  C         26.0840  -21.1450  -17.1670 C.2     1  UNL1        0.0110
     22  C         25.2830  -21.9010  -16.2960 C.2     1  UNL1       -0.0350
     23  C         24.8270  -23.2660  -16.7310 C.3     1  UNL1        0.0500
     24  C         19.4450  -22.3830   -6.5740 C.2     1  UNL1        0.0340
     25  C         19.7670  -21.0960   -6.1170 C.2     1  UNL1        0.0170
     26  C         19.1700  -20.5870   -4.9640 C.2     1  UNL1        0.0030
     27  C         18.2400  -21.3610   -4.2680 C.2     1  UNL1        0.0300
     28  C         17.9010  -22.6360   -4.7360 C.2     1  UNL1        0.0430
     29  C         18.4960  -23.1510   -5.8860 C.2     1  UNL1        0.0470
     30  N         16.9950  -23.4400   -3.9890 N.pl3   1  UNL1       -0.2810
     31  H         17.2970  -24.3830   -3.7470 H       1  UNL1        0.1790
     32  S         15.3730  -23.4600   -4.4820 S.O2    1  UNL1        0.2630
     33  O         14.8220  -22.1750   -4.1020 O.2     1  UNL1       -0.2000
     34  O         14.7580  -24.6990   -4.0560 O.2     1  UNL1       -0.2000
     35  C         15.5150  -23.4700   -6.2520 C.2     1  UNL1        0.0790
     36  C         15.5100  -22.2670   -6.9660 C.2     1  UNL1        0.0250
     37  C         15.6420  -22.2960   -8.3560 C.2     1  UNL1        0.0020
     38  C         15.7750  -23.5150   -9.0230 C.2     1  UNL1        0.0000
     39  C         15.7850  -24.7110   -8.3030 C.2     1  UNL1        0.0020
     40  C         15.6560  -24.6920   -6.9140 C.2     1  UNL1        0.0250
@<TRIPOS>BOND
     1    21    19    2
     2    21    22    1
     3    19    18    1
     4    23    22    1
     5    22    16    2
     6    18    20    1
     7    18    17    2
     8    16    17    1
     9    16    14    1
    10    15    14    1
    11    14    11    1
    12    12    11    2
    13    11    13    2
    14    11     8    1
    15     7     8    2
    16     7     6    1
    17     8     9    1
    18     6     5    2
    19     9    10    2
    20     5    10    1
    21     5     1    1
    22    38    37    2
    23    38    39    1
    24    37    36    1
    25     3     2    2
    26    39    40    2
    27     1     2   am
    28     1     4    1
    29     2    24    1
    30    36    35    2
    31    40    35    1
    32    24    25    2
    33    24    29    1
    34    35    32    1
    35    25    26    1
    36    29    28    2
    37    26    27    2
    38    28    27    1
    39    28    30    1
    40    32    33    2
    41    32    34    2
    42    32    30    1
    43    30    31    1
