@<TRIPOS>MOLECULE
63485_out_ligand_01.pdbqt
 36 40 0 0 0
SMALL
GASTEIGER

@<TRIPOS>ATOM
      1  C         16.8620  -21.4890  -10.1220 C.3     1  UNL1        0.1210
      2  C         18.2310  -21.4690  -10.7710 C.2     1  UNL1       -0.0480
      3  C         18.9870  -22.6470  -10.8640 C.2     1  UNL1        0.0090
      4  C         20.2220  -22.6500  -11.5200 C.2     1  UNL1        0.0170
      5  C         20.7250  -21.4720  -12.0840 C.2     1  UNL1        0.0320
      6  C         19.9820  -20.2890  -11.9870 C.2     1  UNL1        0.0170
      7  C         18.7510  -20.2890  -11.3240 C.2     1  UNL1        0.0090
      8  C         22.0210  -21.5430  -12.8180 C.2     1  UNL1        0.2510
      9  O         22.1750  -20.8990  -13.8510 O.2     1  UNL1       -0.2680
     10  N         22.9980  -22.3540  -12.2840 N.am    1  UNL1       -0.3530
     11  H         22.8010  -22.9250  -11.4670 H       1  UNL1        0.1630
     12  C         24.3100  -22.4740  -12.8940 C.3     1  UNL1        0.1620
     13  C         25.1880  -21.3150  -12.5100 C.2     1  UNL1       -0.0230
     14  C         25.7100  -20.4420  -13.4640 C.2     1  UNL1        0.0120
     15  C         26.4990  -19.3630  -13.0540 C.2     1  UNL1        0.0200
     16  C         26.7460  -19.1970  -11.6940 C.2     1  UNL1        0.1160
     17  N         26.2690  -20.0250  -10.7440 N.2     1  UNL1       -0.2730
     18  C         25.4960  -21.0590  -11.1700 C.2     1  UNL1        0.1240
     19  S         16.3630  -23.1950   -9.7060 S.3     1  UNL1       -0.0870
     20  C         16.3180  -23.0900   -7.9780 C.ar    1  UNL1        0.1710
     21  N         15.4480  -22.3720   -7.2980 N.ar    1  UNL1       -0.2210
     22  C         15.7230  -22.6450   -5.9750 C.ar    1  UNL1        0.1050
     23  C         15.1090  -22.2140   -4.7890 C.2     1  UNL1        0.0370
     24  C         16.8100  -23.5130   -5.8650 C.ar    1  UNL1        0.1610
     25  C         15.6430  -22.6860   -3.5790 C.2     1  UNL1        0.0220
     26  C         16.7450  -23.5490   -3.6160 C.2     1  UNL1        0.1190
     27  N         17.3740  -23.9960   -4.7380 N.2     1  UNL1       -0.2410
     28  N         17.1910  -23.7690   -7.1620 N.ar    1  UNL1       -0.3040
     29  C         18.3080  -24.6230   -7.5410 C.3     1  UNL1        0.1710
     30  C         19.6140  -23.8720   -7.7570 C.2     1  UNL1       -0.0370
     31  C         19.7190  -22.5550   -7.2660 C.2     1  UNL1        0.0090
     32  C         20.8670  -21.7780   -7.5000 C.2     1  UNL1        0.0040
     33  C         21.9250  -22.3110   -8.2300 C.2     1  UNL1        0.0420
     34  C         21.8340  -23.6140   -8.7100 C.2     1  UNL1        0.1170
     35  F         22.8550  -24.1220   -9.4160 F       1  UNL1       -0.2060
     36  C         20.6980  -24.3900   -8.4880 C.2     1  UNL1        0.0510
@<TRIPOS>BOND
     1     9     8    2
     2    14    15    1
     3    14    13    2
     4    15    16    2
     5    12    13    1
     6    12    10    1
     7     8    10   am
     8     8     5    1
     9    13    18    1
    10    10    11    1
    11     5     6    2
    12     5     4    1
    13     6     7    1
    14    16    17    1
    15     4     3    2
    16     7     2    2
    17    18    17    2
    18     3     2    1
    19     2     1    1
    20     1    19    1
    21    19    20    1
    22    35    34    1
    23    34    36    1
    24    34    33    2
    25    36    30    2
    26    33    32    1
    27    20    21   ar
    28    20    28   ar
    29    30    29    1
    30    30    31    1
    31    29    28    1
    32    32    31    2
    33    21    22   ar
    34    28    24   ar
    35    22    24   ar
    36    22    23    1
    37    24    27    1
    38    23    25    2
    39    27    26    2
    40    26    25    1
