@<TRIPOS>MOLECULE
63499_out_ligand_01.pdbqt
 31 34 0 0 0
SMALL
GASTEIGER

@<TRIPOS>ATOM
      1  C         19.0870  -22.8060   -9.7710 C.2     1  UNL1        0.0340
      2  C         18.2690  -21.8740  -10.4160 C.2     1  UNL1        0.0170
      3  C         18.7900  -21.0960  -11.4500 C.2     1  UNL1        0.0030
      4  C         20.1280  -21.2320  -11.8360 C.2     1  UNL1        0.0290
      5  C         20.9630  -22.1390  -11.1850 C.2     1  UNL1        0.0360
      6  C         20.4330  -22.9230  -10.1520 C.2     1  UNL1        0.0460
      7  N         22.3250  -22.3250  -11.4940 N.am    1  UNL1       -0.3220
      8  C         23.4290  -21.8370  -10.8080 C.2     1  UNL1        0.2760
      9  O         23.3930  -21.1600   -9.7850 O.2     1  UNL1       -0.2660
     10  H         22.5210  -22.9420  -12.2730 H       1  UNL1        0.1690
     11  C         24.7080  -22.2340  -11.4300 C.ar    1  UNL1        0.1440
     12  N         25.5340  -23.0360  -10.7490 N.ar    1  UNL1       -0.2050
     13  S         26.8590  -23.3730  -11.6670 S.2     1  UNL1        0.0120
     14  C         26.3930  -22.4470  -13.0350 C.ar    1  UNL1        0.0360
     15  C         27.0650  -22.2640  -14.2560 C.2     1  UNL1        0.0210
     16  C         25.1640  -21.8420  -12.7560 C.ar    1  UNL1        0.0170
     17  C         26.4830  -21.4360  -15.2180 C.2     1  UNL1        0.0010
     18  C         25.2710  -20.8050  -14.9680 C.2     1  UNL1        0.0010
     19  C         24.6080  -20.9950  -13.7510 C.2     1  UNL1        0.0150
     20  C         18.6000  -23.6730   -8.6600 C.2     1  UNL1        0.2520
     21  O         19.3800  -24.4270   -8.0890 O.2     1  UNL1       -0.2680
     22  N         17.2580  -23.6010   -8.3540 N.am    1  UNL1       -0.3530
     23  H         16.6260  -23.1460   -8.9950 H       1  UNL1        0.1630
     24  C         16.6600  -24.4740   -7.3680 C.3     1  UNL1        0.1610
     25  C         16.3500  -23.7200   -6.1010 C.2     1  UNL1       -0.0390
     26  C         15.0250  -23.6120   -5.6490 C.2     1  UNL1        0.0090
     27  C         14.7270  -22.9020   -4.4840 C.2     1  UNL1        0.0020
     28  C         15.7490  -22.2890   -3.7600 C.2     1  UNL1        0.0190
     29  C         17.0640  -22.3800   -4.2110 C.2     1  UNL1        0.0110
     30 BR         18.4490  -21.5340   -3.2390 Br      1  UNL1       -0.0510
     31  C         17.3690  -23.0860   -5.3750 C.2     1  UNL1        0.0270
@<TRIPOS>BOND
     1    17    18    2
     2    17    15    1
     3    18    19    1
     4    15    14    2
     5    19    16    2
     6    14    16   ar
     7    14    13   ar
     8    16    11   ar
     9    10     7    1
    10     4     3    2
    11     4     5    1
    12    13    12   ar
    13     7     5    1
    14     7     8   am
    15     3     2    1
    16    11     8    1
    17    11    12   ar
    18     5     6    2
    19     8     9    2
    20     2     1    2
    21     6     1    1
    22     1    20    1
    23    23    22    1
    24    20    22   am
    25    20    21    2
    26    22    24    1
    27    24    25    1
    28    25    26    2
    29    25    31    1
    30    26    27    1
    31    31    29    2
    32    27    28    2
    33    29    28    1
    34    29    30    1
