@<TRIPOS>MOLECULE
63509_out_ligand_01.pdbqt
 34 37 0 0 0
SMALL
GASTEIGER

@<TRIPOS>ATOM
      1  C         21.0550  -22.1760  -10.8880 C.ar    1  UNL1        0.1960
      2  N         21.3370  -21.4560  -11.9520 N.ar    1  UNL1       -0.1220
      3  N         20.1760  -20.8640  -12.3840 N.ar    1  UNL1       -0.1290
      4  C         19.2050  -21.2560  -11.5860 C.ar    1  UNL1        0.1580
      5  C         17.8100  -20.9790  -11.5640 C.2     1  UNL1        0.0540
      6  C         17.0390  -21.5180  -10.6000 C.2     1  UNL1        0.0220
      7  C         17.6080  -22.3790   -9.5630 C.2     1  UNL1        0.0480
      8  C         18.9240  -22.6670   -9.6010 C.2     1  UNL1        0.1180
      9  N         19.7120  -22.1040  -10.6050 N.ar    1  UNL1       -0.2820
     10  S         22.2030  -23.0410   -9.9280 S.3     1  UNL1       -0.0810
     11  C         23.4020  -21.7250   -9.5510 C.3     1  UNL1        0.1850
     12  C         24.4290  -21.5940  -10.6670 C.2     1  UNL1        0.2310
     13  N         24.2010  -22.4600  -11.7240 N.am    1  UNL1       -0.3260
     14  H         23.3260  -22.9850  -11.6970 H       1  UNL1        0.1690
     15  O         25.3410  -20.7740  -10.5880 O.2     1  UNL1       -0.2720
     16  C         24.9480  -22.5930  -12.9120 C.2     1  UNL1        0.0360
     17  C         25.9850  -23.5090  -13.0830 C.2     1  UNL1        0.0300
     18  C         26.6800  -23.5770  -14.2950 C.2     1  UNL1        0.0110
     19  C         26.3530  -22.7290  -15.3620 C.2     1  UNL1       -0.0400
     20  C         27.1200  -22.8270  -16.6500 C.3     1  UNL1        0.0500
     21  C         25.3090  -21.8110  -15.1850 C.2     1  UNL1        0.0420
     22  C         24.6130  -21.7460  -13.9730 C.2     1  UNL1        0.0530
     23 CL         24.8420  -20.7220  -16.4440 Cl      1  UNL1       -0.0840
     24  C         16.7830  -23.0080   -8.4840 C.2     1  UNL1        0.2570
     25  O         15.8730  -23.7700   -8.7810 O.2     1  UNL1       -0.2670
     26  N         17.2040  -22.6590   -7.2170 N.am    1  UNL1       -0.3230
     27  H         18.0430  -22.0980   -7.1490 H       1  UNL1        0.1690
     28  C         16.6340  -23.0570   -5.9890 C.2     1  UNL1        0.0370
     29  C         17.3240  -22.7040   -4.8190 C.2     1  UNL1        0.0290
     30  C         16.8280  -23.0530   -3.5590 C.2     1  UNL1        0.0050
     31  C         15.6340  -23.7600   -3.4590 C.2     1  UNL1        0.0420
     32  C         14.9500  -24.1070   -4.6180 C.2     1  UNL1        0.1180
     33  F         13.7980  -24.7840   -4.5180 F       1  UNL1       -0.2060
     34  C         15.4350  -23.7630   -5.8770 C.2     1  UNL1        0.0710
@<TRIPOS>BOND
     1    20    19    1
     2    23    21    1
     3    19    21    2
     4    19    18    1
     5    21    22    1
     6    18    17    2
     7    22    16    2
     8    17    16    1
     9    16    13    1
    10     3     2   ar
    11     3     4   ar
    12     2     1   ar
    13    13    14    1
    14    13    12   am
    15     4     5    1
    16     4     9   ar
    17     5     6    2
    18     1     9   ar
    19     1    10    1
    20    12    15    2
    21    12    11    1
    22     9     8    1
    23     6     7    1
    24    10    11    1
    25     8     7    2
    26     7    24    1
    27    25    24    2
    28    24    26   am
    29    26    27    1
    30    26    28    1
    31    28    34    2
    32    28    29    1
    33    34    32    1
    34    29    30    2
    35    32    33    1
    36    32    31    2
    37    30    31    1
