@<TRIPOS>MOLECULE
63500_out_ligand_01.pdbqt
 33 36 0 0 0
SMALL
GASTEIGER

@<TRIPOS>ATOM
      1  C         23.2390  -22.6500   -9.9240 C.2     1  UNL1        0.0320
      2  C         22.2520  -23.5700  -10.2870 C.2     1  UNL1        0.0190
      3  C         21.0490  -23.6400   -9.5730 C.2     1  UNL1        0.0300
      4  C         20.8170  -22.7870   -8.4940 C.2     1  UNL1        0.0360
      5  C         21.8000  -21.8500   -8.1470 C.2     1  UNL1        0.0300
      6  C         23.0050  -21.7780   -8.8560 C.2     1  UNL1        0.0190
      7  N         19.6350  -22.7840   -7.7330 N.am    1  UNL1       -0.3090
      8  C         18.3560  -22.4310   -8.1340 C.2     1  UNL1        0.3270
      9  O         18.0320  -22.1650   -9.2890 O.2     1  UNL1       -0.2460
     10  N         17.4120  -22.4890   -7.0810 N.am    1  UNL1       -0.2990
     11  C         16.0110  -22.3350   -7.4820 C.3     1  UNL1        0.1340
     12  C         17.7450  -22.1140   -5.7420 C.2     1  UNL1        0.0450
     13  C         14.9680  -22.9450   -6.5510 C.3     1  UNL1        0.0210
     14  C         15.4750  -24.2410   -5.9380 C.3     1  UNL1        0.0060
     15  C         16.2990  -23.9920   -4.6770 C.3     1  UNL1        0.0410
     16  C         17.2200  -22.7910   -4.6270 C.2     1  UNL1       -0.0310
     17  C         17.6250  -22.3780   -3.3380 C.2     1  UNL1        0.0090
     18  C         18.5070  -21.3140   -3.1530 C.2     1  UNL1        0.0010
     19  C         19.0080  -20.6390   -4.2560 C.2     1  UNL1        0.0020
     20  C         18.6310  -21.0370   -5.5380 C.2     1  UNL1        0.0300
     21  H         19.6890  -23.1640   -6.7990 H       1  UNL1        0.1700
     22  C         24.5020  -22.6110  -10.7120 C.2     1  UNL1        0.2510
     23  O         25.2860  -21.6800  -10.5710 O.2     1  UNL1       -0.2680
     24  N         24.6960  -23.6460  -11.6020 N.am    1  UNL1       -0.3530
     25  H         23.9090  -24.2310  -11.8410 H       1  UNL1        0.1630
     26  C         25.8090  -23.6440  -12.5250 C.3     1  UNL1        0.1610
     27  C         25.3440  -23.3260  -13.9240 C.2     1  UNL1       -0.0400
     28  C         25.0020  -22.0140  -14.2860 C.2     1  UNL1        0.0120
     29  C         24.5930  -21.7260  -15.5890 C.2     1  UNL1        0.0430
     30  C         24.5310  -22.7480  -16.5300 C.2     1  UNL1        0.1160
     31  F         24.1400  -22.4680  -17.7810 F       1  UNL1       -0.2060
     32  C         24.8720  -24.0520  -16.1950 C.2     1  UNL1        0.0430
     33  C         25.2820  -24.3410  -14.8920 C.2     1  UNL1        0.0120
@<TRIPOS>BOND
     1    31    30    1
     2    30    32    2
     3    30    29    1
     4    32    33    1
     5    29    28    2
     6    33    27    2
     7    28    27    1
     8    27    26    1
     9    26    24    1
    10    25    24    1
    11    24    22   am
    12    22    23    2
    13    22     1    1
    14     2     1    2
    15     2     3    1
    16     1     6    1
    17     3     4    2
    18     9     8    2
    19     6     5    2
    20     4     5    1
    21     4     7    1
    22     8     7   am
    23     8    10   am
    24     7    21    1
    25    11    10    1
    26    11    13    1
    27    10    12    1
    28    13    14    1
    29    14    15    1
    30    12    20    2
    31    12    16    1
    32    20    19    1
    33    15    16    1
    34    16    17    2
    35    19    18    2
    36    17    18    1
