@<TRIPOS>MOLECULE
63501_out_ligand_01.pdbqt
 32 34 0 0 0
SMALL
GASTEIGER

@<TRIPOS>ATOM
      1  C         20.4230  -22.4910   -7.4060 C.2     1  UNL1        0.0720
      2  C         19.2290  -23.2140   -7.2410 C.2     1  UNL1        0.0450
      3  C         18.2770  -22.7890   -6.3060 C.2     1  UNL1        0.0800
      4  C         18.4970  -21.6550   -5.5230 C.2     1  UNL1        0.0280
      5  C         19.6840  -20.9390   -5.6800 C.2     1  UNL1        0.0450
      6  C         20.6330  -21.3580   -6.6140 C.2     1  UNL1        0.1320
      7  F         21.7560  -20.6340   -6.7310 F       1  UNL1       -0.2050
      8  S         16.7710  -23.7120   -6.1300 S.O2    1  UNL1        0.2580
      9  O         16.1710  -23.3820   -4.8560 O.2     1  UNL1       -0.2010
     10  O         17.0570  -25.0720   -6.5190 O.2     1  UNL1       -0.2010
     11  N         15.8110  -23.0540   -7.3400 N.3     1  UNL1       -0.3150
     12  H         15.6800  -22.0480   -7.2280 H       1  UNL1        0.1720
     13  C         15.9160  -23.6060   -8.6950 C.3     1  UNL1        0.1370
     14  C         15.7070  -22.4850   -9.7150 C.3     1  UNL1        0.0580
     15  C         16.9940  -22.1060  -10.4050 C.2     1  UNL1       -0.0570
     16  C         17.1130  -20.8680  -11.0540 C.2     1  UNL1        0.0090
     17  C         18.2970  -20.5250  -11.7090 C.2     1  UNL1        0.0240
     18  C         19.3660  -21.4180  -11.7220 C.2     1  UNL1        0.0340
     19 CL         20.8240  -20.9950  -12.5310 Cl      1  UNL1       -0.0840
     20  C         19.2610  -22.6520  -11.0850 C.2     1  UNL1        0.0240
     21  C         18.0760  -22.9970  -10.4290 C.2     1  UNL1        0.0090
     22  C         21.4010  -22.9670   -8.4330 C.2     1  UNL1        0.2590
     23  O         21.5280  -24.1780   -8.5790 O.2     1  UNL1       -0.2670
     24  N         22.0810  -21.9920   -9.1390 N.am    1  UNL1       -0.3230
     25  H         21.8610  -21.0260   -8.9190 H       1  UNL1        0.1690
     26  C         23.0500  -22.1740  -10.1500 C.2     1  UNL1        0.0360
     27  C         22.9910  -23.1770  -11.1210 C.2     1  UNL1        0.0290
     28  C         23.9950  -23.2910  -12.0900 C.2     1  UNL1        0.0040
     29  C         25.0670  -22.4030  -12.0960 C.2     1  UNL1        0.0240
     30  C         25.1300  -21.4030  -11.1310 C.2     1  UNL1        0.0360
     31 CL         26.4520  -20.3000  -11.1310 Cl      1  UNL1       -0.0840
     32  C         24.1320  -21.2840  -10.1630 C.2     1  UNL1        0.0530
@<TRIPOS>BOND
     1    19    18    1
     2    29    28    2
     3    29    30    1
     4    28    27    1
     5    18    17    2
     6    18    20    1
     7    17    16    1
     8    31    30    1
     9    30    32    2
    10    27    26    2
    11    20    21    2
    12    16    15    2
    13    21    15    1
    14    15    14    1
    15    32    26    1
    16    26    24    1
    17    14    13    1
    18    24    25    1
    19    24    22   am
    20    13    11    1
    21    23    22    2
    22    22     1    1
    23     1     2    2
    24     1     6    1
    25    11    12    1
    26    11     8    1
    27     2     3    1
    28     7     6    1
    29     6     5    2
    30    10     8    2
    31     3     8    1
    32     3     4    2
    33     8     9    2
    34     5     4    1
