@<TRIPOS>MOLECULE
63515_out_ligand_01.pdbqt
 33 37 0 0 0
SMALL
GASTEIGER

@<TRIPOS>ATOM
      1  C         24.3720  -22.8570  -10.4380 C.ar    1  UNL1        0.1520
      2  N         25.6500  -23.0160  -10.7360 N.ar    1  UNL1       -0.1330
      3  N         25.8500  -22.5500  -12.0170 N.ar    1  UNL1       -0.1280
      4  C         24.6970  -22.1030  -12.4650 C.ar    1  UNL1        0.1740
      5  C         24.3010  -21.5320  -13.6900 C.2     1  UNL1        0.0580
      6  C         23.0200  -21.1870  -13.8570 C.2     1  UNL1        0.0560
      7  C         22.0550  -21.4190  -12.7310 C.2     1  UNL1        0.1440
      8  N         22.4030  -21.9440  -11.5820 N.2     1  UNL1       -0.1460
      9  N         23.7240  -22.2690  -11.5000 N.ar    1  UNL1       -0.1960
     10  C         23.6870  -23.3150   -9.1980 C.3     1  UNL1        0.0910
     11  C         22.4880  -22.4360   -8.8520 C.3     1  UNL1        0.1110
     12  C         21.3010  -23.2760   -8.4090 C.2     1  UNL1        0.2220
     13  O         21.2260  -24.4550   -8.7300 O.2     1  UNL1       -0.2730
     14  N         20.4050  -22.5700   -7.6260 N.am    1  UNL1       -0.3270
     15  H         20.6480  -21.6020   -7.4190 H       1  UNL1        0.1690
     16  C         19.2170  -23.0360   -7.0280 C.2     1  UNL1        0.0370
     17  C         18.5330  -24.1820   -7.4420 C.2     1  UNL1        0.0320
     18  C         17.3460  -24.5690   -6.8040 C.2     1  UNL1        0.0420
     19  C         16.8280  -23.8010   -5.7680 C.2     1  UNL1        0.1020
     20  C         17.5170  -22.6670   -5.3320 C.2     1  UNL1        0.1040
     21  O         15.6360  -24.2110   -5.2250 O.2     1  UNL1       -0.3460
     22  C         18.7070  -22.2890   -5.9580 C.2     1  UNL1        0.0690
     23  O         17.0670  -21.8550   -4.3240 O.2     1  UNL1       -0.3460
     24  C         15.9910  -22.4530   -3.5910 C.3     1  UNL1        0.2020
     25  C         15.0020  -23.1340   -4.5280 C.3     1  UNL1        0.2020
     26  N         20.7270  -21.1000  -12.8380 N.pl3   1  UNL1       -0.3670
     27  H         20.2010  -21.8730  -13.2380 H       1  UNL1        0.1610
     28  C         19.9630  -20.3760  -11.8330 C.3     1  UNL1        0.1860
     29  C         18.7770  -21.0910  -11.2780 C.2     1  UNL1        0.0700
     30  C         18.5870  -22.3110  -10.6550 C.2     1  UNL1        0.0360
     31  C         17.2040  -22.4070  -10.3720 C.2     1  UNL1        0.0270
     32  C         16.6370  -21.2430  -10.8340 C.2     1  UNL1        0.1420
     33  O         17.5810  -20.4380  -11.3870 O.2     1  UNL1       -0.3250
@<TRIPOS>BOND
     1     6     5    2
     2     6     7    1
     3     5     4    1
     4    27    26    1
     5    26     7    1
     6    26    28    1
     7     7     8    2
     8     4     3   ar
     9     4     9   ar
    10     3     2   ar
    11    28    29    1
    12     8     9    1
    13     9     1   ar
    14    33    29    1
    15    33    32    1
    16    29    30    2
    17    32    31    2
    18     2     1   ar
    19    30    31    1
    20     1    10    1
    21    10    11    1
    22    11    12    1
    23    13    12    2
    24    12    14   am
    25    14    15    1
    26    14    16    1
    27    17    16    2
    28    17    18    1
    29    16    22    1
    30    18    19    2
    31    22    20    2
    32    19    20    1
    33    19    21    1
    34    20    23    1
    35    21    25    1
    36    25    24    1
    37    23    24    1
