@<TRIPOS>MOLECULE
6351_out_ligand_01.pdbqt
 42 45 0 0 0
SMALL
GASTEIGER

@<TRIPOS>ATOM
      1  C         21.3750  -22.1900  -10.8570 C.2     1  UNL1        0.2560
      2  O         20.3390  -21.6520  -11.2280 O.2     1  UNL1       -0.2670
      3  N         21.6170  -22.7370   -9.6090 N.am    1  UNL1       -0.3230
      4  H         22.4950  -23.2190   -9.4760 H       1  UNL1        0.1690
      5  C         22.4860  -22.3170  -11.8490 C.2     1  UNL1        0.0320
      6  C         23.5040  -23.2730  -11.7320 C.2     1  UNL1        0.0190
      7  C         24.5010  -23.3520  -12.7100 C.2     1  UNL1        0.0310
      8  C         24.5110  -22.4640  -13.7880 C.2     1  UNL1        0.0450
      9  C         23.5050  -21.5000  -13.9010 C.2     1  UNL1        0.0310
     10  C         22.5020  -21.4240  -12.9300 C.2     1  UNL1        0.0190
     11  N         25.5270  -22.6030  -14.7940 N.pl3   1  UNL1       -0.2720
     12  S         25.0080  -22.4660  -16.4100 S.O2    1  UNL1        0.2290
     13  C         26.5370  -22.5540  -17.3260 C.3     1  UNL1        0.1860
     14  O         24.2370  -23.6410  -16.7520 O.2     1  UNL1       -0.2060
     15  O         24.4510  -21.1450  -16.6210 O.2     1  UNL1       -0.2060
     16  C         26.8980  -22.1580  -14.4340 C.3     1  UNL1        0.1830
     17  C         26.9780  -20.9070  -13.5880 C.2     1  UNL1        0.0040
     18  C         26.9900  -19.6290  -14.1790 C.2     1  UNL1        0.0430
     19 CL         26.9640  -19.4050  -15.8940 Cl      1  UNL1       -0.0840
     20  C         27.0540  -18.4670  -13.3990 C.2     1  UNL1        0.0240
     21  C         27.1190  -18.5550  -12.0130 C.2     1  UNL1        0.0030
     22  C         27.1200  -19.8060  -11.4060 C.2     1  UNL1        0.0240
     23  C         27.0540  -20.9700  -12.1810 C.2     1  UNL1        0.0430
     24 CL         27.0880  -22.4720  -11.3200 Cl      1  UNL1       -0.0840
     25  C         20.7270  -22.7960   -8.5140 C.2     1  UNL1        0.0350
     26  C         19.9490  -23.9560   -8.3860 C.2     1  UNL1        0.0310
     27  C         19.0270  -24.0880   -7.3430 C.2     1  UNL1        0.0270
     28  C         18.8840  -23.0540   -6.4180 C.2     1  UNL1        0.0750
     29  C         19.6430  -21.8890   -6.5370 C.2     1  UNL1        0.0270
     30  C         20.5710  -21.7700   -7.5770 C.2     1  UNL1        0.0310
     31  S         17.6740  -23.1890   -5.1270 S.O2    1  UNL1        0.2450
     32  O         17.5550  -24.5770   -4.7370 O.2     1  UNL1       -0.2060
     33  O         17.9670  -22.1610   -4.1480 O.2     1  UNL1       -0.2060
     34  N         16.2480  -22.6930   -5.8990 N.pl3   1  UNL1       -0.1810
     35  H         15.4480  -22.8760   -5.2930 H       1  UNL1        0.1460
     36  C         16.1030  -23.0100   -7.2790 C.2     1  UNL1        0.0240
     37  C         15.5310  -24.2280   -7.6460 C.2     1  UNL1        0.0240
     38  C         15.3390  -24.5270   -8.9940 C.2     1  UNL1        0.0030
     39  C         15.7150  -23.6050   -9.9720 C.2     1  UNL1        0.0240
     40  C         16.2780  -22.3860   -9.5950 C.2     1  UNL1        0.0350
     41 CL         16.7330  -21.2460  -10.8020 Cl      1  UNL1       -0.0840
     42  C         16.4730  -22.0810   -8.2490 C.2     1  UNL1        0.0480
@<TRIPOS>BOND
     1    13    12    1
     2    14    12    2
     3    15    12    2
     4    12    11    1
     5    19    18    1
     6    11    16    1
     7    11     8    1
     8    16    17    1
     9    18    17    2
    10    18    20    1
    11     9     8    2
    12     9    10    1
    13     8     7    1
    14    17    23    1
    15    20    21    2
    16    10     5    2
    17     7     6    2
    18    23    22    2
    19    23    24    1
    20    21    22    1
    21     5     6    1
    22     5     1    1
    23     2     1    2
    24     1     3   am
    25    41    40    1
    26    39    40    2
    27    39    38    1
    28     3     4    1
    29     3    25    1
    30    40    42    1
    31    38    37    2
    32    25    26    2
    33    25    30    1
    34    26    27    1
    35    42    36    2
    36    37    36    1
    37    30    29    2
    38    27    28    2
    39    36    34    1
    40    29    28    1
    41    28    31    1
    42    34    35    1
    43    34    31    1
    44    31    32    2
    45    31    33    2
