@<TRIPOS>MOLECULE
63512_out_ligand_01.pdbqt
 34 38 0 0 0
SMALL
GASTEIGER

@<TRIPOS>ATOM
      1  N         19.8410  -23.3310   -9.1980 N.am    1  UNL1       -0.3080
      2  C         21.1920  -23.5490   -9.4730 C.2     1  UNL1        0.2650
      3  O         21.8880  -24.3120   -8.7950 O.2     1  UNL1       -0.2670
      4  C         21.8400  -22.7770  -10.5810 C.2     1  UNL1        0.0740
      5  C         23.1460  -22.4830  -10.4340 C.2     1  UNL1        0.0360
      6  S         20.9260  -22.4350  -11.9920 S.3     1  UNL1       -0.0830
      7  C         19.3920  -21.9820  -11.2270 C.2     1  UNL1        0.0320
      8  C         18.5440  -21.1450  -11.9740 C.2     1  UNL1        0.0210
      9  C         17.2950  -20.7740  -11.4860 C.2     1  UNL1        0.0020
     10  C         16.8830  -21.2460  -10.2480 C.2     1  UNL1        0.0020
     11  C         17.7190  -22.0830   -9.5040 C.2     1  UNL1        0.0310
     12  C         18.9920  -22.4650   -9.9710 C.2     1  UNL1        0.0550
     13  C         23.9990  -21.7740  -11.3940 C.2     1  UNL1       -0.0350
     14  C         23.7010  -21.8450  -12.7590 C.2     1  UNL1        0.0120
     15  C         24.5120  -21.1890  -13.6910 C.2     1  UNL1        0.0180
     16  C         25.6230  -20.4530  -13.2650 C.2     1  UNL1        0.0320
     17  C         25.9380  -20.4020  -11.9010 C.2     1  UNL1        0.0180
     18  C         25.1270  -21.0600  -10.9710 C.2     1  UNL1        0.0120
     19  C         26.4560  -19.7690  -14.2910 C.2     1  UNL1        0.2520
     20  O         27.1030  -20.4310  -15.0960 O.2     1  UNL1       -0.2680
     21  N         26.4090  -18.3870  -14.2870 N.am    1  UNL1       -0.3520
     22  H         25.7080  -17.9220  -13.7260 H       1  UNL1        0.1630
     23  C         27.1210  -17.6050  -15.2480 C.3     1  UNL1        0.0840
     24  C         26.3820  -16.7940  -16.2750 C.3     1  UNL1        0.0270
     25  C         27.1140  -16.1050  -15.1620 C.3     1  UNL1        0.0270
     26  C         19.2900  -24.0470   -8.0370 C.3     1  UNL1        0.1710
     27  C         18.7920  -23.1670   -6.8950 C.2     1  UNL1       -0.0330
     28  C         17.6580  -23.5370   -6.1360 C.2     1  UNL1       -0.0540
     29  C         17.2320  -22.7120   -5.0830 C.2     1  UNL1        0.0080
     30  C         16.8760  -24.7890   -6.4290 C.3     1  UNL1        0.0490
     31  C         17.9260  -21.5470   -4.7580 C.2     1  UNL1        0.0070
     32  C         19.0590  -21.1780   -5.4840 C.2     1  UNL1       -0.0610
     33  C         19.8420  -19.9560   -5.1070 C.3     1  UNL1        0.0480
     34  C         19.4930  -22.0010   -6.5310 C.2     1  UNL1        0.0160
@<TRIPOS>BOND
     1    24    23    1
     2    24    25    1
     3    23    25    1
     4    23    21    1
     5    20    19    2
     6    19    21   am
     7    19    16    1
     8    21    22    1
     9    15    16    2
    10    15    14    1
    11    16    17    1
    12    14    13    2
    13     6     7    1
    14     6     4    1
    15     8     9    1
    16     8     7    2
    17    17    18    2
    18     9    10    2
    19    13    18    1
    20    13     5    1
    21     7    12    1
    22     4     5    2
    23     4     2    1
    24    10    11    1
    25    12    11    2
    26    12     1    1
    27     2     1   am
    28     2     3    2
    29     1    26    1
    30    26    27    1
    31    27    34    2
    32    27    28    1
    33    34    32    1
    34    30    28    1
    35    28    29    2
    36    32    33    1
    37    32    31    2
    38    29    31    1
