@<TRIPOS>MOLECULE
6353_out_ligand_01.pdbqt
 42 45 0 0 0
SMALL
GASTEIGER

@<TRIPOS>ATOM
      1  C         19.7890  -21.4230  -11.7000 C.2     1  UNL1        0.2560
      2  O         19.6690  -20.6560  -12.6480 O.2     1  UNL1       -0.2670
      3  N         20.9380  -22.0320  -11.2380 N.am    1  UNL1       -0.3230
      4  H         20.8550  -22.5660  -10.3790 H       1  UNL1        0.1690
      5  C         18.5750  -21.7890  -10.9320 C.2     1  UNL1        0.0400
      6  C         17.4300  -21.0080  -11.1440 C.2     1  UNL1        0.0180
      7  C         16.2600  -21.2960  -10.4520 C.2     1  UNL1        0.0030
      8  C         16.2360  -22.3500   -9.5380 C.2     1  UNL1        0.0310
      9  C         17.3770  -23.1250   -9.3090 C.2     1  UNL1        0.0490
     10  C         18.5590  -22.8860  -10.0410 C.2     1  UNL1       -0.0190
     11  C         19.7580  -23.7900   -9.8800 C.3     1  UNL1        0.0520
     12  N         17.3370  -24.1820   -8.3520 N.pl3   1  UNL1       -0.2800
     13  H         17.8690  -25.0330   -8.5170 H       1  UNL1        0.1790
     14  S         17.1160  -23.8700   -6.7090 S.O2    1  UNL1        0.2630
     15  O         17.4990  -25.0850   -6.0230 O.2     1  UNL1       -0.2000
     16  O         15.8120  -23.2690   -6.5030 O.2     1  UNL1       -0.2000
     17  C         18.3600  -22.6420   -6.3540 C.2     1  UNL1        0.0790
     18  C         19.5780  -22.6670   -7.0450 C.2     1  UNL1        0.0260
     19  C         20.5420  -21.6870   -6.7880 C.2     1  UNL1        0.0080
     20  C         20.2870  -20.6690   -5.8550 C.2     1  UNL1       -0.0620
     21  C         21.3340  -19.6270   -5.5810 C.3     1  UNL1        0.0480
     22  C         19.0580  -20.6510   -5.1740 C.2     1  UNL1        0.0080
     23  C         18.0880  -21.6290   -5.4290 C.2     1  UNL1        0.0260
     24  C         22.1630  -22.1520  -11.9250 C.2     1  UNL1        0.0350
     25  C         22.4460  -21.4940  -13.1240 C.2     1  UNL1        0.0310
     26  C         23.6190  -21.7750  -13.8310 C.2     1  UNL1        0.0270
     27  C         24.5110  -22.7250  -13.3330 C.2     1  UNL1        0.0800
     28  C         24.2850  -23.3280  -12.0950 C.2     1  UNL1        0.0270
     29  C         23.1080  -23.0430  -11.3970 C.2     1  UNL1        0.0310
     30  S         25.8870  -23.2430  -14.3350 S.O2    1  UNL1        0.2630
     31  O         25.5650  -22.9630  -15.7160 O.2     1  UNL1       -0.2000
     32  O         26.2770  -24.5660  -13.9000 O.2     1  UNL1       -0.2000
     33  N         27.1160  -22.1940  -13.8150 N.pl3   1  UNL1       -0.2810
     34  H         27.4040  -22.4070  -12.8610 H       1  UNL1        0.1790
     35  C         27.0260  -20.8220  -14.1860 C.2     1  UNL1        0.0440
     36  C         27.0850  -19.8330  -13.2090 C.2     1  UNL1        0.0310
     37  C         27.0980  -18.4850  -13.5730 C.2     1  UNL1        0.0110
     38  C         27.0560  -18.1120  -14.9230 C.2     1  UNL1       -0.0400
     39  C         27.1200  -16.6530  -15.2890 C.3     1  UNL1        0.0500
     40  C         26.9950  -19.1220  -15.8960 C.2     1  UNL1        0.0420
     41 CL         26.9940  -18.7450  -17.5800 Cl      1  UNL1       -0.0840
     42  C         26.9730  -20.4720  -15.5310 C.2     1  UNL1        0.0540
@<TRIPOS>BOND
     1    41    40    1
     2    40    42    1
     3    40    38    2
     4    31    30    2
     5    42    35    2
     6    39    38    1
     7    38    37    1
     8    30    32    2
     9    30    33    1
    10    30    27    1
    11    35    33    1
    12    35    36    1
    13    26    27    2
    14    26    25    1
    15    33    34    1
    16    37    36    2
    17    27    28    1
    18    25    24    2
    19     2     1    2
    20    28    29    2
    21    24    29    1
    22    24     3    1
    23     1     3   am
    24     1     5    1
    25     3     4    1
    26     6     5    2
    27     6     7    1
    28     5    10    1
    29     7     8    2
    30    10    11    1
    31    10     9    2
    32     8     9    1
    33     9    12    1
    34    13    12    1
    35    12    14    1
    36    18    19    1
    37    18    17    2
    38    19    20    2
    39    14    16    2
    40    14    17    1
    41    14    15    2
    42    17    23    1
    43    20    21    1
    44    20    22    1
    45    23    22    2
