@<TRIPOS>MOLECULE
63550_out_ligand_01.pdbqt
 35 39 0 0 0
SMALL
GASTEIGER

@<TRIPOS>ATOM
      1  C         16.1350  -21.9110   -9.9510 C.3     1  UNL1        0.1210
      2  C         17.5060  -21.7820  -10.5680 C.2     1  UNL1       -0.0480
      3  C         17.9750  -20.5380  -11.0190 C.2     1  UNL1        0.0090
      4  C         19.2470  -20.4210  -11.5870 C.2     1  UNL1        0.0170
      5  C         20.0680  -21.5480  -11.7040 C.2     1  UNL1        0.0320
      6  C         19.6010  -22.7910  -11.2710 C.2     1  UNL1        0.0170
      7  C         18.3320  -22.9050  -10.6990 C.2     1  UNL1        0.0090
      8  C         21.4240  -21.4740  -12.3070 C.2     1  UNL1        0.2520
      9  O         21.6050  -20.8240  -13.3310 O.2     1  UNL1       -0.2680
     10  N         22.4140  -22.1890  -11.6640 N.am    1  UNL1       -0.3520
     11  H         22.1790  -22.7480  -10.8560 H       1  UNL1        0.1630
     12  C         23.8090  -22.1480  -12.1020 C.3     1  UNL1        0.0840
     13  C         24.2150  -23.5360  -12.6060 C.3     1  UNL1        0.0250
     14  C         25.6630  -23.6660  -13.0760 C.3     1  UNL1        0.0020
     15  C         26.6580  -23.6820  -11.9210 C.3     1  UNL1        0.0000
     16  C         27.1190  -22.3090  -11.4440 C.3     1  UNL1        0.0000
     17  C         26.0810  -21.1940  -11.4260 C.3     1  UNL1        0.0020
     18  C         24.6860  -21.6080  -10.9620 C.3     1  UNL1        0.0250
     19  S         15.7630  -23.5860   -9.3560 S.3     1  UNL1       -0.0870
     20  C         15.9750  -23.3570   -7.6530 C.ar    1  UNL1        0.1700
     21  N         15.1860  -22.6280   -6.9020 N.ar    1  UNL1       -0.2220
     22  C         15.7000  -22.7200   -5.6370 C.ar    1  UNL1        0.0890
     23  C         15.2470  -22.1370   -4.4550 C.2     1  UNL1        0.0530
     24  C         16.8340  -23.5260   -5.6180 C.ar    1  UNL1        0.0830
     25  C         15.9910  -22.4200   -3.3220 C.2     1  UNL1        0.1180
     26  N         17.0950  -23.2020   -3.2970 N.2     1  UNL1       -0.2710
     27  C         17.5320  -23.7690   -4.4450 C.2     1  UNL1        0.1480
     28  N         16.9970  -23.9200   -6.9300 N.ar    1  UNL1       -0.3190
     29  C         18.0560  -24.7850   -7.4270 C.3     1  UNL1        0.1700
     30  C         19.3270  -24.0260   -7.7320 C.2     1  UNL1       -0.0400
     31  C         20.3660  -24.6560   -8.4320 C.2     1  UNL1        0.0090
     32  C         21.5490  -23.9720   -8.7160 C.2     1  UNL1        0.0010
     33  C         21.7120  -22.6540   -8.2980 C.2     1  UNL1        0.0000
     34  C         20.6950  -22.0200   -7.5920 C.2     1  UNL1        0.0010
     35  C         19.5100  -22.7020   -7.3030 C.2     1  UNL1        0.0090
@<TRIPOS>BOND
     1     9     8    2
     2    14    13    1
     3    14    15    1
     4    13    12    1
     5     8     5    1
     6     8    10   am
     7    12    10    1
     8    12    18    1
     9    15    16    1
    10     5     4    2
    11     5     6    1
    12    10    11    1
    13     4     3    1
    14    16    17    1
    15    17    18    1
    16     6     7    2
    17     3     2    2
    18     7     2    1
    19     2     1    1
    20     1    19    1
    21    19    20    1
    22    32    31    1
    23    32    33    2
    24    31    30    2
    25    33    34    1
    26    30    29    1
    27    30    35    1
    28    20    28   ar
    29    20    21   ar
    30    34    35    2
    31    29    28    1
    32    28    24   ar
    33    21    22   ar
    34    22    24   ar
    35    22    23    1
    36    24    27    1
    37    23    25    2
    38    27    26    2
    39    25    26    1
