@<TRIPOS>MOLECULE
63556_out_ligand_01.pdbqt
 33 37 0 0 0
SMALL
GASTEIGER

@<TRIPOS>ATOM
      1  S         15.9080  -23.4160   -9.4500 S.3     1  UNL1       -0.0870
      2  C         16.4070  -21.7620   -9.9930 C.3     1  UNL1        0.1210
      3  C         17.7670  -21.7070  -10.6420 C.2     1  UNL1       -0.0480
      4  C         18.5320  -22.8680  -10.8110 C.2     1  UNL1        0.0090
      5  C         19.8090  -22.8040  -11.3740 C.2     1  UNL1        0.0170
      6  C         20.3360  -21.5720  -11.7790 C.2     1  UNL1        0.0320
      7  C         19.5810  -20.4110  -11.6130 C.2     1  UNL1        0.0170
      8  C         18.3040  -20.4810  -11.0570 C.2     1  UNL1        0.0090
      9  C         21.7050  -21.4470  -12.3410 C.2     1  UNL1        0.2520
     10  O         21.8670  -21.0010  -13.4740 O.2     1  UNL1       -0.2680
     11  N         22.7390  -21.8900  -11.5390 N.am    1  UNL1       -0.3520
     12  H         22.5100  -22.4660  -10.7390 H       1  UNL1        0.1630
     13  C         24.0990  -21.8870  -12.0290 C.3     1  UNL1        0.0840
     14  C         24.5840  -23.2760  -12.4400 C.3     1  UNL1        0.0250
     15  C         26.0960  -23.0970  -12.4880 C.3     1  UNL1        0.0020
     16  C         26.4070  -22.2310  -11.2700 C.3     1  UNL1        0.0020
     17  C         25.1210  -21.4450  -10.9730 C.3     1  UNL1        0.0250
     18  C         16.0360  -23.2630   -7.7280 C.ar    1  UNL1        0.1700
     19  N         15.2350  -22.5330   -6.9860 N.ar    1  UNL1       -0.2220
     20  C         15.6870  -22.6830   -5.7040 C.ar    1  UNL1        0.0890
     21  C         15.1860  -22.1370   -4.5220 C.2     1  UNL1        0.0530
     22  C         16.8130  -23.4970   -5.6690 C.ar    1  UNL1        0.0830
     23  C         15.8850  -22.4660   -3.3700 C.2     1  UNL1        0.1180
     24  N         16.9950  -23.2370   -3.3310 N.2     1  UNL1       -0.2710
     25  C         17.4750  -23.7610   -4.4820 C.2     1  UNL1        0.1480
     26  N         17.0060  -23.8830   -6.9810 N.ar    1  UNL1       -0.3190
     27  C         18.1080  -24.7020   -7.4650 C.3     1  UNL1        0.1700
     28  C         19.3700  -23.9110   -7.7020 C.2     1  UNL1       -0.0400
     29  C         19.4940  -22.5860   -7.2520 C.2     1  UNL1        0.0090
     30  C         20.6600  -21.8510   -7.5030 C.2     1  UNL1        0.0010
     31  C         21.7130  -22.4280   -8.2080 C.2     1  UNL1        0.0000
     32  C         21.6020  -23.7440   -8.6630 C.2     1  UNL1        0.0010
     33  C         20.4370  -24.4800   -8.4140 C.2     1  UNL1        0.0090
@<TRIPOS>BOND
     1    10     9    2
     2    15    14    1
     3    15    16    1
     4    14    13    1
     5     9     6    1
     6     9    11   am
     7    13    11    1
     8    13    17    1
     9     6     7    2
    10     6     5    1
    11     7     8    1
    12    11    12    1
    13     5     4    2
    14    16    17    1
    15     8     3    2
    16     4     3    1
    17     3     2    1
    18     2     1    1
    19     1    18    1
    20    32    33    1
    21    32    31    2
    22    33    28    2
    23    31    30    1
    24    18    19   ar
    25    18    26   ar
    26    28    27    1
    27    28    29    1
    28    30    29    2
    29    27    26    1
    30    19    20   ar
    31    26    22   ar
    32    20    22   ar
    33    20    21    1
    34    22    25    1
    35    21    23    2
    36    25    24    2
    37    23    24    1
