@<TRIPOS>MOLECULE
63564_out_ligand_01.pdbqt
 34 39 0 0 0
SMALL
GASTEIGER

@<TRIPOS>ATOM
      1  C         23.1730  -22.8040   -9.3080 C.2     1  UNL1       -0.0400
      2  C         22.9040  -21.7990   -8.3560 C.2     1  UNL1        0.0110
      3  C         21.6920  -21.7680   -7.6560 C.2     1  UNL1        0.0310
      4  C         20.7540  -22.7510   -7.9190 C.2     1  UNL1        0.0430
      5  C         21.0090  -23.7460   -8.8620 C.2     1  UNL1       -0.0290
      6  C         22.2040  -23.7840   -9.5680 C.2     1  UNL1        0.0180
      7  C         19.8420  -24.6680   -9.0100 C.2     1  UNL1        0.0610
      8  C         18.9010  -24.1720   -7.9050 C.2     1  UNL1        0.1370
      9  N         19.4830  -22.9370   -7.3450 N.am    1  UNL1       -0.3130
     10  C         18.8750  -22.0770   -6.4450 C.2     1  UNL1        0.2580
     11  O         19.3080  -20.9920   -6.0670 O.2     1  UNL1       -0.2670
     12  C         24.4740  -22.7930  -10.0670 C.3     1  UNL1        0.1620
     13  N         24.2640  -23.1740  -11.4440 N.am    1  UNL1       -0.3390
     14  C         24.9090  -22.4800  -12.4360 C.2     1  UNL1        0.3170
     15  O         25.6060  -21.4980  -12.2350 O.2     1  UNL1       -0.2470
     16  N         24.6550  -23.0470  -13.6600 N.am    1  UNL1       -0.3340
     17  H         23.7480  -23.4900  -13.6920 H       1  UNL1        0.1650
     18  H         24.1690  -24.1630  -11.6210 H       1  UNL1        0.1640
     19  C         25.1400  -22.5000  -14.9330 C.3     1  UNL1        0.0350
     20  C         24.3760  -21.1770  -15.2100 C.3     1  UNL1        0.0350
     21  C         24.8380  -20.5390  -16.5300 C.3     1  UNL1       -0.0120
     22  C         24.5720  -21.5180  -17.6840 C.3     1  UNL1        0.0090
     23  C         26.3450  -20.2460  -16.4470 C.3     1  UNL1        0.0090
     24  C         25.3360  -22.8290  -17.4440 C.3     1  UNL1       -0.0120
     25  C         26.8430  -22.5300  -17.3550 C.3     1  UNL1        0.0090
     26  C         24.8660  -23.4590  -16.1210 C.3     1  UNL1        0.0350
     27  C         27.1210  -21.5500  -16.2020 C.3     1  UNL1       -0.0120
     28  C         26.6540  -22.1800  -14.8780 C.3     1  UNL1        0.0350
     29  C         17.5610  -22.4900   -5.9080 C.2     1  UNL1        0.0320
     30  C         16.3860  -22.1870   -6.6030 C.2     1  UNL1        0.0170
     31  C         15.1570  -22.5940   -6.0840 C.2     1  UNL1        0.0010
     32  C         15.1070  -23.3100   -4.8870 C.2     1  UNL1        0.0000
     33  C         16.2850  -23.6300   -4.2070 C.2     1  UNL1        0.0010
     34  C         17.5170  -23.2260   -4.7200 C.2     1  UNL1        0.0170
@<TRIPOS>BOND
     1    22    24    1
     2    22    21    1
     3    24    25    1
     4    24    26    1
     5    25    27    1
     6    21    23    1
     7    21    20    1
     8    23    27    1
     9    27    28    1
    10    26    19    1
    11    20    19    1
    12    19    28    1
    13    19    16    1
    14    17    16    1
    15    16    14   am
    16    14    15    2
    17    14    13   am
    18    18    13    1
    19    13    12    1
    20    12     1    1
    21     6     1    2
    22     6     5    1
    23     1     2    1
    24     7     5    1
    25     7     8    2
    26     5     4    2
    27     2     3    2
    28     4     3    1
    29     4     9    1
    30     8     9    1
    31     9    10   am
    32    30    31    1
    33    30    29    2
    34    10    11    2
    35    10    29    1
    36    31    32    2
    37    29    34    1
    38    32    33    1
    39    34    33    2
