@<TRIPOS>MOLECULE
6356_out_ligand_01.pdbqt
 40 43 0 0 0
SMALL
GASTEIGER

@<TRIPOS>ATOM
      1  C         23.0420  -22.3770  -11.0990 C.2     1  UNL1        0.2560
      2  O         23.2110  -23.5600  -10.8320 O.2     1  UNL1       -0.2670
      3  N         21.9500  -21.5800  -10.8100 N.am    1  UNL1       -0.3230
      4  H         22.0330  -20.5970  -11.0390 H       1  UNL1        0.1690
      5  C         24.1290  -21.6480  -11.7920 C.2     1  UNL1        0.0400
      6  C         25.2800  -21.3740  -11.0440 C.2     1  UNL1        0.0180
      7  C         26.3060  -20.6240  -11.6090 C.2     1  UNL1        0.0030
      8  C         26.1690  -20.1390  -12.9080 C.2     1  UNL1        0.0310
      9  C         25.0220  -20.4190  -13.6620 C.2     1  UNL1        0.0490
     10  C         23.9930  -21.2170  -13.1300 C.2     1  UNL1       -0.0190
     11  C         22.7650  -21.5800  -13.9240 C.3     1  UNL1        0.0520
     12  N         24.8880  -19.8240  -14.9500 N.pl3   1  UNL1       -0.2800
     13  H         24.8990  -18.8120  -15.0420 H       1  UNL1        0.1790
     14  S         25.5260  -20.6090  -16.3040 S.O2    1  UNL1        0.2630
     15  O         26.8350  -20.0280  -16.5220 O.2     1  UNL1       -0.2000
     16  O         24.5300  -20.6280  -17.3540 O.2     1  UNL1       -0.2000
     17  C         25.7750  -22.2750  -15.7280 C.2     1  UNL1        0.0790
     18  C         26.9210  -22.5940  -14.9910 C.2     1  UNL1        0.0250
     19  C         27.1050  -23.9010  -14.5400 C.2     1  UNL1        0.0020
     20  C         26.1470  -24.8780  -14.8190 C.2     1  UNL1        0.0000
     21  C         24.9970  -24.5510  -15.5390 C.2     1  UNL1        0.0020
     22  C         24.8030  -23.2450  -15.9900 C.2     1  UNL1        0.0250
     23  C         20.7430  -21.9770  -10.2020 C.2     1  UNL1        0.0350
     24  C         20.6670  -22.5710   -8.9410 C.2     1  UNL1        0.0310
     25  C         19.4310  -22.9440   -8.4040 C.2     1  UNL1        0.0270
     26  C         18.2620  -22.7070   -9.1290 C.2     1  UNL1        0.0800
     27  C         18.3220  -22.1350  -10.4010 C.2     1  UNL1        0.0270
     28  C         19.5620  -21.7700  -10.9310 C.2     1  UNL1        0.0310
     29  S         16.6920  -23.1730   -8.4360 S.O2    1  UNL1        0.2630
     30  O         15.6890  -23.0020   -9.4650 O.2     1  UNL1       -0.2000
     31  O         16.8710  -24.4450   -7.7700 O.2     1  UNL1       -0.2000
     32  N         16.4510  -22.0190   -7.2200 N.pl3   1  UNL1       -0.2790
     33  H         15.7330  -21.3390   -7.4910 H       1  UNL1        0.1790
     34  C         16.3850  -22.4680   -5.8590 C.2     1  UNL1        0.0640
     35  C         15.2550  -23.1590   -5.4190 C.2     1  UNL1        0.0320
     36  C         15.1600  -23.5750   -4.0890 C.2     1  UNL1        0.0020
     37  C         16.1920  -23.2990   -3.1920 C.2     1  UNL1        0.0020
     38  C         17.3230  -22.6090   -3.6250 C.2     1  UNL1        0.0260
     39  C         17.4230  -22.1980   -4.9560 C.2     1  UNL1        0.0610
     40 CL         18.8530  -21.3710   -5.4600 Cl      1  UNL1       -0.0820
@<TRIPOS>BOND
     1    16    14    2
     2    15    14    2
     3    14    17    1
     4    14    12    1
     5    22    17    2
     6    22    21    1
     7    17    18    1
     8    21    20    2
     9    13    12    1
    10    18    19    2
    11    12     9    1
    12    20    19    1
    13    11    10    1
    14     9    10    1
    15     9     8    2
    16    10     5    2
    17     8     7    1
    18     5     1    1
    19     5     6    1
    20     7     6    2
    21     1     2    2
    22     1     3   am
    23     4     3    1
    24    28    27    1
    25    28    23    2
    26     3    23    1
    27    27    26    2
    28    23    24    1
    29    30    29    2
    30    26    29    1
    31    26    25    1
    32    24    25    2
    33    29    31    2
    34    29    32    1
    35    33    32    1
    36    32    34    1
    37    34    35    2
    38    34    39    1
    39    40    39    1
    40    35    36    1
    41    39    38    2
    42    36    37    2
    43    38    37    1
