@<TRIPOS>MOLECULE
63578_out_ligand_01.pdbqt
 36 39 0 0 0
SMALL
GASTEIGER

@<TRIPOS>ATOM
      1  C         25.5240  -20.8640  -17.7220 C.3     1  UNL1        0.0500
      2  C         25.5030  -21.2970  -16.2800 C.2     1  UNL1       -0.0340
      3  C         26.0330  -20.3280  -15.3400 C.2     1  UNL1        0.0330
      4  C         26.0910  -20.5740  -14.0210 C.2     1  UNL1        0.0120
      5  C         26.6670  -19.5440  -13.0830 C.3     1  UNL1        0.0680
      6  N         25.6220  -21.7920  -13.5280 N.am    1  UNL1       -0.3080
      7  C         25.1190  -22.7910  -14.3720 C.2     1  UNL1        0.2690
      8  O         24.7630  -23.8910  -13.9420 O.2     1  UNL1       -0.2660
      9  C         25.0570  -22.4880  -15.8350 C.2     1  UNL1        0.1180
     10  C         24.5330  -23.4910  -16.6940 C.1     1  UNL1        0.1050
     11  N         24.1130  -24.2840  -17.4300 N.1     1  UNL1       -0.1910
     12  C         25.6930  -22.1240  -12.1000 C.3     1  UNL1        0.2350
     13  C         24.3850  -21.7550  -11.3910 C.2     1  UNL1        0.2400
     14  O         24.3900  -21.0450  -10.3900 O.2     1  UNL1       -0.2710
     15  N         23.2770  -22.3320  -11.9880 N.am    1  UNL1       -0.3260
     16  H         23.4710  -22.9570  -12.7730 H       1  UNL1        0.1690
     17  C         21.9290  -22.2420  -11.5930 C.2     1  UNL1        0.0340
     18  C         20.9950  -21.3890  -12.1810 C.2     1  UNL1        0.0300
     19  C         19.6730  -21.3590  -11.7200 C.2     1  UNL1        0.0190
     20  C         19.2670  -22.1920  -10.6750 C.2     1  UNL1        0.0320
     21  C         20.2020  -23.0400  -10.0730 C.2     1  UNL1        0.0190
     22  C         21.5230  -23.0630  -10.5330 C.2     1  UNL1        0.0300
     23  C         17.8500  -22.1250  -10.2210 C.2     1  UNL1        0.2510
     24  O         17.1180  -21.2160  -10.5990 O.2     1  UNL1       -0.2680
     25  N         17.4220  -23.1470   -9.4040 N.am    1  UNL1       -0.3530
     26  H         17.9720  -23.9930   -9.3440 H       1  UNL1        0.1630
     27  C         16.0370  -23.2240   -9.0050 C.3     1  UNL1        0.1610
     28  C         15.9100  -23.1090   -7.5100 C.2     1  UNL1       -0.0380
     29  C         14.8830  -22.3180   -6.9420 C.2     1  UNL1        0.0120
     30  C         14.7290  -22.2260   -5.5550 C.2     1  UNL1        0.0400
     31  C         15.6070  -22.9340   -4.7660 C.2     1  UNL1        0.1050
     32  C         16.6040  -23.7110   -5.3070 C.2     1  UNL1        0.1050
     33  O         15.6040  -22.9660   -3.4060 O.2     1  UNL1       -0.3230
     34  C         16.7790  -23.8240   -6.6700 C.2     1  UNL1        0.0480
     35  O         17.3550  -24.3300   -4.3560 O.2     1  UNL1       -0.3230
     36  C         16.7300  -23.8320   -3.1540 C.3     1  UNL1        0.3520
@<TRIPOS>BOND
     1     1     2    1
     2    11    10    3
     3    10     9    1
     4     2     9    2
     5     2     3    1
     6     9     7    1
     7     3     4    2
     8     7     8    2
     9     7     6   am
    10     4     6    1
    11     4     5    1
    12     6    12    1
    13    16    15    1
    14    18    19    1
    15    18    17    2
    16    12    13    1
    17    15    17    1
    18    15    13   am
    19    19    20    2
    20    17    22    1
    21    13    14    2
    22    20    23    1
    23    20    21    1
    24    24    23    2
    25    22    21    2
    26    23    25   am
    27    25    26    1
    28    25    27    1
    29    27    28    1
    30    28    29    2
    31    28    34    1
    32    29    30    1
    33    34    32    2
    34    30    31    2
    35    32    31    1
    36    32    35    1
    37    31    33    1
    38    35    36    1
    39    33    36    1
