@<TRIPOS>MOLECULE
63588_out_ligand_01.pdbqt
 32 35 0 0 0
SMALL
GASTEIGER

@<TRIPOS>ATOM
      1  C         20.0100  -23.1950   -8.4720 C.2     1  UNL1        0.2580
      2  O         21.0200  -23.8630   -8.2660 O.2     1  UNL1       -0.2670
      3  N         19.7530  -22.4310   -9.6030 N.am    1  UNL1       -0.3090
      4  C         20.6780  -22.2070  -10.6490 C.2     1  UNL1        0.0440
      5  C         21.9760  -22.6730  -10.7840 C.2     1  UNL1        0.0390
      6  C         22.7090  -22.3280  -11.9330 C.2     1  UNL1       -0.0380
      7  C         22.1160  -21.5080  -12.9180 C.2     1  UNL1        0.0090
      8  C         20.8160  -21.0240  -12.7620 C.2     1  UNL1        0.0100
      9  C         20.1120  -21.3850  -11.6240 C.2     1  UNL1       -0.0290
     10  C         18.7440  -20.9350  -11.2240 C.3     1  UNL1        0.0660
     11  C         18.4400  -21.8720  -10.0340 C.3     1  UNL1        0.0930
     12  C         17.4750  -22.9840  -10.4620 C.3     1  UNL1        0.0330
     13  C         24.1140  -22.8370  -12.1180 C.3     1  UNL1        0.1610
     14  N         24.7370  -22.2270  -13.2700 N.am    1  UNL1       -0.3530
     15  C         25.6410  -21.2010  -13.1240 C.2     1  UNL1        0.2530
     16  O         26.0970  -20.8500  -12.0410 O.2     1  UNL1       -0.2680
     17  H         24.2900  -22.3640  -14.1670 H       1  UNL1        0.1630
     18  C         26.1240  -20.5520  -14.3720 C.2     1  UNL1        0.0490
     19  C         25.9770  -19.1550  -14.4300 C.2     1  UNL1        0.0180
     20  C         26.4110  -18.4390  -15.5480 C.2     1  UNL1        0.0010
     21  C         26.9850  -19.1120  -16.6220 C.2     1  UNL1        0.0010
     22  C         27.1190  -20.5010  -16.5830 C.2     1  UNL1        0.0200
     23  C         26.6860  -21.2270  -15.4640 C.2     1  UNL1        0.0260
     24 BR         26.8490  -23.1170  -15.5690 Br      1  UNL1       -0.0500
     25  C         18.9830  -23.2210   -7.4080 C.2     1  UNL1        0.0320
     26  C         18.8640  -22.1600   -6.5050 C.2     1  UNL1        0.0200
     27  C         17.9040  -22.2150   -5.4880 C.2     1  UNL1        0.0380
     28  C         17.0760  -23.3340   -5.3640 C.2     1  UNL1        0.0680
     29  C         17.2220  -24.4010   -6.2570 C.2     1  UNL1        0.0380
     30  C         18.1810  -24.3550   -7.2710 C.2     1  UNL1        0.0200
     31  O         16.1030  -23.5120   -4.4200 O.2     1  UNL1       -0.3560
     32  C         15.1300  -22.4830   -4.2900 C.3     1  UNL1        0.2100
@<TRIPOS>BOND
     1    21    22    2
     2    21    20    1
     3    22    23    1
     4    24    23    1
     5    20    19    2
     6    23    18    2
     7    19    18    1
     8    18    15    1
     9    17    14    1
    10    14    15   am
    11    14    13    1
    12    15    16    2
    13     7     8    2
    14     7     6    1
    15     8     9    1
    16    13     6    1
    17     6     5    2
    18     9    10    1
    19     9     4    2
    20    10    11    1
    21     5     4    1
    22     4     3    1
    23    12    11    1
    24    11     3    1
    25     3     1   am
    26     1     2    2
    27     1    25    1
    28    25    30    2
    29    25    26    1
    30    30    29    1
    31    26    27    2
    32    29    28    2
    33    27    28    1
    34    28    31    1
    35    31    32    1
