@<TRIPOS>MOLECULE
63600_out_ligand_01.pdbqt
 38 41 0 0 0
SMALL
GASTEIGER

@<TRIPOS>ATOM
      1  N         21.9250  -22.8310  -10.8170 N.ar    1  UNL1       -0.2650
      2  C         21.1560  -21.9180  -11.5260 C.ar    1  UNL1        0.2640
      3  O         21.5990  -21.1860  -12.4120 O.2     1  UNL1       -0.2670
      4  C         19.7230  -21.8560  -11.1890 C.ar    1  UNL1        0.0590
      5  C         18.8840  -20.9940  -11.9120 C.2     1  UNL1        0.0190
      6  C         17.5270  -20.9250  -11.6120 C.2     1  UNL1        0.0010
      7  C         17.0110  -21.7270  -10.5990 C.2     1  UNL1        0.0020
      8  C         17.8510  -22.5860   -9.8810 C.2     1  UNL1        0.0310
      9  C         19.2250  -22.6510  -10.1580 C.ar    1  UNL1        0.0550
     10  N         20.1170  -23.4850   -9.4320 N.ar    1  UNL1       -0.2900
     11  C         21.4530  -23.6130   -9.7770 C.ar    1  UNL1        0.3320
     12  O         22.1700  -24.4260   -9.1940 O.2     1  UNL1       -0.2460
     13  C         23.3470  -22.9170  -11.1340 C.3     1  UNL1        0.1370
     14  C         24.2330  -21.8690  -10.4510 C.3     1  UNL1        0.0210
     15  C         25.4070  -21.2930  -11.2470 C.3     1  UNL1        0.0110
     16  C         26.6760  -22.1320  -11.3630 C.3     1  UNL1        0.1030
     17  C         26.5240  -23.3660  -12.2240 C.2     1  UNL1        0.2170
     18  O         26.7370  -24.4960  -11.7910 O.2     1  UNL1       -0.2740
     19  N         26.1340  -23.0940  -13.5160 N.am    1  UNL1       -0.3560
     20  H         26.2280  -22.1370  -13.8530 H       1  UNL1        0.1620
     21  C         26.0250  -24.1400  -14.5090 C.3     1  UNL1        0.1680
     22  C         25.6690  -23.5220  -15.8260 C.2     1  UNL1        0.0000
     23  C         24.5170  -23.6990  -16.5700 C.2     1  UNL1        0.0170
     24  C         24.5310  -22.9470  -17.7810 C.2     1  UNL1        0.0080
     25  C         25.6880  -22.2120  -17.9150 C.2     1  UNL1        0.0500
     26  S         26.7450  -22.4290  -16.5890 S.3     1  UNL1       -0.1050
     27  C         19.6440  -24.2510   -8.2710 C.3     1  UNL1        0.2370
     28  C         18.9530  -23.3950   -7.2000 C.2     1  UNL1        0.2400
     29  O         19.4950  -22.3700   -6.7830 O.2     1  UNL1       -0.2710
     30  N         17.7830  -23.9460   -6.7170 N.am    1  UNL1       -0.3230
     31  H         17.5100  -24.8600   -7.0850 H       1  UNL1        0.1690
     32  C         16.9250  -23.4340   -5.7230 C.2     1  UNL1        0.0730
     33  C         17.1720  -23.5060   -4.3490 C.2     1  UNL1        0.0330
     34  C         16.2500  -22.9710   -3.4400 C.2     1  UNL1        0.0020
     35  C         15.0830  -22.3480   -3.8960 C.2     1  UNL1        0.0030
     36  C         14.8290  -22.2680   -5.2650 C.2     1  UNL1        0.0440
     37  C         15.7420  -22.8160   -6.1610 C.2     1  UNL1        0.1430
     38  F         15.4910  -22.7270   -7.4790 F       1  UNL1       -0.2040
@<TRIPOS>BOND
     1    25    24    2
     2    25    26    1
     3    24    23    1
     4    26    22    1
     5    23    22    2
     6    22    21    1
     7    21    19    1
     8    20    19    1
     9    19    17   am
    10     3     2    2
    11    17    18    2
    12    17    16    1
    13     5     6    1
    14     5     4    2
    15     6     7    2
    16     2     4   ar
    17     2     1   ar
    18    16    15    1
    19    15    14    1
    20     4     9   ar
    21    13     1    1
    22    13    14    1
    23     1    11   ar
    24     7     8    1
    25     9     8    2
    26     9    10   ar
    27    11    10   ar
    28    11    12    2
    29    10    27    1
    30    27    28    1
    31    38    37    1
    32    28    29    2
    33    28    30   am
    34    31    30    1
    35    30    32    1
    36    37    32    2
    37    37    36    1
    38    32    33    1
    39    36    35    2
    40    33    34    2
    41    35    34    1
